MODEL 1
REMARK VINA RESULT:      -6.8      0.000      0.000
REMARK  Name = 51354812
REMARK  4 active torsions:
REMARK  status: ('A' for Active; 'I' for Inactive)
REMARK    1  A    between atoms: C_3  and  O_22
REMARK    2  A    between atoms: C_9  and  O_24
REMARK    3  A    between atoms: C_10  and  O_26
REMARK    4  A    between atoms: C_14  and  O_28
REMARK                            x       y       z     vdW  Elec       q    Type
REMARK                         _______ _______ _______ _____ _____    ______ ____
ROOT
ATOM      1  O   UNL     1     -28.467  32.741   4.477  0.00  0.00    -0.286 OA
ATOM      2  O   UNL     1     -28.315  28.638   7.894  0.00  0.00    -0.286 OA
ATOM      3  C   UNL     1     -32.730  30.061   3.328  0.00  0.00    +0.140 C 
ATOM      4  C   UNL     1     -31.596  29.914   4.314  0.00  0.00    +0.041 A 
ATOM      5  C   UNL     1     -33.286  28.705   2.883  0.00  0.00    +0.060 C 
ATOM      6  C   UNL     1     -31.590  28.834   5.227  0.00  0.00    +0.038 A 
ATOM      7  C   UNL     1     -33.538  27.786   4.057  0.00  0.00    -0.017 C 
ATOM      8  C   UNL     1     -32.698  27.846   5.193  0.00  0.00    +0.033 C 
ATOM      9  C   UNL     1     -30.575  30.879   4.336  0.00  0.00    +0.135 A 
ATOM     10  C   UNL     1     -30.510  28.742   6.126  0.00  0.00    +0.137 A 
ATOM     11  C   UNL     1     -29.522  30.771   5.245  0.00  0.00    +0.078 A 
ATOM     12  C   UNL     1     -29.486  29.702   6.137  0.00  0.00    +0.079 A 
ATOM     13  C   UNL     1     -34.577  26.844   3.982  0.00  0.00    -0.008 C 
ATOM     14  C   UNL     1     -32.971  26.961   6.252  0.00  0.00    +0.133 C 
ATOM     15  C   UNL     1     -34.817  25.975   5.041  0.00  0.00    -0.019 C 
ATOM     16  C   UNL     1     -34.018  26.037   6.177  0.00  0.00    +0.032 C 
ATOM     17  C   UNL     1     -28.455  31.791   5.250  0.00  0.00    +0.199 C 
ATOM     18  C   UNL     1     -28.374  29.569   7.100  0.00  0.00    +0.199 C 
ATOM     19  C   UNL     1     -35.934  24.991   4.964  0.00  0.00    +0.031 C 
ATOM     20  C   UNL     1     -27.358  31.629   6.225  0.00  0.00    +0.045 C 
ATOM     21  C   UNL     1     -27.320  30.604   7.078  0.00  0.00    +0.045 C 
ENDROOT
BRANCH   3  22
ATOM     22  O   UNL     1     -33.756  30.839   3.938  0.00  0.00    -0.380 OA
ATOM     23  H   UNL     1     -34.174  30.326   4.647  0.00  0.00    +0.211 HD
ENDBRANCH   3  22
BRANCH   9  24
ATOM     24  O   UNL     1     -30.645  31.923   3.458  0.00  0.00    -0.506 OA
ATOM     25  H   UNL     1     -31.409  32.464   3.432  0.00  0.00    +0.292 HD
ENDBRANCH   9  24
BRANCH  10  26
ATOM     26  O   UNL     1     -30.251  27.574   6.794  0.00  0.00    -0.505 OA
ATOM     27  H   UNL     1     -29.990  26.810   6.317  0.00  0.00    +0.292 HD
ENDBRANCH  10  26
BRANCH  14  28
ATOM     28  O   UNL     1     -32.455  27.083   7.513  0.00  0.00    -0.506 OA
ATOM     29  H   UNL     1     -31.652  27.547   7.648  0.00  0.00    +0.292 HD
ENDBRANCH  14  28
TORSDOF 4
ENDMDL
MODEL 2
REMARK VINA RESULT:      -6.8      6.854      9.814
REMARK  Name = 51354812
REMARK  4 active torsions:
REMARK  status: ('A' for Active; 'I' for Inactive)
REMARK    1  A    between atoms: C_3  and  O_22
REMARK    2  A    between atoms: C_9  and  O_24
REMARK    3  A    between atoms: C_10  and  O_26
REMARK    4  A    between atoms: C_14  and  O_28
REMARK                            x       y       z     vdW  Elec       q    Type
REMARK                         _______ _______ _______ _____ _____    ______ ____
ROOT
ATOM      1  O   UNL     1     -35.208  20.958   4.430  0.00  0.00    -0.286 OA
ATOM      2  O   UNL     1     -36.220  26.133   5.287  0.00  0.00    -0.286 OA
ATOM      3  C   UNL     1     -38.829  22.073   0.919  0.00  0.00    +0.140 C 
ATOM      4  C   UNL     1     -38.106  22.837   2.003  0.00  0.00    +0.041 A 
ATOM      5  C   UNL     1     -40.251  22.598   0.696  0.00  0.00    +0.060 C 
ATOM      6  C   UNL     1     -38.371  24.212   2.196  0.00  0.00    +0.038 A 
ATOM      7  C   UNL     1     -40.286  24.105   0.587  0.00  0.00    -0.017 C 
ATOM      8  C   UNL     1     -39.373  24.888   1.333  0.00  0.00    +0.033 C 
ATOM      9  C   UNL     1     -37.147  22.173   2.787  0.00  0.00    +0.135 A 
ATOM     10  C   UNL     1     -37.671  24.877   3.220  0.00  0.00    +0.137 A 
ATOM     11  C   UNL     1     -36.458  22.859   3.788  0.00  0.00    +0.078 A 
ATOM     12  C   UNL     1     -36.722  24.208   4.008  0.00  0.00    +0.079 A 
ATOM     13  C   UNL     1     -41.263  24.714  -0.217  0.00  0.00    -0.008 C 
ATOM     14  C   UNL     1     -39.457  26.285   1.202  0.00  0.00    +0.133 C 
ATOM     15  C   UNL     1     -41.328  26.100  -0.317  0.00  0.00    -0.019 C 
ATOM     16  C   UNL     1     -40.422  26.885   0.387  0.00  0.00    +0.032 C 
ATOM     17  C   UNL     1     -35.459  22.145   4.607  0.00  0.00    +0.199 C 
ATOM     18  C   UNL     1     -36.007  24.946   5.070  0.00  0.00    +0.199 C 
ATOM     19  C   UNL     1     -42.355  26.740  -1.188  0.00  0.00    +0.031 C 
ATOM     20  C   UNL     1     -34.762  22.911   5.659  0.00  0.00    +0.045 C 
ATOM     21  C   UNL     1     -35.015  24.202   5.873  0.00  0.00    +0.045 C 
ENDROOT
BRANCH   3  22
ATOM     22  O   UNL     1     -38.070  22.177  -0.283  0.00  0.00    -0.380 OA
ATOM     23  H   UNL     1     -38.443  22.875  -0.843  0.00  0.00    +0.211 HD
ENDBRANCH   3  22
BRANCH   9  24
ATOM     24  O   UNL     1     -36.901  20.852   2.539  0.00  0.00    -0.506 OA
ATOM     25  H   UNL     1     -36.191  20.419   2.969  0.00  0.00    +0.292 HD
ENDBRANCH   9  24
BRANCH  10  26
ATOM     26  O   UNL     1     -38.101  26.089   3.691  0.00  0.00    -0.505 OA
ATOM     27  H   UNL     1     -38.591  26.135   4.489  0.00  0.00    +0.292 HD
ENDBRANCH  10  26
BRANCH  14  28
ATOM     28  O   UNL     1     -38.487  27.159   1.611  0.00  0.00    -0.506 OA
ATOM     29  H   UNL     1     -38.237  27.193   2.514  0.00  0.00    +0.292 HD
ENDBRANCH  14  28
TORSDOF 4
ENDMDL
MODEL 3
REMARK VINA RESULT:      -6.7      7.048      9.869
REMARK  Name = 51354812
REMARK  4 active torsions:
REMARK  status: ('A' for Active; 'I' for Inactive)
REMARK    1  A    between atoms: C_3  and  O_22
REMARK    2  A    between atoms: C_9  and  O_24
REMARK    3  A    between atoms: C_10  and  O_26
REMARK    4  A    between atoms: C_14  and  O_28
REMARK                            x       y       z     vdW  Elec       q    Type
REMARK                         _______ _______ _______ _____ _____    ______ ____
ROOT
ATOM      1  O   UNL     1     -35.869  25.660   5.706  0.00  0.00    -0.286 OA
ATOM      2  O   UNL     1     -35.591  20.751   3.617  0.00  0.00    -0.286 OA
ATOM      3  C   UNL     1     -39.524  25.698   2.057  0.00  0.00    +0.140 C 
ATOM      4  C   UNL     1     -38.521  24.692   2.568  0.00  0.00    +0.041 A 
ATOM      5  C   UNL     1     -39.821  25.508   0.566  0.00  0.00    +0.060 C 
ATOM      6  C   UNL     1     -38.482  23.390   2.018  0.00  0.00    +0.038 A 
ATOM      7  C   UNL     1     -40.093  24.061   0.224  0.00  0.00    -0.017 C 
ATOM      8  C   UNL     1     -39.426  23.032   0.929  0.00  0.00    +0.033 C 
ATOM      9  C   UNL     1     -37.658  25.055   3.616  0.00  0.00    +0.135 A 
ATOM     10  C   UNL     1     -37.528  22.490   2.530  0.00  0.00    +0.137 A 
ATOM     11  C   UNL     1     -36.728  24.140   4.113  0.00  0.00    +0.078 A 
ATOM     12  C   UNL     1     -36.660  22.861   3.568  0.00  0.00    +0.079 A 
ATOM     13  C   UNL     1     -40.970  23.757  -0.829  0.00  0.00    -0.008 C 
ATOM     14  C   UNL     1     -39.708  21.704   0.563  0.00  0.00    +0.133 C 
ATOM     15  C   UNL     1     -41.222  22.433  -1.176  0.00  0.00    -0.019 C 
ATOM     16  C   UNL     1     -40.596  21.408  -0.476  0.00  0.00    +0.032 C 
ATOM     17  C   UNL     1     -35.825  24.541   5.210  0.00  0.00    +0.199 C 
ATOM     18  C   UNL     1     -35.676  21.883   4.078  0.00  0.00    +0.199 C 
ATOM     19  C   UNL     1     -42.169  22.117  -2.282  0.00  0.00    +0.031 C 
ATOM     20  C   UNL     1     -34.854  23.541   5.696  0.00  0.00    +0.045 C 
ATOM     21  C   UNL     1     -34.784  22.315   5.174  0.00  0.00    +0.045 C 
ENDROOT
BRANCH   3  22
ATOM     22  O   UNL     1     -40.721  25.563   2.820  0.00  0.00    -0.380 OA
ATOM     23  H   UNL     1     -40.655  24.782   3.390  0.00  0.00    +0.211 HD
ENDBRANCH   3  22
BRANCH   9  24
ATOM     24  O   UNL     1     -37.757  26.313   4.139  0.00  0.00    -0.506 OA
ATOM     25  H   UNL     1     -38.471  26.868   3.893  0.00  0.00    +0.292 HD
ENDBRANCH   9  24
BRANCH  10  26
ATOM     26  O   UNL     1     -37.196  21.353   1.842  0.00  0.00    -0.505 OA
ATOM     27  H   UNL     1     -37.870  20.780   1.532  0.00  0.00    +0.292 HD
ENDBRANCH  10  26
BRANCH  14  28
ATOM     28  O   UNL     1     -39.385  20.610   1.317  0.00  0.00    -0.506 OA
ATOM     29  H   UNL     1     -39.149  19.804   0.898  0.00  0.00    +0.292 HD
ENDBRANCH  14  28
TORSDOF 4
ENDMDL
MODEL 4
REMARK VINA RESULT:      -6.7      3.766      5.600
REMARK  Name = 51354812
REMARK  4 active torsions:
REMARK  status: ('A' for Active; 'I' for Inactive)
REMARK    1  A    between atoms: C_3  and  O_22
REMARK    2  A    between atoms: C_9  and  O_24
REMARK    3  A    between atoms: C_10  and  O_26
REMARK    4  A    between atoms: C_14  and  O_28
REMARK                            x       y       z     vdW  Elec       q    Type
REMARK                         _______ _______ _______ _____ _____    ______ ____
ROOT
ATOM      1  O   UNL     1     -36.205  31.363   0.465  0.00  0.00    -0.286 OA
ATOM      2  O   UNL     1     -32.499  30.342   4.174  0.00  0.00    -0.286 OA
ATOM      3  C   UNL     1     -37.170  26.472   1.815  0.00  0.00    +0.140 C 
ATOM      4  C   UNL     1     -36.163  27.523   2.216  0.00  0.00    +0.041 A 
ATOM      5  C   UNL     1     -36.597  25.055   1.921  0.00  0.00    +0.060 C 
ATOM      6  C   UNL     1     -35.207  27.239   3.219  0.00  0.00    +0.038 A 
ATOM      7  C   UNL     1     -35.885  24.831   3.235  0.00  0.00    -0.017 C 
ATOM      8  C   UNL     1     -35.198  25.899   3.857  0.00  0.00    +0.033 C 
ATOM      9  C   UNL     1     -36.214  28.789   1.609  0.00  0.00    +0.135 A 
ATOM     10  C   UNL     1     -34.291  28.254   3.556  0.00  0.00    +0.137 A 
ATOM     11  C   UNL     1     -35.301  29.781   1.970  0.00  0.00    +0.078 A 
ATOM     12  C   UNL     1     -34.337  29.513   2.939  0.00  0.00    +0.079 A 
ATOM     13  C   UNL     1     -35.873  23.544   3.799  0.00  0.00    -0.008 C 
ATOM     14  C   UNL     1     -34.545  25.632   5.074  0.00  0.00    +0.133 C 
ATOM     15  C   UNL     1     -35.209  23.308   4.998  0.00  0.00    -0.019 C 
ATOM     16  C   UNL     1     -34.551  24.353   5.638  0.00  0.00    +0.032 C 
ATOM     17  C   UNL     1     -35.364  31.104   1.318  0.00  0.00    +0.199 C 
ATOM     18  C   UNL     1     -33.358  30.550   3.326  0.00  0.00    +0.199 C 
ATOM     19  C   UNL     1     -35.216  21.945   5.602  0.00  0.00    +0.031 C 
ATOM     20  C   UNL     1     -34.373  32.118   1.727  0.00  0.00    +0.045 C 
ATOM     21  C   UNL     1     -33.447  31.862   2.653  0.00  0.00    +0.045 C 
ENDROOT
BRANCH   3  22
ATOM     22  O   UNL     1     -38.315  26.605   2.655  0.00  0.00    -0.380 OA
ATOM     23  H   UNL     1     -39.119  26.540   2.118  0.00  0.00    +0.211 HD
ENDBRANCH   3  22
BRANCH   9  24
ATOM     24  O   UNL     1     -37.179  29.026   0.672  0.00  0.00    -0.506 OA
ATOM     25  H   UNL     1     -37.231  28.489  -0.094  0.00  0.00    +0.292 HD
ENDBRANCH   9  24
BRANCH  10  26
ATOM     26  O   UNL     1     -33.146  27.962   4.249  0.00  0.00    -0.505 OA
ATOM     27  H   UNL     1     -33.199  27.583   5.105  0.00  0.00    +0.292 HD
ENDBRANCH  10  26
BRANCH  14  28
ATOM     28  O   UNL     1     -34.094  26.593   5.935  0.00  0.00    -0.506 OA
ATOM     29  H   UNL     1     -34.657  27.300   6.187  0.00  0.00    +0.292 HD
ENDBRANCH  14  28
TORSDOF 4
ENDMDL
MODEL 5
REMARK VINA RESULT:      -6.6      7.154     12.097
REMARK  Name = 51354812
REMARK  4 active torsions:
REMARK  status: ('A' for Active; 'I' for Inactive)
REMARK    1  A    between atoms: C_3  and  O_22
REMARK    2  A    between atoms: C_9  and  O_24
REMARK    3  A    between atoms: C_10  and  O_26
REMARK    4  A    between atoms: C_14  and  O_28
REMARK                            x       y       z     vdW  Elec       q    Type
REMARK                         _______ _______ _______ _____ _____    ______ ____
ROOT
ATOM      1  O   UNL     1     -40.359  19.504  -1.322  0.00  0.00    -0.286 OA
ATOM      2  O   UNL     1     -41.700  24.348   0.486  0.00  0.00    -0.286 OA
ATOM      3  C   UNL     1     -36.437  20.751   1.799  0.00  0.00    +0.140 C 
ATOM      4  C   UNL     1     -37.717  21.418   1.357  0.00  0.00    +0.041 A 
ATOM      5  C   UNL     1     -35.328  21.768   2.088  0.00  0.00    +0.060 C 
ATOM      6  C   UNL     1     -38.065  22.690   1.868  0.00  0.00    +0.038 A 
ATOM      7  C   UNL     1     -35.819  22.909   2.949  0.00  0.00    -0.017 C 
ATOM      8  C   UNL     1     -37.153  23.362   2.828  0.00  0.00    +0.033 C 
ATOM      9  C   UNL     1     -38.569  20.744   0.465  0.00  0.00    +0.135 A 
ATOM     10  C   UNL     1     -39.270  23.267   1.423  0.00  0.00    +0.137 A 
ATOM     11  C   UNL     1     -39.763  21.334   0.049  0.00  0.00    +0.078 A 
ATOM     12  C   UNL     1     -40.112  22.596   0.523  0.00  0.00    +0.079 A 
ATOM     13  C   UNL     1     -34.924  23.541   3.828  0.00  0.00    -0.008 C 
ATOM     14  C   UNL     1     -37.554  24.433   3.646  0.00  0.00    +0.133 C 
ATOM     15  C   UNL     1     -35.347  24.606   4.618  0.00  0.00    -0.019 C 
ATOM     16  C   UNL     1     -36.662  25.047   4.531  0.00  0.00    +0.032 C 
ATOM     17  C   UNL     1     -40.643  20.616  -0.893  0.00  0.00    +0.199 C 
ATOM     18  C   UNL     1     -41.369  23.239   0.086  0.00  0.00    +0.199 C 
ATOM     19  C   UNL     1     -34.398  25.260   5.563  0.00  0.00    +0.031 C 
ATOM     20  C   UNL     1     -41.892  21.284  -1.310  0.00  0.00    +0.045 C 
ATOM     21  C   UNL     1     -42.226  22.494  -0.859  0.00  0.00    +0.045 C 
ENDROOT
BRANCH   3  22
ATOM     22  O   UNL     1     -36.714  19.979   2.964  0.00  0.00    -0.380 OA
ATOM     23  H   UNL     1     -35.904  19.880   3.488  0.00  0.00    +0.211 HD
ENDBRANCH   3  22
BRANCH   9  24
ATOM     24  O   UNL     1     -38.207  19.502   0.027  0.00  0.00    -0.506 OA
ATOM     25  H   UNL     1     -38.604  18.739   0.398  0.00  0.00    +0.292 HD
ENDBRANCH   9  24
BRANCH  10  26
ATOM     26  O   UNL     1     -39.510  24.605   1.593  0.00  0.00    -0.505 OA
ATOM     27  H   UNL     1     -39.811  25.123   0.872  0.00  0.00    +0.292 HD
ENDBRANCH  10  26
BRANCH  14  28
ATOM     28  O   UNL     1     -38.855  24.794   3.864  0.00  0.00    -0.506 OA
ATOM     29  H   UNL     1     -39.543  24.168   3.741  0.00  0.00    +0.292 HD
ENDBRANCH  14  28
TORSDOF 4
ENDMDL
MODEL 6
REMARK VINA RESULT:      -6.5     12.938     14.678
REMARK  Name = 51354812
REMARK  4 active torsions:
REMARK  status: ('A' for Active; 'I' for Inactive)
REMARK    1  A    between atoms: C_3  and  O_22
REMARK    2  A    between atoms: C_9  and  O_24
REMARK    3  A    between atoms: C_10  and  O_26
REMARK    4  A    between atoms: C_14  and  O_28
REMARK                            x       y       z     vdW  Elec       q    Type
REMARK                         _______ _______ _______ _____ _____    ______ ____
ROOT
ATOM      1  O   UNL     1     -43.150  31.087   5.997  0.00  0.00    -0.286 OA
ATOM      2  O   UNL     1     -46.419  28.114   8.999  0.00  0.00    -0.286 OA
ATOM      3  C   UNL     1     -44.565  27.272   2.816  0.00  0.00    +0.140 C 
ATOM      4  C   UNL     1     -44.860  27.647   4.249  0.00  0.00    +0.041 A 
ATOM      5  C   UNL     1     -44.597  25.756   2.600  0.00  0.00    +0.060 C 
ATOM      6  C   UNL     1     -45.748  26.860   5.017  0.00  0.00    +0.038 A 
ATOM      7  C   UNL     1     -45.823  25.123   3.217  0.00  0.00    -0.017 C 
ATOM      8  C   UNL     1     -46.373  25.659   4.405  0.00  0.00    +0.033 C 
ATOM      9  C   UNL     1     -44.271  28.802   4.791  0.00  0.00    +0.135 A 
ATOM     10  C   UNL     1     -45.989  27.253   6.348  0.00  0.00    +0.137 A 
ATOM     11  C   UNL     1     -44.535  29.176   6.109  0.00  0.00    +0.078 A 
ATOM     12  C   UNL     1     -45.390  28.400   6.889  0.00  0.00    +0.079 A 
ATOM     13  C   UNL     1     -46.373  23.973   2.628  0.00  0.00    -0.008 C 
ATOM     14  C   UNL     1     -47.507  25.025   4.941  0.00  0.00    +0.133 C 
ATOM     15  C   UNL     1     -47.490  23.360   3.188  0.00  0.00    -0.019 C 
ATOM     16  C   UNL     1     -48.060  23.890   4.340  0.00  0.00    +0.032 C 
ATOM     17  C   UNL     1     -43.903  30.388   6.665  0.00  0.00    +0.199 C 
ATOM     18  C   UNL     1     -45.673  28.777   8.289  0.00  0.00    +0.199 C 
ATOM     19  C   UNL     1     -48.081  22.152   2.547  0.00  0.00    +0.031 C 
ATOM     20  C   UNL     1     -44.208  30.738   8.067  0.00  0.00    +0.045 C 
ATOM     21  C   UNL     1     -45.023  29.995   8.816  0.00  0.00    +0.045 C 
ENDROOT
BRANCH   3  22
ATOM     22  O   UNL     1     -45.527  27.910   1.980  0.00  0.00    -0.380 OA
ATOM     23  H   UNL     1     -46.357  28.022   2.468  0.00  0.00    +0.211 HD
ENDBRANCH   3  22
BRANCH   9  24
ATOM     24  O   UNL     1     -43.447  29.549   3.998  0.00  0.00    -0.506 OA
ATOM     25  H   UNL     1     -43.789  29.978   3.239  0.00  0.00    +0.292 HD
ENDBRANCH   9  24
BRANCH  10  26
ATOM     26  O   UNL     1     -46.549  26.382   7.245  0.00  0.00    -0.505 OA
ATOM     27  H   UNL     1     -46.807  25.524   6.968  0.00  0.00    +0.292 HD
ENDBRANCH  10  26
BRANCH  14  28
ATOM     28  O   UNL     1     -48.321  25.574   5.894  0.00  0.00    -0.506 OA
ATOM     29  H   UNL     1     -48.067  26.366   6.327  0.00  0.00    +0.292 HD
ENDBRANCH  14  28
TORSDOF 4
ENDMDL
MODEL 7
REMARK VINA RESULT:      -6.5      6.032      8.917
REMARK  Name = 51354812
REMARK  4 active torsions:
REMARK  status: ('A' for Active; 'I' for Inactive)
REMARK    1  A    between atoms: C_3  and  O_22
REMARK    2  A    between atoms: C_9  and  O_24
REMARK    3  A    between atoms: C_10  and  O_26
REMARK    4  A    between atoms: C_14  and  O_28
REMARK                            x       y       z     vdW  Elec       q    Type
REMARK                         _______ _______ _______ _____ _____    ______ ____
ROOT
ATOM      1  O   UNL     1     -34.235  26.759   3.475  0.00  0.00    -0.286 OA
ATOM      2  O   UNL     1     -35.949  22.309   5.882  0.00  0.00    -0.286 OA
ATOM      3  C   UNL     1     -34.279  23.271  -0.335  0.00  0.00    +0.140 C 
ATOM      4  C   UNL     1     -34.610  23.264   1.138  0.00  0.00    +0.041 A 
ATOM      5  C   UNL     1     -33.745  21.917  -0.812  0.00  0.00    +0.060 C 
ATOM      6  C   UNL     1     -35.086  22.081   1.749  0.00  0.00    +0.038 A 
ATOM      7  C   UNL     1     -34.601  20.770  -0.326  0.00  0.00    -0.017 C 
ATOM      8  C   UNL     1     -35.243  20.851   0.931  0.00  0.00    +0.033 C 
ATOM      9  C   UNL     1     -34.473  24.450   1.878  0.00  0.00    +0.135 A 
ATOM     10  C   UNL     1     -35.380  22.127   3.126  0.00  0.00    +0.137 A 
ATOM     11  C   UNL     1     -34.782  24.471   3.239  0.00  0.00    +0.078 A 
ATOM     12  C   UNL     1     -35.231  23.311   3.864  0.00  0.00    +0.079 A 
ATOM     13  C   UNL     1     -34.707  19.610  -1.112  0.00  0.00    -0.008 C 
ATOM     14  C   UNL     1     -36.018  19.751   1.338  0.00  0.00    +0.133 C 
ATOM     15  C   UNL     1     -35.473  18.533  -0.677  0.00  0.00    -0.019 C 
ATOM     16  C   UNL     1     -36.133  18.607   0.544  0.00  0.00    +0.032 C 
ATOM     17  C   UNL     1     -34.626  25.725   4.003  0.00  0.00    +0.199 C 
ATOM     18  C   UNL     1     -35.554  23.315   5.306  0.00  0.00    +0.199 C 
ATOM     19  C   UNL     1     -35.597  17.313  -1.525  0.00  0.00    +0.031 C 
ATOM     20  C   UNL     1     -34.958  25.696   5.442  0.00  0.00    +0.045 C 
ATOM     21  C   UNL     1     -35.385  24.584   6.042  0.00  0.00    +0.045 C 
ENDROOT
BRANCH   3  22
ATOM     22  O   UNL     1     -35.458  23.619  -1.056  0.00  0.00    -0.380 OA
ATOM     23  H   UNL     1     -35.753  22.859  -1.581  0.00  0.00    +0.211 HD
ENDBRANCH   3  22
BRANCH   9  24
ATOM     24  O   UNL     1     -34.043  25.576   1.235  0.00  0.00    -0.506 OA
ATOM     25  H   UNL     1     -33.232  25.976   1.481  0.00  0.00    +0.292 HD
ENDBRANCH   9  24
BRANCH  10  26
ATOM     26  O   UNL     1     -35.514  20.974   3.853  0.00  0.00    -0.505 OA
ATOM     27  H   UNL     1     -35.983  20.245   3.494  0.00  0.00    +0.292 HD
ENDBRANCH  10  26
BRANCH  14  28
ATOM     28  O   UNL     1     -36.922  19.781   2.365  0.00  0.00    -0.506 OA
ATOM     29  H   UNL     1     -37.779  19.418   2.247  0.00  0.00    +0.292 HD
ENDBRANCH  14  28
TORSDOF 4
ENDMDL
MODEL 8
REMARK VINA RESULT:      -6.4      3.887      6.563
REMARK  Name = 51354812
REMARK  4 active torsions:
REMARK  status: ('A' for Active; 'I' for Inactive)
REMARK    1  A    between atoms: C_3  and  O_22
REMARK    2  A    between atoms: C_9  and  O_24
REMARK    3  A    between atoms: C_10  and  O_26
REMARK    4  A    between atoms: C_14  and  O_28
REMARK                            x       y       z     vdW  Elec       q    Type
REMARK                         _______ _______ _______ _____ _____    ______ ____
ROOT
ATOM      1  O   UNL     1     -33.706  31.513   1.102  0.00  0.00    -0.286 OA
ATOM      2  O   UNL     1     -38.090  28.537   0.425  0.00  0.00    -0.286 OA
ATOM      3  C   UNL     1     -32.928  27.492   4.249  0.00  0.00    +0.140 C 
ATOM      4  C   UNL     1     -34.023  27.926   3.305  0.00  0.00    +0.041 A 
ATOM      5  C   UNL     1     -33.475  26.695   5.437  0.00  0.00    +0.060 C 
ATOM      6  C   UNL     1     -35.164  27.111   3.122  0.00  0.00    +0.038 A 
ATOM      7  C   UNL     1     -34.444  25.621   4.999  0.00  0.00    -0.017 C 
ATOM      8  C   UNL     1     -35.275  25.836   3.875  0.00  0.00    +0.033 C 
ATOM      9  C   UNL     1     -33.876  29.127   2.589  0.00  0.00    +0.135 A 
ATOM     10  C   UNL     1     -36.156  27.562   2.230  0.00  0.00    +0.137 A 
ATOM     11  C   UNL     1     -34.870  29.546   1.703  0.00  0.00    +0.078 A 
ATOM     12  C   UNL     1     -36.011  28.767   1.527  0.00  0.00    +0.079 A 
ATOM     13  C   UNL     1     -34.544  24.438   5.750  0.00  0.00    -0.008 C 
ATOM     14  C   UNL     1     -36.165  24.807   3.518  0.00  0.00    +0.133 C 
ATOM     15  C   UNL     1     -35.442  23.443   5.378  0.00  0.00    -0.019 C 
ATOM     16  C   UNL     1     -36.247  23.625   4.260  0.00  0.00    +0.032 C 
ATOM     17  C   UNL     1     -34.702  30.813   0.965  0.00  0.00    +0.199 C 
ATOM     18  C   UNL     1     -37.076  29.201   0.599  0.00  0.00    +0.199 C 
ATOM     19  C   UNL     1     -35.529  22.181   6.167  0.00  0.00    +0.031 C 
ATOM     20  C   UNL     1     -35.784  31.217   0.045  0.00  0.00    +0.045 C 
ATOM     21  C   UNL     1     -36.879  30.475  -0.123  0.00  0.00    +0.045 C 
ENDROOT
BRANCH   3  22
ATOM     22  O   UNL     1     -31.992  26.705   3.516  0.00  0.00    -0.380 OA
ATOM     23  H   UNL     1     -31.693  27.198   2.738  0.00  0.00    +0.211 HD
ENDBRANCH   3  22
BRANCH   9  24
ATOM     24  O   UNL     1     -32.740  29.863   2.774  0.00  0.00    -0.506 OA
ATOM     25  H   UNL     1     -31.909  29.436   2.832  0.00  0.00    +0.292 HD
ENDBRANCH   9  24
BRANCH  10  26
ATOM     26  O   UNL     1     -37.415  27.022   2.251  0.00  0.00    -0.505 OA
ATOM     27  H   UNL     1     -37.610  26.310   2.829  0.00  0.00    +0.292 HD
ENDBRANCH  10  26
BRANCH  14  28
ATOM     28  O   UNL     1     -36.813  24.730   2.316  0.00  0.00    -0.506 OA
ATOM     29  H   UNL     1     -36.943  23.897   1.906  0.00  0.00    +0.292 HD
ENDBRANCH  14  28
TORSDOF 4
ENDMDL
MODEL 9
REMARK VINA RESULT:      -6.4      7.895     11.115
REMARK  Name = 51354812
REMARK  4 active torsions:
REMARK  status: ('A' for Active; 'I' for Inactive)
REMARK    1  A    between atoms: C_3  and  O_22
REMARK    2  A    between atoms: C_9  and  O_24
REMARK    3  A    between atoms: C_10  and  O_26
REMARK    4  A    between atoms: C_14  and  O_28
REMARK                            x       y       z     vdW  Elec       q    Type
REMARK                         _______ _______ _______ _____ _____    ______ ____
ROOT
ATOM      1  O   UNL     1     -40.682  26.844   3.380  0.00  0.00    -0.286 OA
ATOM      2  O   UNL     1     -41.547  22.854  -0.065  0.00  0.00    -0.286 OA
ATOM      3  C   UNL     1     -36.400  23.980   3.756  0.00  0.00    +0.140 C 
ATOM      4  C   UNL     1     -37.683  23.903   2.964  0.00  0.00    +0.041 A 
ATOM      5  C   UNL     1     -35.834  22.592   4.071  0.00  0.00    +0.060 C 
ATOM      6  C   UNL     1     -37.880  22.852   2.038  0.00  0.00    +0.038 A 
ATOM      7  C   UNL     1     -35.812  21.700   2.851  0.00  0.00    -0.017 C 
ATOM      8  C   UNL     1     -36.822  21.824   1.868  0.00  0.00    +0.033 C 
ATOM      9  C   UNL     1     -38.654  24.904   3.131  0.00  0.00    +0.135 A 
ATOM     10  C   UNL     1     -39.094  22.826   1.325  0.00  0.00    +0.137 A 
ATOM     11  C   UNL     1     -39.844  24.861   2.403  0.00  0.00    +0.078 A 
ATOM     12  C   UNL     1     -40.066  23.821   1.504  0.00  0.00    +0.079 A 
ATOM     13  C   UNL     1     -34.813  20.720   2.733  0.00  0.00    -0.008 C 
ATOM     14  C   UNL     1     -36.758  20.963   0.759  0.00  0.00    +0.133 C 
ATOM     15  C   UNL     1     -34.782  19.875   1.629  0.00  0.00    -0.019 C 
ATOM     16  C   UNL     1     -35.751  20.000   0.640  0.00  0.00    +0.032 C 
ATOM     17  C   UNL     1     -40.856  25.918   2.596  0.00  0.00    +0.199 C 
ATOM     18  C   UNL     1     -41.324  23.757   0.731  0.00  0.00    +0.199 C 
ATOM     19  C   UNL     1     -33.708  18.850   1.500  0.00  0.00    +0.031 C 
ATOM     20  C   UNL     1     -42.102  25.825   1.809  0.00  0.00    +0.045 C 
ATOM     21  C   UNL     1     -42.318  24.828   0.950  0.00  0.00    +0.045 C 
ENDROOT
BRANCH   3  22
ATOM     22  O   UNL     1     -35.455  24.739   3.006  0.00  0.00    -0.380 OA
ATOM     23  H   UNL     1     -34.559  24.535   3.313  0.00  0.00    +0.211 HD
ENDBRANCH   3  22
BRANCH   9  24
ATOM     24  O   UNL     1     -38.402  25.918   4.011  0.00  0.00    -0.506 OA
ATOM     25  H   UNL     1     -38.669  26.793   3.808  0.00  0.00    +0.292 HD
ENDBRANCH   9  24
BRANCH  10  26
ATOM     26  O   UNL     1     -39.504  21.689   0.681  0.00  0.00    -0.505 OA
ATOM     27  H   UNL     1     -39.051  20.880   0.822  0.00  0.00    +0.292 HD
ENDBRANCH  10  26
BRANCH  14  28
ATOM     28  O   UNL     1     -37.466  21.141  -0.399  0.00  0.00    -0.506 OA
ATOM     29  H   UNL     1     -38.073  20.485  -0.683  0.00  0.00    +0.292 HD
ENDBRANCH  14  28
TORSDOF 4
ENDMDL
