MODEL 1
REMARK VINA RESULT:      -6.2      0.000      0.000
REMARK  Name = 5486959
REMARK  10 active torsions:
REMARK  status: ('A' for Active; 'I' for Inactive)
REMARK    1  A    between atoms: N_2  and  CA_5
REMARK    2  A    between atoms: C_3  and  CA_16
REMARK    3  A    between atoms: CA_5  and  C_9
REMARK    4  A    between atoms: N_8  and  CA_11
REMARK    5  A    between atoms: CA_11  and  C_13
REMARK    6  A    between atoms: C_13  and  O_14
REMARK    7  A    between atoms: CA_16  and  N_17
REMARK    8  A    between atoms: CA_16  and  CB_21
REMARK    9  A    between atoms: CB_21  and  CG_22
REMARK   10  A    between atoms: CZ_27  and  OH_28
REMARK                            x       y       z     vdW  Elec       q    Type
REMARK                         _______ _______ _______ _____ _____    ______ ____
ROOT
ATOM      1  O   TYR A   1     -32.554  27.389   3.253  0.00  0.00    -0.277 OA
ATOM      2  N   ALA A   2     -34.800  27.775   3.675  0.00  0.00    -0.300 N 
ATOM      3  C   TYR A   1     -33.555  27.230   3.949  0.00  0.00    +0.202 C 
ATOM      4  H   ALA A   2     -35.546  27.593   4.292  0.00  0.00    +0.150 HD
ENDROOT
BRANCH   2   5
ATOM      5  CA  ALA A   2     -35.039  28.601   2.515  0.00  0.00    +0.149 C 
ATOM      6  CB  ALA A   2     -35.090  30.074   2.886  0.00  0.00    +0.031 C 
BRANCH   5   9
ATOM      7  O   ALA A   2     -36.967  28.834   1.065  0.00  0.00    -0.273 OA
ATOM      8  N   GLY A   3     -36.771  26.924   2.368  0.00  0.00    -0.294 N 
ATOM      9  C   ALA A   2     -36.349  28.153   1.881  0.00  0.00    +0.241 C 
ATOM     10  H   GLY A   3     -36.203  26.455   3.022  0.00  0.00    +0.150 HD
BRANCH   8  11
ATOM     11  CA  GLY A   3     -38.007  26.303   1.953  0.00  0.00    +0.200 C 
BRANCH  11  13
ATOM     12  OXT GLY A   3     -38.591  24.676   3.628  0.00  0.00    -0.248 OA
ATOM     13  C   GLY A   3     -38.810  25.763   3.109  0.00  0.00    +0.334 C 
BRANCH  13  14
ATOM     14  O   GLY A   3     -39.797  26.595   3.517  0.00  0.00    -0.479 OA
ATOM     15  H   GLY A   3     -39.681  27.522   3.461  0.00  0.00    +0.295 HD
ENDBRANCH  13  14
ENDBRANCH  11  13
ENDBRANCH   8  11
ENDBRANCH   5   9
ENDBRANCH   2   5
BRANCH   3  16
ATOM     16  CA  TYR A   1     -33.542  26.418   5.242  0.00  0.00    +0.017 C 
BRANCH  16  17
ATOM     17  N   TYR A   1     -33.115  27.328   6.305  0.00  0.00    +0.388 N 
ATOM     18  H1  TYR A   1     -32.154  27.111   6.572  0.00  0.00    -0.089 HD
ATOM     19  H2  TYR A   1     -33.725  27.215   7.115  0.00  0.00    -0.089 HD
ATOM     20  H3  TYR A   1     -33.166  28.290   5.971  0.00  0.00    -0.089 HD
ENDBRANCH  16  17
BRANCH  16  21
ATOM     21  CB  TYR A   1     -34.942  25.870   5.553  0.00  0.00    +0.013 C 
BRANCH  21  22
ATOM     22  CG  TYR A   1     -35.125  24.439   5.102  0.00  0.00    -0.024 C 
ATOM     23  CD1 TYR A   1     -35.152  24.155   3.747  0.00  0.00    -0.001 C 
ATOM     24  CD2 TYR A   1     -35.262  23.442   6.053  0.00  0.00    -0.001 C 
ATOM     25  CE1 TYR A   1     -35.322  22.833   3.331  0.00  0.00    +0.036 C 
ATOM     26  CE2 TYR A   1     -35.432  22.121   5.637  0.00  0.00    +0.036 C 
ATOM     27  CZ  TYR A   1     -35.461  21.817   4.276  0.00  0.00    +0.134 C 
BRANCH  27  28
ATOM     28  OH  TYR A   1     -35.625  20.528   3.869  0.00  0.00    -0.506 OA
ATOM     29  HH  TYR A   1     -35.160  20.211   3.120  0.00  0.00    +0.292 HD
ENDBRANCH  27  28
ENDBRANCH  21  22
ENDBRANCH  16  21
ENDBRANCH   3  16
TORSDOF 10
ENDMDL
MODEL 2
REMARK VINA RESULT:      -6.1      4.594      6.455
REMARK  Name = 5486959
REMARK  10 active torsions:
REMARK  status: ('A' for Active; 'I' for Inactive)
REMARK    1  A    between atoms: N_2  and  CA_5
REMARK    2  A    between atoms: C_3  and  CA_16
REMARK    3  A    between atoms: CA_5  and  C_9
REMARK    4  A    between atoms: N_8  and  CA_11
REMARK    5  A    between atoms: CA_11  and  C_13
REMARK    6  A    between atoms: C_13  and  O_14
REMARK    7  A    between atoms: CA_16  and  N_17
REMARK    8  A    between atoms: CA_16  and  CB_21
REMARK    9  A    between atoms: CB_21  and  CG_22
REMARK   10  A    between atoms: CZ_27  and  OH_28
REMARK                            x       y       z     vdW  Elec       q    Type
REMARK                         _______ _______ _______ _____ _____    ______ ____
ROOT
ATOM      1  O   TYR A   1     -34.752  22.330   1.824  0.00  0.00    -0.277 OA
ATOM      2  N   ALA A   2     -35.569  21.448   3.807  0.00  0.00    -0.300 N 
ATOM      3  C   TYR A   1     -35.168  21.378   2.481  0.00  0.00    +0.202 C 
ATOM      4  H   ALA A   2     -35.889  20.630   4.252  0.00  0.00    +0.150 HD
ENDROOT
BRANCH   2   5
ATOM      5  CA  ALA A   2     -35.532  22.682   4.555  0.00  0.00    +0.149 C 
ATOM      6  CB  ALA A   2     -35.513  22.420   6.052  0.00  0.00    +0.031 C 
BRANCH   5   9
ATOM      7  O   ALA A   2     -37.005  24.604   4.653  0.00  0.00    -0.273 OA
ATOM      8  N   GLY A   3     -37.544  22.853   3.231  0.00  0.00    -0.294 N 
ATOM      9  C   ALA A   2     -36.751  23.507   4.162  0.00  0.00    +0.241 C 
ATOM     10  H   GLY A   3     -37.253  21.974   2.896  0.00  0.00    +0.150 HD
BRANCH   8  11
ATOM     11  CA  GLY A   3     -38.780  23.410   2.730  0.00  0.00    +0.200 C 
BRANCH  11  13
ATOM     12  OXT GLY A   3     -40.568  22.695   1.287  0.00  0.00    -0.248 OA
ATOM     13  C   GLY A   3     -39.640  22.392   2.027  0.00  0.00    +0.334 C 
BRANCH  13  14
ATOM     14  O   GLY A   3     -39.290  21.112   2.292  0.00  0.00    -0.479 OA
ATOM     15  H   GLY A   3     -38.789  20.913   3.057  0.00  0.00    +0.295 HD
ENDBRANCH  13  14
ENDBRANCH  11  13
ENDBRANCH   8  11
ENDBRANCH   5   9
ENDBRANCH   2   5
BRANCH   3  16
ATOM     16  CA  TYR A   1     -35.271  19.965   1.912  0.00  0.00    +0.017 C 
BRANCH  16  17
ATOM     17  N   TYR A   1     -36.696  19.637   1.855  0.00  0.00    +0.388 N 
ATOM     18  H1  TYR A   1     -36.823  18.642   2.044  0.00  0.00    -0.089 HD
ATOM     19  H2  TYR A   1     -37.058  19.855   0.926  0.00  0.00    -0.089 HD
ATOM     20  H3  TYR A   1     -37.199  20.183   2.553  0.00  0.00    -0.089 HD
ENDBRANCH  16  17
BRANCH  16  21
ATOM     21  CB  TYR A   1     -34.662  19.901   0.504  0.00  0.00    +0.013 C 
BRANCH  21  22
ATOM     22  CG  TYR A   1     -33.222  19.445   0.508  0.00  0.00    -0.024 C 
ATOM     23  CD1 TYR A   1     -32.265  20.217  -0.130  0.00  0.00    -0.001 C 
ATOM     24  CD2 TYR A   1     -32.886  18.265   1.151  0.00  0.00    -0.001 C 
ATOM     25  CE1 TYR A   1     -30.935  19.795  -0.127  0.00  0.00    +0.036 C 
ATOM     26  CE2 TYR A   1     -31.557  17.843   1.154  0.00  0.00    +0.036 C 
ATOM     27  CZ  TYR A   1     -30.581  18.608   0.516  0.00  0.00    +0.134 C 
BRANCH  27  28
ATOM     28  OH  TYR A   1     -29.283  18.199   0.519  0.00  0.00    -0.506 OA
ATOM     29  HH  TYR A   1     -28.920  17.798   1.284  0.00  0.00    +0.292 HD
ENDBRANCH  27  28
ENDBRANCH  21  22
ENDBRANCH  16  21
ENDBRANCH   3  16
TORSDOF 10
ENDMDL
MODEL 3
REMARK VINA RESULT:      -6.0      4.319      6.566
REMARK  Name = 5486959
REMARK  10 active torsions:
REMARK  status: ('A' for Active; 'I' for Inactive)
REMARK    1  A    between atoms: N_2  and  CA_5
REMARK    2  A    between atoms: C_3  and  CA_16
REMARK    3  A    between atoms: CA_5  and  C_9
REMARK    4  A    between atoms: N_8  and  CA_11
REMARK    5  A    between atoms: CA_11  and  C_13
REMARK    6  A    between atoms: C_13  and  O_14
REMARK    7  A    between atoms: CA_16  and  N_17
REMARK    8  A    between atoms: CA_16  and  CB_21
REMARK    9  A    between atoms: CB_21  and  CG_22
REMARK   10  A    between atoms: CZ_27  and  OH_28
REMARK                            x       y       z     vdW  Elec       q    Type
REMARK                         _______ _______ _______ _____ _____    ______ ____
ROOT
ATOM      1  O   TYR A   1     -34.850  22.091   2.135  0.00  0.00    -0.277 OA
ATOM      2  N   ALA A   2     -35.760  21.284   4.109  0.00  0.00    -0.300 N 
ATOM      3  C   TYR A   1     -35.544  21.276   2.739  0.00  0.00    +0.202 C 
ATOM      4  H   ALA A   2     -36.332  20.587   4.505  0.00  0.00    +0.150 HD
ENDROOT
BRANCH   2   5
ATOM      5  CA  ALA A   2     -35.171  22.279   4.972  0.00  0.00    +0.149 C 
ATOM      6  CB  ALA A   2     -35.520  22.023   6.429  0.00  0.00    +0.031 C 
BRANCH   5   9
ATOM      7  O   ALA A   2     -36.832  24.020   4.682  0.00  0.00    -0.273 OA
ATOM      8  N   GLY A   3     -34.682  24.381   3.887  0.00  0.00    -0.294 N 
ATOM      9  C   ALA A   2     -35.672  23.646   4.524  0.00  0.00    +0.241 C 
ATOM     10  H   GLY A   3     -33.780  23.992   3.811  0.00  0.00    +0.150 HD
BRANCH   8  11
ATOM     11  CA  GLY A   3     -34.920  25.694   3.333  0.00  0.00    +0.200 C 
BRANCH  11  13
ATOM     12  OXT GLY A   3     -33.860  27.433   4.616  0.00  0.00    -0.248 OA
ATOM     13  C   GLY A   3     -34.871  26.786   4.370  0.00  0.00    +0.334 C 
BRANCH  13  14
ATOM     14  O   GLY A   3     -36.051  26.984   5.003  0.00  0.00    -0.479 OA
ATOM     15  H   GLY A   3     -36.577  27.729   4.791  0.00  0.00    +0.295 HD
ENDBRANCH  13  14
ENDBRANCH  11  13
ENDBRANCH   8  11
ENDBRANCH   5   9
ENDBRANCH   2   5
BRANCH   3  16
ATOM     16  CA  TYR A   1     -36.247  20.113   2.042  0.00  0.00    +0.017 C 
BRANCH  16  17
ATOM     17  N   TYR A   1     -37.666  20.460   1.972  0.00  0.00    +0.388 N 
ATOM     18  H1  TYR A   1     -38.229  19.631   2.166  0.00  0.00    -0.089 HD
ATOM     19  H2  TYR A   1     -37.886  20.808   1.039  0.00  0.00    -0.089 HD
ATOM     20  H3  TYR A   1     -37.875  21.182   2.662  0.00  0.00    -0.089 HD
ENDBRANCH  16  17
BRANCH  16  21
ATOM     21  CB  TYR A   1     -35.687  19.910   0.626  0.00  0.00    +0.013 C 
BRANCH  21  22
ATOM     22  CG  TYR A   1     -34.613  18.849   0.567  0.00  0.00    -0.024 C 
ATOM     23  CD1 TYR A   1     -34.833  17.704  -0.181  0.00  0.00    -0.001 C 
ATOM     24  CD2 TYR A   1     -33.431  19.042   1.262  0.00  0.00    -0.001 C 
ATOM     25  CE1 TYR A   1     -33.842  16.724  -0.234  0.00  0.00    +0.036 C 
ATOM     26  CE2 TYR A   1     -32.440  18.062   1.209  0.00  0.00    +0.036 C 
ATOM     27  CZ  TYR A   1     -32.645  16.903   0.460  0.00  0.00    +0.134 C 
BRANCH  27  28
ATOM     28  OH  TYR A   1     -31.678  15.946   0.406  0.00  0.00    -0.506 OA
ATOM     29  HH  TYR A   1     -31.029  15.897   1.080  0.00  0.00    +0.292 HD
ENDBRANCH  27  28
ENDBRANCH  21  22
ENDBRANCH  16  21
ENDBRANCH   3  16
TORSDOF 10
ENDMDL
MODEL 4
REMARK VINA RESULT:      -5.9      5.149      8.059
REMARK  Name = 5486959
REMARK  10 active torsions:
REMARK  status: ('A' for Active; 'I' for Inactive)
REMARK    1  A    between atoms: N_2  and  CA_5
REMARK    2  A    between atoms: C_3  and  CA_16
REMARK    3  A    between atoms: CA_5  and  C_9
REMARK    4  A    between atoms: N_8  and  CA_11
REMARK    5  A    between atoms: CA_11  and  C_13
REMARK    6  A    between atoms: C_13  and  O_14
REMARK    7  A    between atoms: CA_16  and  N_17
REMARK    8  A    between atoms: CA_16  and  CB_21
REMARK    9  A    between atoms: CB_21  and  CG_22
REMARK   10  A    between atoms: CZ_27  and  OH_28
REMARK                            x       y       z     vdW  Elec       q    Type
REMARK                         _______ _______ _______ _____ _____    ______ ____
ROOT
ATOM      1  O   TYR A   1     -34.759  20.810   0.146  0.00  0.00    -0.277 OA
ATOM      2  N   ALA A   2     -34.182  19.331   1.836  0.00  0.00    -0.300 N 
ATOM      3  C   TYR A   1     -34.914  20.372   1.284  0.00  0.00    +0.202 C 
ATOM      4  H   ALA A   2     -34.377  19.048   2.759  0.00  0.00    +0.150 HD
ENDROOT
BRANCH   2   5
ATOM      5  CA  ALA A   2     -33.142  18.650   1.101  0.00  0.00    +0.149 C 
ATOM      6  CB  ALA A   2     -32.111  19.630   0.566  0.00  0.00    +0.031 C 
BRANCH   5   9
ATOM      7  O   ALA A   2     -33.546  18.080  -1.219  0.00  0.00    -0.273 OA
ATOM      8  N   GLY A   3     -34.732  16.961   0.432  0.00  0.00    -0.294 N 
ATOM      9  C   ALA A   2     -33.799  17.876  -0.034  0.00  0.00    +0.241 C 
ATOM     10  H   GLY A   3     -34.862  16.871   1.404  0.00  0.00    +0.150 HD
BRANCH   8  11
ATOM     11  CA  GLY A   3     -35.521  16.133  -0.452  0.00  0.00    +0.200 C 
BRANCH  11  13
ATOM     12  OXT GLY A   3     -37.752  15.232  -0.381  0.00  0.00    -0.248 OA
ATOM     13  C   GLY A   3     -36.991  16.156  -0.121  0.00  0.00    +0.334 C 
BRANCH  13  14
ATOM     14  O   GLY A   3     -37.391  17.296   0.489  0.00  0.00    -0.479 OA
ATOM     15  H   GLY A   3     -38.209  17.689   0.258  0.00  0.00    +0.295 HD
ENDBRANCH  13  14
ENDBRANCH  11  13
ENDBRANCH   8  11
ENDBRANCH   5   9
ENDBRANCH   2   5
BRANCH   3  16
ATOM     16  CA  TYR A   1     -35.973  20.914   2.240  0.00  0.00    +0.017 C 
BRANCH  16  17
ATOM     17  N   TYR A   1     -36.989  19.870   2.378  0.00  0.00    +0.388 N 
ATOM     18  H1  TYR A   1     -37.540  20.042   3.220  0.00  0.00    -0.089 HD
ATOM     19  H2  TYR A   1     -36.534  18.960   2.451  0.00  0.00    -0.089 HD
ATOM     20  H3  TYR A   1     -37.601  19.881   1.563  0.00  0.00    -0.089 HD
ENDBRANCH  16  17
BRANCH  16  21
ATOM     21  CB  TYR A   1     -35.357  21.230   3.611  0.00  0.00    +0.013 C 
BRANCH  21  22
ATOM     22  CG  TYR A   1     -35.679  22.627   4.090  0.00  0.00    -0.024 C 
ATOM     23  CD1 TYR A   1     -36.652  23.360   3.433  0.00  0.00    -0.001 C 
ATOM     24  CD2 TYR A   1     -34.993  23.145   5.176  0.00  0.00    -0.001 C 
ATOM     25  CE1 TYR A   1     -36.948  24.651   3.875  0.00  0.00    +0.036 C 
ATOM     26  CE2 TYR A   1     -35.288  24.435   5.617  0.00  0.00    +0.036 C 
ATOM     27  CZ  TYR A   1     -36.266  25.187   4.967  0.00  0.00    +0.134 C 
BRANCH  27  28
ATOM     28  OH  TYR A   1     -36.557  26.446   5.398  0.00  0.00    -0.506 OA
ATOM     29  HH  TYR A   1     -37.404  26.812   5.238  0.00  0.00    +0.292 HD
ENDBRANCH  27  28
ENDBRANCH  21  22
ENDBRANCH  16  21
ENDBRANCH   3  16
TORSDOF 10
ENDMDL
MODEL 5
REMARK VINA RESULT:      -5.9      2.994      5.800
REMARK  Name = 5486959
REMARK  10 active torsions:
REMARK  status: ('A' for Active; 'I' for Inactive)
REMARK    1  A    between atoms: N_2  and  CA_5
REMARK    2  A    between atoms: C_3  and  CA_16
REMARK    3  A    between atoms: CA_5  and  C_9
REMARK    4  A    between atoms: N_8  and  CA_11
REMARK    5  A    between atoms: CA_11  and  C_13
REMARK    6  A    between atoms: C_13  and  O_14
REMARK    7  A    between atoms: CA_16  and  N_17
REMARK    8  A    between atoms: CA_16  and  CB_21
REMARK    9  A    between atoms: CB_21  and  CG_22
REMARK   10  A    between atoms: CZ_27  and  OH_28
REMARK                            x       y       z     vdW  Elec       q    Type
REMARK                         _______ _______ _______ _____ _____    ______ ____
ROOT
ATOM      1  O   TYR A   1     -34.921  28.909   3.093  0.00  0.00    -0.277 OA
ATOM      2  N   ALA A   2     -33.291  27.689   4.203  0.00  0.00    -0.300 N 
ATOM      3  C   TYR A   1     -34.538  27.868   3.624  0.00  0.00    +0.202 C 
ATOM      4  H   ALA A   2     -33.073  26.817   4.605  0.00  0.00    +0.150 HD
ENDROOT
BRANCH   2   5
ATOM      5  CA  ALA A   2     -32.301  28.740   4.235  0.00  0.00    +0.149 C 
ATOM      6  CB  ALA A   2     -31.223  28.516   3.187  0.00  0.00    +0.031 C 
BRANCH   5   9
ATOM      7  O   ALA A   2     -32.342  28.503   6.646  0.00  0.00    -0.273 OA
ATOM      8  N   GLY A   3     -30.381  29.202   5.624  0.00  0.00    -0.294 N 
ATOM      9  C   ALA A   2     -31.702  28.779   5.634  0.00  0.00    +0.241 C 
ATOM     10  H   GLY A   3     -29.954  29.399   4.758  0.00  0.00    +0.150 HD
BRANCH   8  11
ATOM     11  CA  GLY A   3     -29.603  29.362   6.831  0.00  0.00    +0.200 C 
BRANCH  11  13
ATOM     12  OXT GLY A   3     -28.650  27.196   6.391  0.00  0.00    -0.248 OA
ATOM     13  C   GLY A   3     -28.697  28.190   7.105  0.00  0.00    +0.334 C 
BRANCH  13  14
ATOM     14  O   GLY A   3     -27.940  28.339   8.218  0.00  0.00    -0.479 OA
ATOM     15  H   GLY A   3     -28.281  28.089   9.053  0.00  0.00    +0.295 HD
ENDBRANCH  13  14
ENDBRANCH  11  13
ENDBRANCH   8  11
ENDBRANCH   5   9
ENDBRANCH   2   5
BRANCH   3  16
ATOM     16  CA  TYR A   1     -35.400  26.610   3.688  0.00  0.00    +0.017 C 
BRANCH  16  17
ATOM     17  N   TYR A   1     -36.617  26.894   2.928  0.00  0.00    +0.388 N 
ATOM     18  H1  TYR A   1     -37.282  27.388   3.524  0.00  0.00    -0.089 HD
ATOM     19  H2  TYR A   1     -37.032  26.018   2.610  0.00  0.00    -0.089 HD
ATOM     20  H3  TYR A   1     -36.387  27.474   2.122  0.00  0.00    -0.089 HD
ENDBRANCH  16  17
BRANCH  16  21
ATOM     21  CB  TYR A   1     -34.662  25.414   3.067  0.00  0.00    +0.013 C 
BRANCH  21  22
ATOM     22  CG  TYR A   1     -34.895  24.126   3.820  0.00  0.00    -0.024 C 
ATOM     23  CD1 TYR A   1     -35.279  22.993   3.121  0.00  0.00    -0.001 C 
ATOM     24  CD2 TYR A   1     -34.721  24.103   5.194  0.00  0.00    -0.001 C 
ATOM     25  CE1 TYR A   1     -35.496  21.804   3.818  0.00  0.00    +0.036 C 
ATOM     26  CE2 TYR A   1     -34.938  22.914   5.890  0.00  0.00    +0.036 C 
ATOM     27  CZ  TYR A   1     -35.325  21.764   5.201  0.00  0.00    +0.134 C 
BRANCH  27  28
ATOM     28  OH  TYR A   1     -35.535  20.602   5.879  0.00  0.00    -0.506 OA
ATOM     29  HH  TYR A   1     -35.116  20.458   6.704  0.00  0.00    +0.292 HD
ENDBRANCH  27  28
ENDBRANCH  21  22
ENDBRANCH  16  21
ENDBRANCH   3  16
TORSDOF 10
ENDMDL
MODEL 6
REMARK VINA RESULT:      -5.9      4.105      6.359
REMARK  Name = 5486959
REMARK  10 active torsions:
REMARK  status: ('A' for Active; 'I' for Inactive)
REMARK    1  A    between atoms: N_2  and  CA_5
REMARK    2  A    between atoms: C_3  and  CA_16
REMARK    3  A    between atoms: CA_5  and  C_9
REMARK    4  A    between atoms: N_8  and  CA_11
REMARK    5  A    between atoms: CA_11  and  C_13
REMARK    6  A    between atoms: C_13  and  O_14
REMARK    7  A    between atoms: CA_16  and  N_17
REMARK    8  A    between atoms: CA_16  and  CB_21
REMARK    9  A    between atoms: CB_21  and  CG_22
REMARK   10  A    between atoms: CZ_27  and  OH_28
REMARK                            x       y       z     vdW  Elec       q    Type
REMARK                         _______ _______ _______ _____ _____    ______ ____
ROOT
ATOM      1  O   TYR A   1     -34.843  22.408   2.105  0.00  0.00    -0.277 OA
ATOM      2  N   ALA A   2     -35.566  21.474   4.101  0.00  0.00    -0.300 N 
ATOM      3  C   TYR A   1     -35.358  21.482   2.730  0.00  0.00    +0.202 C 
ATOM      4  H   ALA A   2     -35.987  20.686   4.514  0.00  0.00    +0.150 HD
ENDROOT
BRANCH   2   5
ATOM      5  CA  ALA A   2     -35.187  22.585   4.941  0.00  0.00    +0.149 C 
ATOM      6  CB  ALA A   2     -35.511  22.310   6.400  0.00  0.00    +0.031 C 
BRANCH   5   9
ATOM      7  O   ALA A   2     -37.144  23.946   4.500  0.00  0.00    -0.273 OA
ATOM      8  N   GLY A   3     -35.057  24.755   3.888  0.00  0.00    -0.294 N 
ATOM      9  C   ALA A   2     -35.922  23.823   4.443  0.00  0.00    +0.241 C 
ATOM     10  H   GLY A   3     -34.091  24.563   3.891  0.00  0.00    +0.150 HD
BRANCH   8  11
ATOM     11  CA  GLY A   3     -35.515  25.996   3.308  0.00  0.00    +0.200 C 
BRANCH  11  13
ATOM     12  OXT GLY A   3     -34.071  27.142   4.855  0.00  0.00    -0.248 OA
ATOM     13  C   GLY A   3     -34.870  27.208   3.929  0.00  0.00    +0.334 C 
BRANCH  13  14
ATOM     14  O   GLY A   3     -35.258  28.377   3.366  0.00  0.00    -0.479 OA
ATOM     15  H   GLY A   3     -35.652  29.042   3.894  0.00  0.00    +0.295 HD
ENDBRANCH  13  14
ENDBRANCH  11  13
ENDBRANCH   8  11
ENDBRANCH   5   9
ENDBRANCH   2   5
BRANCH   3  16
ATOM     16  CA  TYR A   1     -35.814  20.188   2.060  0.00  0.00    +0.017 C 
BRANCH  16  17
ATOM     17  N   TYR A   1     -37.276  20.231   2.015  0.00  0.00    +0.388 N 
ATOM     18  H1  TYR A   1     -37.636  19.306   1.777  0.00  0.00    -0.089 HD
ATOM     19  H2  TYR A   1     -37.575  20.903   1.308  0.00  0.00    -0.089 HD
ATOM     20  H3  TYR A   1     -37.637  20.512   2.926  0.00  0.00    -0.089 HD
ENDBRANCH  16  17
BRANCH  16  21
ATOM     21  CB  TYR A   1     -35.249  20.084   0.636  0.00  0.00    +0.013 C 
BRANCH  21  22
ATOM     22  CG  TYR A   1     -33.802  19.650   0.610  0.00  0.00    -0.024 C 
ATOM     23  CD1 TYR A   1     -33.438  18.469   1.234  0.00  0.00    -0.001 C 
ATOM     24  CD2 TYR A   1     -32.868  20.442  -0.037  0.00  0.00    -0.001 C 
ATOM     25  CE1 TYR A   1     -32.101  18.069   1.211  0.00  0.00    +0.036 C 
ATOM     26  CE2 TYR A   1     -31.532  20.043  -0.060  0.00  0.00    +0.036 C 
ATOM     27  CZ  TYR A   1     -31.149  18.855   0.564  0.00  0.00    +0.134 C 
BRANCH  27  28
ATOM     28  OH  TYR A   1     -29.846  18.463   0.541  0.00  0.00    -0.506 OA
ATOM     29  HH  TYR A   1     -29.169  19.094   0.395  0.00  0.00    +0.292 HD
ENDBRANCH  27  28
ENDBRANCH  21  22
ENDBRANCH  16  21
ENDBRANCH   3  16
TORSDOF 10
ENDMDL
MODEL 7
REMARK VINA RESULT:      -5.8      4.205      6.199
REMARK  Name = 5486959
REMARK  10 active torsions:
REMARK  status: ('A' for Active; 'I' for Inactive)
REMARK    1  A    between atoms: N_2  and  CA_5
REMARK    2  A    between atoms: C_3  and  CA_16
REMARK    3  A    between atoms: CA_5  and  C_9
REMARK    4  A    between atoms: N_8  and  CA_11
REMARK    5  A    between atoms: CA_11  and  C_13
REMARK    6  A    between atoms: C_13  and  O_14
REMARK    7  A    between atoms: CA_16  and  N_17
REMARK    8  A    between atoms: CA_16  and  CB_21
REMARK    9  A    between atoms: CB_21  and  CG_22
REMARK   10  A    between atoms: CZ_27  and  OH_28
REMARK                            x       y       z     vdW  Elec       q    Type
REMARK                         _______ _______ _______ _____ _____    ______ ____
ROOT
ATOM      1  O   TYR A   1     -34.860  22.332   2.104  0.00  0.00    -0.277 OA
ATOM      2  N   ALA A   2     -35.915  21.712   4.074  0.00  0.00    -0.300 N 
ATOM      3  C   TYR A   1     -35.593  21.570   2.732  0.00  0.00    +0.202 C 
ATOM      4  H   ALA A   2     -36.511  21.050   4.493  0.00  0.00    +0.150 HD
ENDROOT
BRANCH   2   5
ATOM      5  CA  ALA A   2     -35.402  22.797   4.875  0.00  0.00    +0.149 C 
ATOM      6  CB  ALA A   2     -35.325  22.412   6.344  0.00  0.00    +0.031 C 
BRANCH   5   9
ATOM      7  O   ALA A   2     -36.181  25.054   5.294  0.00  0.00    -0.273 OA
ATOM      8  N   GLY A   3     -37.321  23.743   3.756  0.00  0.00    -0.294 N 
ATOM      9  C   ALA A   2     -36.314  24.000   4.675  0.00  0.00    +0.241 C 
ATOM     10  H   GLY A   3     -37.342  22.865   3.311  0.00  0.00    +0.150 HD
BRANCH   8  11
ATOM     11  CA  GLY A   3     -38.340  24.713   3.423  0.00  0.00    +0.200 C 
BRANCH  11  13
ATOM     12  OXT GLY A   3     -39.563  22.925   2.374  0.00  0.00    -0.248 OA
ATOM     13  C   GLY A   3     -39.504  24.109   2.679  0.00  0.00    +0.334 C 
BRANCH  13  14
ATOM     14  O   GLY A   3     -40.476  25.002   2.380  0.00  0.00    -0.479 OA
ATOM     15  H   GLY A   3     -40.460  25.857   2.760  0.00  0.00    +0.295 HD
ENDBRANCH  13  14
ENDBRANCH  11  13
ENDBRANCH   8  11
ENDBRANCH   5   9
ENDBRANCH   2   5
BRANCH   3  16
ATOM     16  CA  TYR A   1     -36.231  20.333   2.104  0.00  0.00    +0.017 C 
BRANCH  16  17
ATOM     17  N   TYR A   1     -37.672  20.580   2.059  0.00  0.00    +0.388 N 
ATOM     18  H1  TYR A   1     -37.897  21.127   1.227  0.00  0.00    -0.089 HD
ATOM     19  H2  TYR A   1     -37.955  21.096   2.891  0.00  0.00    -0.089 HD
ATOM     20  H3  TYR A   1     -38.169  19.690   2.024  0.00  0.00    -0.089 HD
ENDBRANCH  16  17
BRANCH  16  21
ATOM     21  CB  TYR A   1     -35.693  20.107   0.683  0.00  0.00    +0.013 C 
BRANCH  21  22
ATOM     22  CG  TYR A   1     -34.656  19.011   0.617  0.00  0.00    -0.024 C 
ATOM     23  CD1 TYR A   1     -33.501  19.124   1.373  0.00  0.00    -0.001 C 
ATOM     24  CD2 TYR A   1     -34.881  17.914  -0.199  0.00  0.00    -0.001 C 
ATOM     25  CE1 TYR A   1     -32.543  18.112   1.310  0.00  0.00    +0.036 C 
ATOM     26  CE2 TYR A   1     -33.923  16.902  -0.262  0.00  0.00    +0.036 C 
ATOM     27  CZ  TYR A   1     -32.754  17.001   0.493  0.00  0.00    +0.134 C 
BRANCH  27  28
ATOM     28  OH  TYR A   1     -31.819  16.013   0.435  0.00  0.00    -0.506 OA
ATOM     29  HH  TYR A   1     -31.046  16.130  -0.082  0.00  0.00    +0.292 HD
ENDBRANCH  27  28
ENDBRANCH  21  22
ENDBRANCH  16  21
ENDBRANCH   3  16
TORSDOF 10
ENDMDL
MODEL 8
REMARK VINA RESULT:      -5.8      3.952      6.034
REMARK  Name = 5486959
REMARK  10 active torsions:
REMARK  status: ('A' for Active; 'I' for Inactive)
REMARK    1  A    between atoms: N_2  and  CA_5
REMARK    2  A    between atoms: C_3  and  CA_16
REMARK    3  A    between atoms: CA_5  and  C_9
REMARK    4  A    between atoms: N_8  and  CA_11
REMARK    5  A    between atoms: CA_11  and  C_13
REMARK    6  A    between atoms: C_13  and  O_14
REMARK    7  A    between atoms: CA_16  and  N_17
REMARK    8  A    between atoms: CA_16  and  CB_21
REMARK    9  A    between atoms: CB_21  and  CG_22
REMARK   10  A    between atoms: CZ_27  and  OH_28
REMARK                            x       y       z     vdW  Elec       q    Type
REMARK                         _______ _______ _______ _____ _____    ______ ____
ROOT
ATOM      1  O   TYR A   1     -35.471  22.375   4.320  0.00  0.00    -0.277 OA
ATOM      2  N   ALA A   2     -37.121  22.545   2.699  0.00  0.00    -0.300 N 
ATOM      3  C   TYR A   1     -36.020  21.955   3.302  0.00  0.00    +0.202 C 
ATOM      4  H   ALA A   2     -37.493  22.136   1.884  0.00  0.00    +0.150 HD
ENDROOT
BRANCH   2   5
ATOM      5  CA  ALA A   2     -37.738  23.738   3.227  0.00  0.00    +0.149 C 
ATOM      6  CB  ALA A   2     -39.046  24.044   2.516  0.00  0.00    +0.031 C 
BRANCH   5   9
ATOM      7  O   ALA A   2     -36.357  25.288   1.977  0.00  0.00    -0.273 OA
ATOM      8  N   GLY A   3     -36.327  25.381   4.295  0.00  0.00    -0.294 N 
ATOM      9  C   ALA A   2     -36.750  24.887   3.070  0.00  0.00    +0.241 C 
ATOM     10  H   GLY A   3     -36.703  24.991   5.118  0.00  0.00    +0.150 HD
BRANCH   8  11
ATOM     11  CA  GLY A   3     -35.357  26.446   4.414  0.00  0.00    +0.200 C 
BRANCH  11  13
ATOM     12  OXT GLY A   3     -33.595  26.688   6.036  0.00  0.00    -0.248 OA
ATOM     13  C   GLY A   3     -34.108  26.023   5.144  0.00  0.00    +0.334 C 
BRANCH  13  14
ATOM     14  O   GLY A   3     -33.606  24.841   4.717  0.00  0.00    -0.479 OA
ATOM     15  H   GLY A   3     -32.740  24.584   4.965  0.00  0.00    +0.295 HD
ENDBRANCH  13  14
ENDBRANCH  11  13
ENDBRANCH   8  11
ENDBRANCH   5   9
ENDBRANCH   2   5
BRANCH   3  16
ATOM     16  CA  TYR A   1     -35.563  20.691   2.580  0.00  0.00    +0.017 C 
BRANCH  16  17
ATOM     17  N   TYR A   1     -36.762  19.891   2.331  0.00  0.00    +0.388 N 
ATOM     18  H1  TYR A   1     -36.856  19.721   1.329  0.00  0.00    -0.089 HD
ATOM     19  H2  TYR A   1     -37.583  20.395   2.668  0.00  0.00    -0.089 HD
ATOM     20  H3  TYR A   1     -36.685  19.000   2.821  0.00  0.00    -0.089 HD
ENDBRANCH  16  17
BRANCH  16  21
ATOM     21  CB  TYR A   1     -34.882  21.042   1.248  0.00  0.00    +0.013 C 
BRANCH  21  22
ATOM     22  CG  TYR A   1     -33.640  20.222   0.990  0.00  0.00    -0.024 C 
ATOM     23  CD1 TYR A   1     -33.531  18.962   1.556  0.00  0.00    -0.001 C 
ATOM     24  CD2 TYR A   1     -32.636  20.745   0.193  0.00  0.00    -0.001 C 
ATOM     25  CE1 TYR A   1     -32.383  18.206   1.319  0.00  0.00    +0.036 C 
ATOM     26  CE2 TYR A   1     -31.488  19.989  -0.044  0.00  0.00    +0.036 C 
ATOM     27  CZ  TYR A   1     -31.362  18.719   0.519  0.00  0.00    +0.134 C 
BRANCH  27  28
ATOM     28  OH  TYR A   1     -30.243  17.978   0.287  0.00  0.00    -0.506 OA
ATOM     29  HH  TYR A   1     -30.287  17.224  -0.268  0.00  0.00    +0.292 HD
ENDBRANCH  27  28
ENDBRANCH  21  22
ENDBRANCH  16  21
ENDBRANCH   3  16
TORSDOF 10
ENDMDL
MODEL 9
REMARK VINA RESULT:      -5.7      2.571      4.348
REMARK  Name = 5486959
REMARK  10 active torsions:
REMARK  status: ('A' for Active; 'I' for Inactive)
REMARK    1  A    between atoms: N_2  and  CA_5
REMARK    2  A    between atoms: C_3  and  CA_16
REMARK    3  A    between atoms: CA_5  and  C_9
REMARK    4  A    between atoms: N_8  and  CA_11
REMARK    5  A    between atoms: CA_11  and  C_13
REMARK    6  A    between atoms: C_13  and  O_14
REMARK    7  A    between atoms: CA_16  and  N_17
REMARK    8  A    between atoms: CA_16  and  CB_21
REMARK    9  A    between atoms: CB_21  and  CG_22
REMARK   10  A    between atoms: CZ_27  and  OH_28
REMARK                            x       y       z     vdW  Elec       q    Type
REMARK                         _______ _______ _______ _____ _____    ______ ____
ROOT
ATOM      1  O   TYR A   1     -32.175  26.814   3.486  0.00  0.00    -0.277 OA
ATOM      2  N   ALA A   2     -33.034  28.384   4.960  0.00  0.00    -0.300 N 
ATOM      3  C   TYR A   1     -33.111  27.266   4.143  0.00  0.00    +0.202 C 
ATOM      4  H   ALA A   2     -33.839  28.673   5.450  0.00  0.00    +0.150 HD
ENDROOT
BRANCH   2   5
ATOM      5  CA  ALA A   2     -31.813  29.139   5.116  0.00  0.00    +0.149 C 
ATOM      6  CB  ALA A   2     -31.439  29.288   6.582  0.00  0.00    +0.031 C 
BRANCH   5   9
ATOM      7  O   ALA A   2     -31.300  31.470   4.700  0.00  0.00    -0.273 OA
ATOM      8  N   GLY A   3     -33.117  30.515   3.620  0.00  0.00    -0.294 N 
ATOM      9  C   ALA A   2     -32.016  30.500   4.464  0.00  0.00    +0.241 C 
ATOM     10  H   GLY A   3     -33.628  29.682   3.495  0.00  0.00    +0.150 HD
BRANCH   8  11
ATOM     11  CA  GLY A   3     -33.544  31.702   2.915  0.00  0.00    +0.200 C 
BRANCH  11  13
ATOM     12  OXT GLY A   3     -35.325  32.213   1.379  0.00  0.00    -0.248 OA
ATOM     13  C   GLY A   3     -34.938  31.582   2.355  0.00  0.00    +0.334 C 
BRANCH  13  14
ATOM     14  O   GLY A   3     -35.722  30.713   3.035  0.00  0.00    -0.479 OA
ATOM     15  H   GLY A   3     -35.358  30.198   3.727  0.00  0.00    +0.295 HD
ENDBRANCH  13  14
ENDBRANCH  11  13
ENDBRANCH   8  11
ENDBRANCH   5   9
ENDBRANCH   2   5
BRANCH   3  16
ATOM     16  CA  TYR A   1     -34.494  26.621   4.161  0.00  0.00    +0.017 C 
BRANCH  16  17
ATOM     17  N   TYR A   1     -35.442  27.646   3.723  0.00  0.00    +0.388 N 
ATOM     18  H1  TYR A   1     -36.180  27.747   4.421  0.00  0.00    -0.089 HD
ATOM     19  H2  TYR A   1     -35.854  27.369   2.832  0.00  0.00    -0.089 HD
ATOM     20  H3  TYR A   1     -34.955  28.535   3.612  0.00  0.00    -0.089 HD
ENDBRANCH  16  17
BRANCH  16  21
ATOM     21  CB  TYR A   1     -34.545  25.418   3.207  0.00  0.00    +0.013 C 
BRANCH  21  22
ATOM     22  CG  TYR A   1     -34.827  24.117   3.920  0.00  0.00    -0.024 C 
ATOM     23  CD1 TYR A   1     -34.708  24.060   5.299  0.00  0.00    -0.001 C 
ATOM     24  CD2 TYR A   1     -35.198  23.006   3.181  0.00  0.00    -0.001 C 
ATOM     25  CE1 TYR A   1     -34.967  22.857   5.957  0.00  0.00    +0.036 C 
ATOM     26  CE2 TYR A   1     -35.457  21.803   3.839  0.00  0.00    +0.036 C 
ATOM     27  CZ  TYR A   1     -35.342  21.729   5.227  0.00  0.00    +0.134 C 
BRANCH  27  28
ATOM     28  OH  TYR A   1     -35.596  20.557   5.871  0.00  0.00    -0.506 OA
ATOM     29  HH  TYR A   1     -36.435  20.408   6.261  0.00  0.00    +0.292 HD
ENDBRANCH  27  28
ENDBRANCH  21  22
ENDBRANCH  16  21
ENDBRANCH   3  16
TORSDOF 10
ENDMDL
