MODEL 1
REMARK VINA RESULT:      -6.3      0.000      0.000
REMARK  Name = 190373
REMARK  7 active torsions:
REMARK  status: ('A' for Active; 'I' for Inactive)
REMARK    1  A    between atoms: C_7  and  O_22
REMARK    2  A    between atoms: C_9  and  C_26
REMARK    3  A    between atoms: C_13  and  O_18
REMARK    4  A    between atoms: C_17  and  C_21
REMARK    5  A    between atoms: O_22  and  C_24
REMARK    6  A    between atoms: C_26  and  O_27
REMARK    7  A    between atoms: O_27  and  C_30
REMARK                            x       y       z     vdW  Elec       q    Type
REMARK                         _______ _______ _______ _____ _____    ______ ____
ROOT
ATOM      1  O   UNL     1     -34.567  26.151   1.772  0.00  0.00    -0.220 OA
ATOM      2  O   UNL     1     -39.874  26.799   2.161  0.00  0.00    -0.275 OA
ATOM      3  N   UNL     1     -37.807  25.713   2.199  0.00  0.00    -0.272 N 
ATOM      4  N   UNL     1     -35.128  25.010   1.169  0.00  0.00    -0.234 N 
ATOM      5  C   UNL     1     -36.860  26.787   2.326  0.00  0.00    +0.162 C 
ATOM      6  C   UNL     1     -37.227  26.227   0.996  0.00  0.00    +0.124 C 
ATOM      7  C   UNL     1     -35.451  26.535   2.850  0.00  0.00    +0.279 C 
ATOM      8  C   UNL     1     -36.217  25.388   0.262  0.00  0.00    +0.154 C 
ATOM      9  C   UNL     1     -35.352  25.440   3.960  0.00  0.00    +0.138 C 
ATOM     10  C   UNL     1     -35.469  24.040   3.366  0.00  0.00    +0.039 C 
ATOM     11  C   UNL     1     -35.351  23.870   1.970  0.00  0.00    +0.082 C 
ATOM     12  C   UNL     1     -39.149  25.867   2.504  0.00  0.00    +0.226 C 
ATOM     13  C   UNL     1     -35.733  22.930   4.180  0.00  0.00    +0.137 C 
ATOM     14  C   UNL     1     -35.503  22.593   1.415  0.00  0.00    +0.022 C 
ATOM     15  C   UNL     1     -39.659  24.738   3.357  0.00  0.00    +0.095 C 
ATOM     16  C   UNL     1     -35.873  21.663   3.615  0.00  0.00    +0.040 C 
ATOM     17  C   UNL     1     -35.758  21.495   2.236  0.00  0.00    +0.047 C 
ENDROOT
BRANCH  13  18
ATOM     18  O   UNL     1     -35.890  23.062   5.527  0.00  0.00    -0.472 OA
ATOM     19  C   UNL     1     -35.184  22.139   6.353  0.00  0.00    +0.252 C 
ENDBRANCH  13  18
BRANCH  17  21
ATOM     20  O   UNL     1     -34.967  19.524   1.194  0.00  0.00    -0.283 OA
ATOM     21  C   UNL     1     -35.913  20.173   1.651  0.00  0.00    +0.234 C 
ENDBRANCH  17  21
BRANCH   7  22
ATOM     22  O   UNL     1     -34.969  27.768   3.403  0.00  0.00    -0.426 OA
BRANCH  22  24
ATOM     23  O   UNL     1     -33.034  28.417   2.321  0.00  0.00    -0.250 OA
ATOM     24  C   UNL     1     -34.228  28.536   2.557  0.00  0.00    +0.319 C 
ATOM     25  C   UNL     1     -35.107  29.579   1.933  0.00  0.00    +0.121 C 
ENDBRANCH  22  24
ENDBRANCH   7  22
BRANCH   9  26
ATOM     26  C   UNL     1     -34.029  25.530   4.741  0.00  0.00    +0.221 C 
BRANCH  26  27
ATOM     27  O   UNL     1     -34.268  26.266   5.920  0.00  0.00    -0.434 OA
BRANCH  27  30
ATOM     28  O   UNL     1     -32.844  27.020   7.563  0.00  0.00    -0.227 OA
ATOM     29  N   UNL     1     -32.651  27.766   5.397  0.00  0.00    -0.295 N 
ATOM     30  C   UNL     1     -33.222  27.017   6.397  0.00  0.00    +0.398 C 
ATOM     31  H   UNL     1     -33.006  27.714   4.480  0.00  0.00    +0.148 HD
ATOM     32  H   UNL     1     -31.887  28.354   5.597  0.00  0.00    +0.148 HD
ENDBRANCH  27  30
ENDBRANCH  26  27
ENDBRANCH   9  26
TORSDOF 7
ENDMDL
MODEL 2
REMARK VINA RESULT:      -6.1      1.662      5.406
REMARK  Name = 190373
REMARK  7 active torsions:
REMARK  status: ('A' for Active; 'I' for Inactive)
REMARK    1  A    between atoms: C_7  and  O_22
REMARK    2  A    between atoms: C_9  and  C_26
REMARK    3  A    between atoms: C_13  and  O_18
REMARK    4  A    between atoms: C_17  and  C_21
REMARK    5  A    between atoms: O_22  and  C_24
REMARK    6  A    between atoms: C_26  and  O_27
REMARK    7  A    between atoms: O_27  and  C_30
REMARK                            x       y       z     vdW  Elec       q    Type
REMARK                         _______ _______ _______ _____ _____    ______ ____
ROOT
ATOM      1  O   UNL     1     -36.984  23.253   4.120  0.00  0.00    -0.220 OA
ATOM      2  O   UNL     1     -34.515  21.419  -0.269  0.00  0.00    -0.275 OA
ATOM      3  N   UNL     1     -35.749  22.862   1.088  0.00  0.00    -0.272 N 
ATOM      4  N   UNL     1     -37.844  23.562   3.051  0.00  0.00    -0.234 N 
ATOM      5  C   UNL     1     -35.432  22.431   2.422  0.00  0.00    +0.162 C 
ATOM      6  C   UNL     1     -36.640  21.930   1.709  0.00  0.00    +0.124 C 
ATOM      7  C   UNL     1     -35.633  23.356   3.617  0.00  0.00    +0.279 C 
ATOM      8  C   UNL     1     -37.993  22.408   2.157  0.00  0.00    +0.154 C 
ATOM      9  C   UNL     1     -35.345  24.865   3.331  0.00  0.00    +0.138 C 
ATOM     10  C   UNL     1     -36.482  25.504   2.542  0.00  0.00    +0.039 C 
ATOM     11  C   UNL     1     -37.712  24.821   2.427  0.00  0.00    +0.082 C 
ATOM     12  C   UNL     1     -34.967  22.531  -0.005  0.00  0.00    +0.226 C 
ATOM     13  C   UNL     1     -36.311  26.736   1.897  0.00  0.00    +0.137 C 
ATOM     14  C   UNL     1     -38.745  25.382   1.665  0.00  0.00    +0.022 C 
ATOM     15  C   UNL     1     -34.688  23.727  -0.873  0.00  0.00    +0.095 C 
ATOM     16  C   UNL     1     -37.350  27.288   1.149  0.00  0.00    +0.040 C 
ATOM     17  C   UNL     1     -38.564  26.613   1.034  0.00  0.00    +0.047 C 
ENDROOT
BRANCH  13  18
ATOM     18  O   UNL     1     -35.125  27.406   1.955  0.00  0.00    -0.472 OA
ATOM     19  C   UNL     1     -34.315  27.387   0.782  0.00  0.00    +0.252 C 
ENDBRANCH  13  18
BRANCH  17  21
ATOM     20  O   UNL     1     -40.134  28.295   0.486  0.00  0.00    -0.283 OA
ATOM     21  C   UNL     1     -39.643  27.188   0.247  0.00  0.00    +0.234 C 
ENDBRANCH  17  21
BRANCH   7  22
ATOM     22  O   UNL     1     -34.738  22.925   4.652  0.00  0.00    -0.426 OA
BRANCH  22  24
ATOM     23  O   UNL     1     -35.123  20.655   4.837  0.00  0.00    -0.250 OA
ATOM     24  C   UNL     1     -35.105  21.786   5.302  0.00  0.00    +0.319 C 
ATOM     25  C   UNL     1     -35.494  22.121   6.711  0.00  0.00    +0.121 C 
ENDBRANCH  22  24
ENDBRANCH   7  22
BRANCH   9  26
ATOM     26  C   UNL     1     -35.140  25.667   4.628  0.00  0.00    +0.221 C 
BRANCH  26  27
ATOM     27  O   UNL     1     -33.752  25.833   4.823  0.00  0.00    -0.434 OA
BRANCH  27  30
ATOM     28  O   UNL     1     -32.923  27.252   6.434  0.00  0.00    -0.227 OA
ATOM     29  N   UNL     1     -33.460  28.027   4.337  0.00  0.00    -0.295 N 
ATOM     30  C   UNL     1     -33.342  27.054   5.299  0.00  0.00    +0.398 C 
ATOM     31  H   UNL     1     -33.804  27.797   3.444  0.00  0.00    +0.148 HD
ATOM     32  H   UNL     1     -33.200  28.955   4.541  0.00  0.00    +0.148 HD
ENDBRANCH  27  30
ENDBRANCH  26  27
ENDBRANCH   9  26
TORSDOF 7
ENDMDL
MODEL 3
REMARK VINA RESULT:      -6.0      2.173      5.445
REMARK  Name = 190373
REMARK  7 active torsions:
REMARK  status: ('A' for Active; 'I' for Inactive)
REMARK    1  A    between atoms: C_7  and  O_22
REMARK    2  A    between atoms: C_9  and  C_26
REMARK    3  A    between atoms: C_13  and  O_18
REMARK    4  A    between atoms: C_17  and  C_21
REMARK    5  A    between atoms: O_22  and  C_24
REMARK    6  A    between atoms: C_26  and  O_27
REMARK    7  A    between atoms: O_27  and  C_30
REMARK                            x       y       z     vdW  Elec       q    Type
REMARK                         _______ _______ _______ _____ _____    ______ ____
ROOT
ATOM      1  O   UNL     1     -37.438  22.486   3.524  0.00  0.00    -0.220 OA
ATOM      2  O   UNL     1     -35.230  22.344  -1.358  0.00  0.00    -0.275 OA
ATOM      3  N   UNL     1     -36.693  22.972   0.349  0.00  0.00    -0.272 N 
ATOM      4  N   UNL     1     -38.519  22.502   2.625  0.00  0.00    -0.234 N 
ATOM      5  C   UNL     1     -36.002  22.587   1.550  0.00  0.00    +0.162 C 
ATOM      6  C   UNL     1     -37.002  21.691   0.905  0.00  0.00    +0.124 C 
ATOM      7  C   UNL     1     -36.356  23.210   2.895  0.00  0.00    +0.279 C 
ATOM      8  C   UNL     1     -38.333  21.493   1.576  0.00  0.00    +0.154 C 
ATOM      9  C   UNL     1     -36.765  24.717   2.830  0.00  0.00    +0.138 C 
ATOM     10  C   UNL     1     -38.182  24.881   2.291  0.00  0.00    +0.039 C 
ATOM     11  C   UNL     1     -39.023  23.751   2.205  0.00  0.00    +0.082 C 
ATOM     12  C   UNL     1     -36.044  23.121  -0.865  0.00  0.00    +0.226 C 
ATOM     13  C   UNL     1     -38.643  26.125   1.841  0.00  0.00    +0.137 C 
ATOM     14  C   UNL     1     -40.309  23.888   1.668  0.00  0.00    +0.022 C 
ATOM     15  C   UNL     1     -36.434  24.402  -1.551  0.00  0.00    +0.095 C 
ATOM     16  C   UNL     1     -39.930  26.249   1.317  0.00  0.00    +0.040 C 
ATOM     17  C   UNL     1     -40.760  25.134   1.230  0.00  0.00    +0.047 C 
ENDROOT
BRANCH  13  18
ATOM     18  O   UNL     1     -37.846  27.230   1.875  0.00  0.00    -0.472 OA
ATOM     19  C   UNL     1     -37.282  27.657   0.636  0.00  0.00    +0.252 C 
ENDBRANCH  13  18
BRANCH  17  21
ATOM     20  O   UNL     1     -42.949  24.375   0.750  0.00  0.00    -0.283 OA
ATOM     21  C   UNL     1     -42.098  25.266   0.676  0.00  0.00    +0.234 C 
ENDBRANCH  17  21
BRANCH   7  22
ATOM     22  O   UNL     1     -35.200  23.104   3.737  0.00  0.00    -0.426 OA
BRANCH  22  24
ATOM     23  O   UNL     1     -35.187  20.855   4.266  0.00  0.00    -0.250 OA
ATOM     24  C   UNL     1     -35.192  22.036   4.583  0.00  0.00    +0.319 C 
ATOM     25  C   UNL     1     -35.187  22.525   6.001  0.00  0.00    +0.121 C 
ENDBRANCH  22  24
ENDBRANCH   7  22
BRANCH   9  26
ATOM     26  C   UNL     1     -36.687  25.394   4.210  0.00  0.00    +0.221 C 
BRANCH  26  27
ATOM     27  O   UNL     1     -35.680  26.380   4.155  0.00  0.00    -0.434 OA
BRANCH  27  30
ATOM     28  O   UNL     1     -34.405  26.250   6.067  0.00  0.00    -0.227 OA
ATOM     29  N   UNL     1     -33.524  25.694   4.017  0.00  0.00    -0.295 N 
ATOM     30  C   UNL     1     -34.527  26.120   4.854  0.00  0.00    +0.398 C 
ATOM     31  H   UNL     1     -33.692  25.612   3.051  0.00  0.00    +0.148 HD
ATOM     32  H   UNL     1     -32.638  25.471   4.384  0.00  0.00    +0.148 HD
ENDBRANCH  27  30
ENDBRANCH  26  27
ENDBRANCH   9  26
TORSDOF 7
ENDMDL
MODEL 4
REMARK VINA RESULT:      -5.8      2.084      3.553
REMARK  Name = 190373
REMARK  7 active torsions:
REMARK  status: ('A' for Active; 'I' for Inactive)
REMARK    1  A    between atoms: C_7  and  O_22
REMARK    2  A    between atoms: C_9  and  C_26
REMARK    3  A    between atoms: C_13  and  O_18
REMARK    4  A    between atoms: C_17  and  C_21
REMARK    5  A    between atoms: O_22  and  C_24
REMARK    6  A    between atoms: C_26  and  O_27
REMARK    7  A    between atoms: O_27  and  C_30
REMARK                            x       y       z     vdW  Elec       q    Type
REMARK                         _______ _______ _______ _____ _____    ______ ____
ROOT
ATOM      1  O   UNL     1     -33.327  25.526   3.711  0.00  0.00    -0.220 OA
ATOM      2  O   UNL     1     -35.935  29.359   1.022  0.00  0.00    -0.275 OA
ATOM      3  N   UNL     1     -35.361  27.213   1.740  0.00  0.00    -0.272 N 
ATOM      4  N   UNL     1     -33.500  25.018   2.411  0.00  0.00    -0.234 N 
ATOM      5  C   UNL     1     -34.643  27.444   2.964  0.00  0.00    +0.162 C 
ATOM      6  C   UNL     1     -33.935  27.291   1.663  0.00  0.00    +0.124 C 
ATOM      7  C   UNL     1     -34.485  26.340   4.003  0.00  0.00    +0.279 C 
ATOM      8  C   UNL     1     -33.152  26.032   1.410  0.00  0.00    +0.154 C 
ATOM      9  C   UNL     1     -35.717  25.387   4.136  0.00  0.00    +0.138 C 
ATOM     10  C   UNL     1     -35.776  24.397   2.977  0.00  0.00    +0.039 C 
ATOM     11  C   UNL     1     -34.649  24.245   2.141  0.00  0.00    +0.082 C 
ATOM     12  C   UNL     1     -36.192  28.167   1.176  0.00  0.00    +0.226 C 
ATOM     13  C   UNL     1     -36.944  23.673   2.706  0.00  0.00    +0.137 C 
ATOM     14  C   UNL     1     -34.715  23.372   1.048  0.00  0.00    +0.022 C 
ATOM     15  C   UNL     1     -37.515  27.581   0.767  0.00  0.00    +0.095 C 
ATOM     16  C   UNL     1     -36.992  22.800   1.619  0.00  0.00    +0.040 C 
ATOM     17  C   UNL     1     -35.880  22.650   0.793  0.00  0.00    +0.047 C 
ENDROOT
BRANCH  13  18
ATOM     18  O   UNL     1     -38.063  23.823   3.469  0.00  0.00    -0.472 OA
ATOM     19  C   UNL     1     -39.233  24.306   2.812  0.00  0.00    +0.252 C 
ENDBRANCH  13  18
BRANCH  17  21
ATOM     20  O   UNL     1     -36.114  22.130  -1.503  0.00  0.00    -0.283 OA
ATOM     21  C   UNL     1     -35.938  21.745  -0.344  0.00  0.00    +0.234 C 
ENDBRANCH  17  21
BRANCH   7  22
ATOM     22  O   UNL     1     -34.277  26.971   5.275  0.00  0.00    -0.426 OA
BRANCH  22  24
ATOM     23  O   UNL     1     -32.118  27.643   4.806  0.00  0.00    -0.250 OA
ATOM     24  C   UNL     1     -32.980  27.252   5.580  0.00  0.00    +0.319 C 
ATOM     25  C   UNL     1     -32.750  27.012   7.042  0.00  0.00    +0.121 C 
ENDBRANCH  22  24
ENDBRANCH   7  22
BRANCH   9  26
ATOM     26  C   UNL     1     -35.689  24.593   5.454  0.00  0.00    +0.221 C 
BRANCH  26  27
ATOM     27  O   UNL     1     -34.905  23.437   5.250  0.00  0.00    -0.434 OA
BRANCH  27  30
ATOM     28  O   UNL     1     -35.965  22.078   6.776  0.00  0.00    -0.227 OA
ATOM     29  N   UNL     1     -35.315  21.271   4.723  0.00  0.00    -0.295 N 
ATOM     30  C   UNL     1     -35.441  22.249   5.680  0.00  0.00    +0.398 C 
ATOM     31  H   UNL     1     -34.883  21.479   3.863  0.00  0.00    +0.148 HD
ATOM     32  H   UNL     1     -35.658  20.365   4.896  0.00  0.00    +0.148 HD
ENDBRANCH  27  30
ENDBRANCH  26  27
ENDBRANCH   9  26
TORSDOF 7
ENDMDL
MODEL 5
REMARK VINA RESULT:      -5.6      2.408      3.538
REMARK  Name = 190373
REMARK  7 active torsions:
REMARK  status: ('A' for Active; 'I' for Inactive)
REMARK    1  A    between atoms: C_7  and  O_22
REMARK    2  A    between atoms: C_9  and  C_26
REMARK    3  A    between atoms: C_13  and  O_18
REMARK    4  A    between atoms: C_17  and  C_21
REMARK    5  A    between atoms: O_22  and  C_24
REMARK    6  A    between atoms: C_26  and  O_27
REMARK    7  A    between atoms: O_27  and  C_30
REMARK                            x       y       z     vdW  Elec       q    Type
REMARK                         _______ _______ _______ _____ _____    ______ ____
ROOT
ATOM      1  O   UNL     1     -34.911  24.694   2.192  0.00  0.00    -0.220 OA
ATOM      2  O   UNL     1     -37.220  28.334  -0.993  0.00  0.00    -0.275 OA
ATOM      3  N   UNL     1     -36.998  26.397   0.291  0.00  0.00    -0.272 N 
ATOM      4  N   UNL     1     -35.639  23.953   1.245  0.00  0.00    -0.234 N 
ATOM      5  C   UNL     1     -35.873  26.679   1.140  0.00  0.00    +0.162 C 
ATOM      6  C   UNL     1     -35.713  25.946  -0.147  0.00  0.00    +0.124 C 
ATOM      7  C   UNL     1     -35.655  25.909   2.438  0.00  0.00    +0.279 C 
ATOM      8  C   UNL     1     -35.408  24.474  -0.107  0.00  0.00    +0.154 C 
ATOM      9  C   UNL     1     -36.966  25.521   3.195  0.00  0.00    +0.138 C 
ATOM     10  C   UNL     1     -37.664  24.345   2.522  0.00  0.00    +0.039 C 
ATOM     11  C   UNL     1     -36.967  23.589   1.554  0.00  0.00    +0.082 C 
ATOM     12  C   UNL     1     -37.702  27.395  -0.364  0.00  0.00    +0.226 C 
ATOM     13  C   UNL     1     -38.998  24.032   2.817  0.00  0.00    +0.137 C 
ATOM     14  C   UNL     1     -37.619  22.537   0.899  0.00  0.00    +0.022 C 
ATOM     15  C   UNL     1     -39.188  27.223  -0.205  0.00  0.00    +0.095 C 
ATOM     16  C   UNL     1     -39.632  22.975   2.163  0.00  0.00    +0.040 C 
ATOM     17  C   UNL     1     -38.944  22.230   1.207  0.00  0.00    +0.047 C 
ENDROOT
BRANCH  13  18
ATOM     18  O   UNL     1     -39.713  24.762   3.717  0.00  0.00    -0.472 OA
ATOM     19  C   UNL     1     -40.604  25.743   3.191  0.00  0.00    +0.252 C 
ENDBRANCH  13  18
BRANCH  17  21
ATOM     20  O   UNL     1     -40.828  20.935   0.599  0.00  0.00    -0.283 OA
ATOM     21  C   UNL     1     -39.612  21.135   0.523  0.00  0.00    +0.234 C 
ENDBRANCH  17  21
BRANCH   7  22
ATOM     22  O   UNL     1     -34.875  26.742   3.307  0.00  0.00    -0.426 OA
BRANCH  22  24
ATOM     23  O   UNL     1     -32.899  25.673   3.849  0.00  0.00    -0.250 OA
ATOM     24  C   UNL     1     -33.529  26.538   3.255  0.00  0.00    +0.319 C 
ATOM     25  C   UNL     1     -32.907  27.550   2.341  0.00  0.00    +0.121 C 
ENDBRANCH  22  24
ENDBRANCH   7  22
BRANCH   9  26
ATOM     26  C   UNL     1     -36.693  25.149   4.664  0.00  0.00    +0.221 C 
BRANCH  26  27
ATOM     27  O   UNL     1     -36.743  23.744   4.774  0.00  0.00    -0.434 OA
BRANCH  27  30
ATOM     28  O   UNL     1     -35.886  22.306   6.354  0.00  0.00    -0.227 OA
ATOM     29  N   UNL     1     -34.500  23.614   5.068  0.00  0.00    -0.295 N 
ATOM     30  C   UNL     1     -35.725  23.147   5.476  0.00  0.00    +0.398 C 
ATOM     31  H   UNL     1     -34.444  24.291   4.355  0.00  0.00    +0.148 HD
ATOM     32  H   UNL     1     -33.677  23.271   5.487  0.00  0.00    +0.148 HD
ENDBRANCH  27  30
ENDBRANCH  26  27
ENDBRANCH   9  26
TORSDOF 7
ENDMDL
MODEL 6
REMARK VINA RESULT:      -5.5      2.393      5.786
REMARK  Name = 190373
REMARK  7 active torsions:
REMARK  status: ('A' for Active; 'I' for Inactive)
REMARK    1  A    between atoms: C_7  and  O_22
REMARK    2  A    between atoms: C_9  and  C_26
REMARK    3  A    between atoms: C_13  and  O_18
REMARK    4  A    between atoms: C_17  and  C_21
REMARK    5  A    between atoms: O_22  and  C_24
REMARK    6  A    between atoms: C_26  and  O_27
REMARK    7  A    between atoms: O_27  and  C_30
REMARK                            x       y       z     vdW  Elec       q    Type
REMARK                         _______ _______ _______ _____ _____    ______ ____
ROOT
ATOM      1  O   UNL     1     -37.877  23.119   2.416  0.00  0.00    -0.220 OA
ATOM      2  O   UNL     1     -38.851  27.946   0.300  0.00  0.00    -0.275 OA
ATOM      3  N   UNL     1     -37.759  26.294   1.537  0.00  0.00    -0.272 N 
ATOM      4  N   UNL     1     -37.591  24.039   3.440  0.00  0.00    -0.234 N 
ATOM      5  C   UNL     1     -38.274  25.066   0.995  0.00  0.00    +0.162 C 
ATOM      6  C   UNL     1     -38.874  25.696   2.204  0.00  0.00    +0.124 C 
ATOM      7  C   UNL     1     -37.520  23.753   1.167  0.00  0.00    +0.279 C 
ATOM      8  C   UNL     1     -38.655  25.044   3.542  0.00  0.00    +0.154 C 
ATOM      9  C   UNL     1     -35.963  23.884   1.127  0.00  0.00    +0.138 C 
ATOM     10  C   UNL     1     -35.424  24.457   2.433  0.00  0.00    +0.039 C 
ATOM     11  C   UNL     1     -36.269  24.517   3.562  0.00  0.00    +0.082 C 
ATOM     12  C   UNL     1     -37.854  27.500   0.862  0.00  0.00    +0.226 C 
ATOM     13  C   UNL     1     -34.120  24.964   2.516  0.00  0.00    +0.137 C 
ATOM     14  C   UNL     1     -35.794  25.085   4.751  0.00  0.00    +0.022 C 
ATOM     15  C   UNL     1     -36.545  28.242   0.864  0.00  0.00    +0.095 C 
ATOM     16  C   UNL     1     -33.657  25.519   3.709  0.00  0.00    +0.040 C 
ATOM     17  C   UNL     1     -34.491  25.579   4.823  0.00  0.00    +0.047 C 
ENDROOT
BRANCH  13  18
ATOM     18  O   UNL     1     -33.289  24.957   1.436  0.00  0.00    -0.472 OA
ATOM     19  C   UNL     1     -32.160  25.827   1.484  0.00  0.00    +0.252 C 
ENDBRANCH  13  18
BRANCH  17  21
ATOM     20  O   UNL     1     -33.233  27.127   6.094  0.00  0.00    -0.283 OA
ATOM     21  C   UNL     1     -34.006  26.165   6.062  0.00  0.00    +0.234 C 
ENDBRANCH  17  21
BRANCH   7  22
ATOM     22  O   UNL     1     -37.915  22.884   0.096  0.00  0.00    -0.426 OA
BRANCH  22  24
ATOM     23  O   UNL     1     -38.977  21.015   0.943  0.00  0.00    -0.250 OA
ATOM     24  C   UNL     1     -38.990  22.090   0.359  0.00  0.00    +0.319 C 
ATOM     25  C   UNL     1     -40.230  22.735  -0.184  0.00  0.00    +0.121 C 
ENDBRANCH  22  24
ENDBRANCH   7  22
BRANCH   9  26
ATOM     26  C   UNL     1     -35.278  22.530   0.870  0.00  0.00    +0.221 C 
BRANCH  26  27
ATOM     27  O   UNL     1     -35.188  21.847   2.101  0.00  0.00    -0.434 OA
BRANCH  27  30
ATOM     28  O   UNL     1     -34.635  19.645   1.721  0.00  0.00    -0.227 OA
ATOM     29  N   UNL     1     -36.721  20.224   2.494  0.00  0.00    -0.295 N 
ATOM     30  C   UNL     1     -35.442  20.498   2.074  0.00  0.00    +0.398 C 
ATOM     31  H   UNL     1     -37.318  20.959   2.764  0.00  0.00    +0.148 HD
ATOM     32  H   UNL     1     -37.041  19.293   2.525  0.00  0.00    +0.148 HD
ENDBRANCH  27  30
ENDBRANCH  26  27
ENDBRANCH   9  26
TORSDOF 7
ENDMDL
MODEL 7
REMARK VINA RESULT:      -5.5      2.012      5.098
REMARK  Name = 190373
REMARK  7 active torsions:
REMARK  status: ('A' for Active; 'I' for Inactive)
REMARK    1  A    between atoms: C_7  and  O_22
REMARK    2  A    between atoms: C_9  and  C_26
REMARK    3  A    between atoms: C_13  and  O_18
REMARK    4  A    between atoms: C_17  and  C_21
REMARK    5  A    between atoms: O_22  and  C_24
REMARK    6  A    between atoms: C_26  and  O_27
REMARK    7  A    between atoms: O_27  and  C_30
REMARK                            x       y       z     vdW  Elec       q    Type
REMARK                         _______ _______ _______ _____ _____    ______ ____
ROOT
ATOM      1  O   UNL     1     -38.113  24.455   3.806  0.00  0.00    -0.220 OA
ATOM      2  O   UNL     1     -35.628  20.131   1.840  0.00  0.00    -0.275 OA
ATOM      3  N   UNL     1     -36.512  22.291   1.902  0.00  0.00    -0.272 N 
ATOM      4  N   UNL     1     -38.569  24.332   2.481  0.00  0.00    -0.234 N 
ATOM      5  C   UNL     1     -36.648  22.565   3.306  0.00  0.00    +0.162 C 
ATOM      6  C   UNL     1     -37.783  22.030   2.504  0.00  0.00    +0.124 C 
ATOM      7  C   UNL     1     -36.742  23.995   3.824  0.00  0.00    +0.279 C 
ATOM      8  C   UNL     1     -38.936  22.942   2.188  0.00  0.00    +0.154 C 
ATOM      9  C   UNL     1     -35.881  25.034   3.034  0.00  0.00    +0.138 C 
ATOM     10  C   UNL     1     -36.529  25.388   1.701  0.00  0.00    +0.039 C 
ATOM     11  C   UNL     1     -37.872  25.019   1.465  0.00  0.00    +0.082 C 
ATOM     12  C   UNL     1     -35.695  21.283   1.417  0.00  0.00    +0.226 C 
ATOM     13  C   UNL     1     -35.801  26.034   0.693  0.00  0.00    +0.137 C 
ATOM     14  C   UNL     1     -38.457  25.301   0.225  0.00  0.00    +0.022 C 
ATOM     15  C   UNL     1     -34.837  21.761   0.278  0.00  0.00    +0.095 C 
ATOM     16  C   UNL     1     -36.399  26.317  -0.535  0.00  0.00    +0.040 C 
ATOM     17  C   UNL     1     -37.724  25.951  -0.768  0.00  0.00    +0.047 C 
ENDROOT
BRANCH  13  18
ATOM     18  O   UNL     1     -34.493  26.371   0.871  0.00  0.00    -0.472 OA
ATOM     19  C   UNL     1     -33.558  25.857  -0.075  0.00  0.00    +0.252 C 
ENDBRANCH  13  18
BRANCH  17  21
ATOM     20  O   UNL     1     -38.789  25.365  -2.797  0.00  0.00    -0.283 OA
ATOM     21  C   UNL     1     -38.341  26.241  -2.052  0.00  0.00    +0.234 C 
ENDBRANCH  17  21
BRANCH   7  22
ATOM     22  O   UNL     1     -36.291  23.993   5.185  0.00  0.00    -0.426 OA
BRANCH  22  24
ATOM     23  O   UNL     1     -34.078  23.356   4.996  0.00  0.00    -0.250 OA
ATOM     24  C   UNL     1     -35.209  23.205   5.438  0.00  0.00    +0.319 C 
ATOM     25  C   UNL     1     -35.607  22.094   6.362  0.00  0.00    +0.121 C 
ENDBRANCH  22  24
ENDBRANCH   7  22
BRANCH   9  26
ATOM     26  C   UNL     1     -35.671  26.332   3.834  0.00  0.00    +0.221 C 
BRANCH  26  27
ATOM     27  O   UNL     1     -34.302  26.667   3.768  0.00  0.00    -0.434 OA
BRANCH  27  30
ATOM     28  O   UNL     1     -32.491  27.189   5.089  0.00  0.00    -0.227 OA
ATOM     29  N   UNL     1     -34.424  26.351   6.009  0.00  0.00    -0.295 N 
ATOM     30  C   UNL     1     -33.638  26.773   4.964  0.00  0.00    +0.398 C 
ATOM     31  H   UNL     1     -35.338  26.028   5.836  0.00  0.00    +0.148 HD
ATOM     32  H   UNL     1     -34.075  26.371   6.929  0.00  0.00    +0.148 HD
ENDBRANCH  27  30
ENDBRANCH  26  27
ENDBRANCH   9  26
TORSDOF 7
ENDMDL
MODEL 8
REMARK VINA RESULT:      -5.4      2.463      5.336
REMARK  Name = 190373
REMARK  7 active torsions:
REMARK  status: ('A' for Active; 'I' for Inactive)
REMARK    1  A    between atoms: C_7  and  O_22
REMARK    2  A    between atoms: C_9  and  C_26
REMARK    3  A    between atoms: C_13  and  O_18
REMARK    4  A    between atoms: C_17  and  C_21
REMARK    5  A    between atoms: O_22  and  C_24
REMARK    6  A    between atoms: C_26  and  O_27
REMARK    7  A    between atoms: O_27  and  C_30
REMARK                            x       y       z     vdW  Elec       q    Type
REMARK                         _______ _______ _______ _____ _____    ______ ____
ROOT
ATOM      1  O   UNL     1     -35.134  23.795   3.109  0.00  0.00    -0.220 OA
ATOM      2  O   UNL     1     -39.741  26.529   2.930  0.00  0.00    -0.275 OA
ATOM      3  N   UNL     1     -37.962  25.213   2.183  0.00  0.00    -0.272 N 
ATOM      4  N   UNL     1     -35.118  24.472   1.877  0.00  0.00    -0.234 N 
ATOM      5  C   UNL     1     -37.385  24.701   3.396  0.00  0.00    +0.162 C 
ATOM      6  C   UNL     1     -36.860  25.933   2.743  0.00  0.00    +0.124 C 
ATOM      7  C   UNL     1     -36.511  23.452   3.384  0.00  0.00    +0.279 C 
ATOM      8  C   UNL     1     -35.526  25.871   2.051  0.00  0.00    +0.154 C 
ATOM      9  C   UNL     1     -36.945  22.361   2.353  0.00  0.00    +0.138 C 
ATOM     10  C   UNL     1     -36.545  22.751   0.935  0.00  0.00    +0.039 C 
ATOM     11  C   UNL     1     -35.632  23.810   0.742  0.00  0.00    +0.082 C 
ATOM     12  C   UNL     1     -39.245  25.735   2.134  0.00  0.00    +0.226 C 
ATOM     13  C   UNL     1     -37.102  22.105  -0.177  0.00  0.00    +0.137 C 
ATOM     14  C   UNL     1     -35.297  24.203  -0.560  0.00  0.00    +0.022 C 
ATOM     15  C   UNL     1     -40.022  25.191   0.967  0.00  0.00    +0.095 C 
ATOM     16  C   UNL     1     -36.752  22.501  -1.468  0.00  0.00    +0.040 C 
ATOM     17  C   UNL     1     -35.852  23.547  -1.659  0.00  0.00    +0.047 C 
ENDROOT
BRANCH  13  18
ATOM     18  O   UNL     1     -38.015  21.104  -0.029  0.00  0.00    -0.472 OA
ATOM     19  C   UNL     1     -39.376  21.425  -0.307  0.00  0.00    +0.252 C 
ENDBRANCH  13  18
BRANCH  17  21
ATOM     20  O   UNL     1     -34.984  25.056  -3.261  0.00  0.00    -0.283 OA
ATOM     21  C   UNL     1     -35.496  23.961  -3.006  0.00  0.00    +0.234 C 
ENDBRANCH  17  21
BRANCH   7  22
ATOM     22  O   UNL     1     -36.573  22.870   4.694  0.00  0.00    -0.426 OA
BRANCH  22  24
ATOM     23  O   UNL     1     -35.194  24.328   5.838  0.00  0.00    -0.250 OA
ATOM     24  C   UNL     1     -35.546  23.199   5.526  0.00  0.00    +0.319 C 
ATOM     25  C   UNL     1     -34.888  21.947   6.023  0.00  0.00    +0.121 C 
ENDBRANCH  22  24
ENDBRANCH   7  22
BRANCH   9  26
ATOM     26  C   UNL     1     -36.326  20.988   2.674  0.00  0.00    +0.221 C 
BRANCH  26  27
ATOM     27  O   UNL     1     -35.026  20.958   2.126  0.00  0.00    -0.434 OA
BRANCH  27  30
ATOM     28  O   UNL     1     -33.478  19.390   1.462  0.00  0.00    -0.227 OA
ATOM     29  N   UNL     1     -35.718  19.100   1.027  0.00  0.00    -0.295 N 
ATOM     30  C   UNL     1     -34.638  19.783   1.533  0.00  0.00    +0.398 C 
ATOM     31  H   UNL     1     -36.623  19.475   1.120  0.00  0.00    +0.148 HD
ATOM     32  H   UNL     1     -35.586  18.237   0.573  0.00  0.00    +0.148 HD
ENDBRANCH  27  30
ENDBRANCH  26  27
ENDBRANCH   9  26
TORSDOF 7
ENDMDL
MODEL 9
REMARK VINA RESULT:      -5.4      2.274      4.596
REMARK  Name = 190373
REMARK  7 active torsions:
REMARK  status: ('A' for Active; 'I' for Inactive)
REMARK    1  A    between atoms: C_7  and  O_22
REMARK    2  A    between atoms: C_9  and  C_26
REMARK    3  A    between atoms: C_13  and  O_18
REMARK    4  A    between atoms: C_17  and  C_21
REMARK    5  A    between atoms: O_22  and  C_24
REMARK    6  A    between atoms: C_26  and  O_27
REMARK    7  A    between atoms: O_27  and  C_30
REMARK                            x       y       z     vdW  Elec       q    Type
REMARK                         _______ _______ _______ _____ _____    ______ ____
ROOT
ATOM      1  O   UNL     1     -35.054  26.702   3.797  0.00  0.00    -0.220 OA
ATOM      2  O   UNL     1     -35.241  21.717   5.757  0.00  0.00    -0.275 OA
ATOM      3  N   UNL     1     -35.477  23.460   4.222  0.00  0.00    -0.272 N 
ATOM      4  N   UNL     1     -36.270  26.166   3.337  0.00  0.00    -0.234 N 
ATOM      5  C   UNL     1     -34.622  24.492   4.744  0.00  0.00    +0.162 C 
ATOM      6  C   UNL     1     -36.078  24.455   5.056  0.00  0.00    +0.124 C 
ATOM      7  C   UNL     1     -34.105  25.612   3.849  0.00  0.00    +0.279 C 
ATOM      8  C   UNL     1     -36.978  25.482   4.426  0.00  0.00    +0.154 C 
ATOM      9  C   UNL     1     -33.792  25.183   2.379  0.00  0.00    +0.138 C 
ATOM     10  C   UNL     1     -35.073  25.016   1.568  0.00  0.00    +0.039 C 
ATOM     11  C   UNL     1     -36.287  25.521   2.083  0.00  0.00    +0.082 C 
ATOM     12  C   UNL     1     -35.361  22.135   4.608  0.00  0.00    +0.226 C 
ATOM     13  C   UNL     1     -35.069  24.334   0.344  0.00  0.00    +0.137 C 
ATOM     14  C   UNL     1     -37.473  25.330   1.363  0.00  0.00    +0.022 C 
ATOM     15  C   UNL     1     -35.375  21.208   3.423  0.00  0.00    +0.095 C 
ATOM     16  C   UNL     1     -36.256  24.159  -0.366  0.00  0.00    +0.040 C 
ATOM     17  C   UNL     1     -37.455  24.656   0.142  0.00  0.00    +0.047 C 
ENDROOT
BRANCH  13  18
ATOM     18  O   UNL     1     -33.923  23.802  -0.165  0.00  0.00    -0.472 OA
ATOM     19  C   UNL     1     -33.785  22.384  -0.101  0.00  0.00    +0.252 C 
ENDBRANCH  13  18
BRANCH  17  21
ATOM     20  O   UNL     1     -39.761  24.169  -0.057  0.00  0.00    -0.283 OA
ATOM     21  C   UNL     1     -38.692  24.464  -0.598  0.00  0.00    +0.234 C 
ENDBRANCH  17  21
BRANCH   7  22
ATOM     22  O   UNL     1     -32.891  26.105   4.431  0.00  0.00    -0.426 OA
BRANCH  22  24
ATOM     23  O   UNL     1     -33.054  28.382   4.787  0.00  0.00    -0.250 OA
ATOM     24  C   UNL     1     -33.024  27.228   5.191  0.00  0.00    +0.319 C 
ATOM     25  C   UNL     1     -33.133  26.841   6.636  0.00  0.00    +0.121 C 
ENDBRANCH  22  24
ENDBRANCH   7  22
BRANCH   9  26
ATOM     26  C   UNL     1     -32.890  26.203   1.662  0.00  0.00    +0.221 C 
BRANCH  26  27
ATOM     27  O   UNL     1     -31.594  25.653   1.575  0.00  0.00    -0.434 OA
BRANCH  27  30
ATOM     28  O   UNL     1     -29.404  26.333   1.383  0.00  0.00    -0.227 OA
ATOM     29  N   UNL     1     -30.944  27.609   2.516  0.00  0.00    -0.295 N 
ATOM     30  C   UNL     1     -30.547  26.514   1.788  0.00  0.00    +0.398 C 
ATOM     31  H   UNL     1     -31.880  27.691   2.810  0.00  0.00    +0.148 HD
ATOM     32  H   UNL     1     -30.293  28.312   2.744  0.00  0.00    +0.148 HD
ENDBRANCH  27  30
ENDBRANCH  26  27
ENDBRANCH   9  26
TORSDOF 7
ENDMDL
