MODEL 1
REMARK VINA RESULT:      -7.2      0.000      0.000
REMARK  Name = 195822
REMARK  4 active torsions:
REMARK  status: ('A' for Active; 'I' for Inactive)
REMARK    1  A    between atoms: N_3  and  C_18
REMARK    2  A    between atoms: C_15  and  N_30
REMARK    3  A    between atoms: C_27  and  C_29
REMARK    4  A    between atoms: N_30  and  S_32
REMARK                            x       y       z     vdW  Elec       q    Type
REMARK                         _______ _______ _______ _____ _____    ______ ____
ROOT
ATOM      1  O   UNL     1     -36.083  21.282   2.155  0.00  0.00    -0.482 OA
ATOM      2  O   UNL     1     -38.158  19.638  -0.981  0.00  0.00    -0.291 OA
ATOM      3  N   UNL     1     -36.565  24.785   2.343  0.00  0.00    +0.389 N 
ATOM      4  C   UNL     1     -37.205  21.992   1.594  0.00  0.00    +0.136 C 
ATOM      5  C   UNL     1     -37.877  22.731   2.771  0.00  0.00    +0.018 C 
ATOM      6  C   UNL     1     -36.719  23.055   0.582  0.00  0.00    +0.018 C 
ATOM      7  C   UNL     1     -36.975  23.818   3.367  0.00  0.00    -0.074 C 
ATOM      8  C   UNL     1     -35.847  24.125   1.246  0.00  0.00    -0.074 C 
ATOM      9  C   UNL     1     -38.219  21.018   0.980  0.00  0.00    +0.109 C 
ATOM     10  C   UNL     1     -37.560  20.105  -0.018  0.00  0.00    +0.180 C 
ATOM     11  C   UNL     1     -35.515  20.332   1.355  0.00  0.00    +0.141 C 
ATOM     12  C   UNL     1     -36.162  19.737   0.271  0.00  0.00    +0.070 C 
ATOM     13  C   UNL     1     -34.213  19.945   1.676  0.00  0.00    +0.038 C 
ATOM     14  C   UNL     1     -35.505  18.783  -0.511  0.00  0.00    +0.022 C 
ATOM     15  C   UNL     1     -34.198  18.413  -0.193  0.00  0.00    +0.065 C 
ATOM     16  C   UNL     1     -33.554  18.990   0.901  0.00  0.00    +0.019 C 
ATOM     17  H   UNL     1     -37.408  25.209   1.955  0.00  0.00    -0.080 HD
ENDROOT
BRANCH   3  18
ATOM     18  C   UNL     1     -35.743  25.840   2.934  0.00  0.00    -0.053 C 
ATOM     19  C   UNL     1     -34.587  26.194   1.996  0.00  0.00    -0.016 C 
ATOM     20  C   UNL     1     -35.193  25.391   4.295  0.00  0.00    +0.005 C 
ATOM     21  C   UNL     1     -33.791  27.373   2.556  0.00  0.00    +0.024 C 
ATOM     22  C   UNL     1     -34.143  26.325   4.847  0.00  0.00    -0.028 C 
ATOM     23  C   UNL     1     -33.454  27.230   4.019  0.00  0.00    -0.026 C 
ATOM     24  C   UNL     1     -33.808  26.245   6.208  0.00  0.00    -0.004 C 
ATOM     25  C   UNL     1     -32.470  28.060   4.576  0.00  0.00    +0.006 C 
ATOM     26  C   UNL     1     -32.821  27.069   6.746  0.00  0.00    +0.010 C 
ATOM     27  C   UNL     1     -32.154  27.978   5.931  0.00  0.00    +0.068 C 
BRANCH  27  29
ATOM     28  N   UNL     1     -30.325  29.518   6.930  0.00  0.00    -0.191 NA
ATOM     29  C   UNL     1     -31.146  28.827   6.482  0.00  0.00    +0.100 C 
ENDBRANCH  27  29
ENDBRANCH   3  18
BRANCH  15  30
ATOM     30  N   UNL     1     -33.514  17.451  -0.994  0.00  0.00    -0.219 N 
ATOM     31  H   UNL     1     -33.067  17.714  -1.831  0.00  0.00    +0.173 HD
BRANCH  30  32
ATOM     32  S   UNL     1     -33.490  15.813  -0.457  0.00  0.00    +0.056 S 
ATOM     33  O   UNL     1     -32.318  15.622   0.376  0.00  0.00    -0.154 OA
ATOM     34  O   UNL     1     -34.800  15.401   0.005  0.00  0.00    -0.154 OA
ATOM     35  C   UNL     1     -33.169  14.984  -1.998  0.00  0.00    +0.200 C 
ENDBRANCH  30  32
ENDBRANCH  15  30
TORSDOF 4
ENDMDL
MODEL 2
REMARK VINA RESULT:      -7.0      4.390      6.600
REMARK  Name = 195822
REMARK  4 active torsions:
REMARK  status: ('A' for Active; 'I' for Inactive)
REMARK    1  A    between atoms: N_3  and  C_18
REMARK    2  A    between atoms: C_15  and  N_30
REMARK    3  A    between atoms: C_27  and  C_29
REMARK    4  A    between atoms: N_30  and  S_32
REMARK                            x       y       z     vdW  Elec       q    Type
REMARK                         _______ _______ _______ _____ _____    ______ ____
ROOT
ATOM      1  O   UNL     1     -34.285  24.902   2.755  0.00  0.00    -0.482 OA
ATOM      2  O   UNL     1     -36.240  22.625   5.555  0.00  0.00    -0.291 OA
ATOM      3  N   UNL     1     -34.016  28.280   3.780  0.00  0.00    +0.389 N 
ATOM      4  C   UNL     1     -34.355  25.358   4.120  0.00  0.00    +0.136 C 
ATOM      5  C   UNL     1     -33.027  26.097   4.394  0.00  0.00    +0.018 C 
ATOM      6  C   UNL     1     -35.507  26.374   4.292  0.00  0.00    +0.018 C 
ATOM      7  C   UNL     1     -32.887  27.372   3.555  0.00  0.00    -0.074 C 
ATOM      8  C   UNL     1     -35.292  27.635   3.448  0.00  0.00    -0.074 C 
ATOM      9  C   UNL     1     -34.469  24.174   5.089  0.00  0.00    +0.109 C 
ATOM     10  C   UNL     1     -35.623  23.281   4.722  0.00  0.00    +0.180 C 
ATOM     11  C   UNL     1     -35.221  23.978   2.384  0.00  0.00    +0.141 C 
ATOM     12  C   UNL     1     -35.925  23.177   3.284  0.00  0.00    +0.070 C 
ATOM     13  C   UNL     1     -35.454  23.844   1.014  0.00  0.00    +0.038 C 
ATOM     14  C   UNL     1     -36.880  22.265   2.825  0.00  0.00    +0.022 C 
ATOM     15  C   UNL     1     -37.118  22.148   1.455  0.00  0.00    +0.065 C 
ATOM     16  C   UNL     1     -36.404  22.933   0.551  0.00  0.00    +0.019 C 
ATOM     17  H   UNL     1     -34.035  28.519   4.772  0.00  0.00    -0.080 HD
ENDROOT
BRANCH   3  18
ATOM     18  C   UNL     1     -33.847  29.511   3.008  0.00  0.00    -0.053 C 
ATOM     19  C   UNL     1     -32.915  30.472   3.748  0.00  0.00    -0.016 C 
ATOM     20  C   UNL     1     -35.206  30.182   2.765  0.00  0.00    +0.005 C 
ATOM     21  C   UNL     1     -32.644  31.712   2.895  0.00  0.00    +0.024 C 
ATOM     22  C   UNL     1     -35.085  31.573   2.191  0.00  0.00    -0.028 C 
ATOM     23  C   UNL     1     -33.890  32.309   2.290  0.00  0.00    -0.026 C 
ATOM     24  C   UNL     1     -36.211  32.166   1.599  0.00  0.00    -0.004 C 
ATOM     25  C   UNL     1     -33.835  33.607   1.762  0.00  0.00    +0.006 C 
ATOM     26  C   UNL     1     -36.146  33.461   1.088  0.00  0.00    +0.010 C 
ATOM     27  C   UNL     1     -34.957  34.180   1.167  0.00  0.00    +0.068 C 
BRANCH  27  29
ATOM     28  N   UNL     1     -34.830  36.584   0.209  0.00  0.00    -0.191 NA
ATOM     29  C   UNL     1     -34.887  35.507   0.639  0.00  0.00    +0.100 C 
ENDBRANCH  27  29
ENDBRANCH   3  18
BRANCH  15  30
ATOM     30  N   UNL     1     -38.102  21.231   0.978  0.00  0.00    -0.219 N 
ATOM     31  H   UNL     1     -37.845  20.343   0.638  0.00  0.00    +0.173 HD
BRANCH  30  32
ATOM     32  S   UNL     1     -39.755  21.719   1.014  0.00  0.00    +0.056 S 
ATOM     33  O   UNL     1     -40.418  21.011   2.093  0.00  0.00    -0.154 OA
ATOM     34  O   UNL     1     -39.872  23.158   0.893  0.00  0.00    -0.154 OA
ATOM     35  C   UNL     1     -40.328  20.994  -0.506  0.00  0.00    +0.200 C 
ENDBRANCH  30  32
ENDBRANCH  15  30
TORSDOF 4
ENDMDL
MODEL 3
REMARK VINA RESULT:      -6.9      4.302      6.028
REMARK  Name = 195822
REMARK  4 active torsions:
REMARK  status: ('A' for Active; 'I' for Inactive)
REMARK    1  A    between atoms: N_3  and  C_18
REMARK    2  A    between atoms: C_15  and  N_30
REMARK    3  A    between atoms: C_27  and  C_29
REMARK    4  A    between atoms: N_30  and  S_32
REMARK                            x       y       z     vdW  Elec       q    Type
REMARK                         _______ _______ _______ _____ _____    ______ ____
ROOT
ATOM      1  O   UNL     1     -33.768  25.195   3.045  0.00  0.00    -0.482 OA
ATOM      2  O   UNL     1     -36.312  22.841   5.243  0.00  0.00    -0.291 OA
ATOM      3  N   UNL     1     -34.207  28.629   3.784  0.00  0.00    +0.389 N 
ATOM      4  C   UNL     1     -34.342  25.710   4.262  0.00  0.00    +0.136 C 
ATOM      5  C   UNL     1     -33.267  26.625   4.889  0.00  0.00    +0.018 C 
ATOM      6  C   UNL     1     -35.581  26.579   3.950  0.00  0.00    +0.018 C 
ATOM      7  C   UNL     1     -32.982  27.861   4.028  0.00  0.00    -0.074 C 
ATOM      8  C   UNL     1     -35.223  27.811   3.111  0.00  0.00    -0.074 C 
ATOM      9  C   UNL     1     -34.655  24.574   5.245  0.00  0.00    +0.109 C 
ATOM     10  C   UNL     1     -35.520  23.524   4.603  0.00  0.00    +0.180 C 
ATOM     11  C   UNL     1     -34.425  24.141   2.473  0.00  0.00    +0.141 C 
ATOM     12  C   UNL     1     -35.306  23.306   3.162  0.00  0.00    +0.070 C 
ATOM     13  C   UNL     1     -34.166  23.906   1.122  0.00  0.00    +0.038 C 
ATOM     14  C   UNL     1     -35.952  22.258   2.500  0.00  0.00    +0.022 C 
ATOM     15  C   UNL     1     -35.700  22.038   1.146  0.00  0.00    +0.065 C 
ATOM     16  C   UNL     1     -34.805  22.858   0.458  0.00  0.00    +0.019 C 
ATOM     17  H   UNL     1     -34.584  28.917   4.688  0.00  0.00    -0.080 HD
ENDROOT
BRANCH   3  18
ATOM     18  C   UNL     1     -33.912  29.829   3.000  0.00  0.00    -0.053 C 
ATOM     19  C   UNL     1     -32.917  30.716   3.751  0.00  0.00    -0.016 C 
ATOM     20  C   UNL     1     -35.201  30.612   2.716  0.00  0.00    +0.005 C 
ATOM     21  C   UNL     1     -32.518  31.914   2.888  0.00  0.00    +0.024 C 
ATOM     22  C   UNL     1     -34.945  31.979   2.127  0.00  0.00    -0.028 C 
ATOM     23  C   UNL     1     -33.692  32.608   2.245  0.00  0.00    -0.026 C 
ATOM     24  C   UNL     1     -36.001  32.659   1.500  0.00  0.00    -0.004 C 
ATOM     25  C   UNL     1     -33.511  33.889   1.702  0.00  0.00    +0.006 C 
ATOM     26  C   UNL     1     -35.810  33.936   0.974  0.00  0.00    +0.010 C 
ATOM     27  C   UNL     1     -34.565  34.549   1.073  0.00  0.00    +0.068 C 
BRANCH  27  29
ATOM     28  N   UNL     1     -34.206  36.919   0.087  0.00  0.00    -0.191 NA
ATOM     29  C   UNL     1     -34.367  35.856   0.529  0.00  0.00    +0.100 C 
ENDBRANCH  27  29
ENDBRANCH   3  18
BRANCH  15  30
ATOM     30  N   UNL     1     -36.366  20.980   0.458  0.00  0.00    -0.219 N 
ATOM     31  H   UNL     1     -37.319  21.050   0.222  0.00  0.00    +0.173 HD
BRANCH  30  32
ATOM     32  S   UNL     1     -35.456  19.574   0.050  0.00  0.00    +0.056 S 
ATOM     33  O   UNL     1     -34.968  19.723  -1.308  0.00  0.00    -0.154 OA
ATOM     34  O   UNL     1     -34.553  19.213   1.124  0.00  0.00    -0.154 OA
ATOM     35  C   UNL     1     -36.758  18.363  -0.000  0.00  0.00    +0.200 C 
ENDBRANCH  30  32
ENDBRANCH  15  30
TORSDOF 4
ENDMDL
MODEL 4
REMARK VINA RESULT:      -6.9      2.295      4.012
REMARK  Name = 195822
REMARK  4 active torsions:
REMARK  status: ('A' for Active; 'I' for Inactive)
REMARK    1  A    between atoms: N_3  and  C_18
REMARK    2  A    between atoms: C_15  and  N_30
REMARK    3  A    between atoms: C_27  and  C_29
REMARK    4  A    between atoms: N_30  and  S_32
REMARK                            x       y       z     vdW  Elec       q    Type
REMARK                         _______ _______ _______ _____ _____    ______ ____
ROOT
ATOM      1  O   UNL     1     -36.073  23.680   4.362  0.00  0.00    -0.482 OA
ATOM      2  O   UNL     1     -39.200  23.608   1.705  0.00  0.00    -0.291 OA
ATOM      3  N   UNL     1     -34.446  26.825   4.375  0.00  0.00    +0.389 N 
ATOM      4  C   UNL     1     -36.669  24.919   3.931  0.00  0.00    +0.136 C 
ATOM      5  C   UNL     1     -36.598  25.874   5.143  0.00  0.00    +0.018 C 
ATOM      6  C   UNL     1     -35.843  25.545   2.784  0.00  0.00    +0.018 C 
ATOM      7  C   UNL     1     -35.155  26.234   5.515  0.00  0.00    -0.074 C 
ATOM      8  C   UNL     1     -34.422  25.907   3.231  0.00  0.00    -0.074 C 
ATOM      9  C   UNL     1     -38.141  24.716   3.550  0.00  0.00    +0.109 C 
ATOM     10  C   UNL     1     -38.292  23.621   2.530  0.00  0.00    +0.180 C 
ATOM     11  C   UNL     1     -36.285  22.600   3.552  0.00  0.00    +0.141 C 
ATOM     12  C   UNL     1     -37.325  22.514   2.625  0.00  0.00    +0.070 C 
ATOM     13  C   UNL     1     -35.400  21.530   3.697  0.00  0.00    +0.038 C 
ATOM     14  C   UNL     1     -37.465  21.379   1.821  0.00  0.00    +0.022 C 
ATOM     15  C   UNL     1     -36.567  20.321   1.960  0.00  0.00    +0.065 C 
ATOM     16  C   UNL     1     -35.538  20.394   2.899  0.00  0.00    +0.019 C 
ATOM     17  H   UNL     1     -34.951  27.665   4.092  0.00  0.00    -0.080 HD
ENDROOT
BRANCH   3  18
ATOM     18  C   UNL     1     -33.086  27.204   4.758  0.00  0.00    -0.053 C 
ATOM     19  C   UNL     1     -32.934  27.151   6.279  0.00  0.00    -0.016 C 
ATOM     20  C   UNL     1     -32.761  28.615   4.248  0.00  0.00    +0.005 C 
ATOM     21  C   UNL     1     -31.486  27.437   6.678  0.00  0.00    +0.024 C 
ATOM     22  C   UNL     1     -31.474  29.166   4.813  0.00  0.00    -0.028 C 
ATOM     23  C   UNL     1     -30.896  28.637   5.981  0.00  0.00    -0.026 C 
ATOM     24  C   UNL     1     -30.874  30.271   4.188  0.00  0.00    -0.004 C 
ATOM     25  C   UNL     1     -29.712  29.199   6.479  0.00  0.00    +0.006 C 
ATOM     26  C   UNL     1     -29.703  30.827   4.700  0.00  0.00    +0.010 C 
ATOM     27  C   UNL     1     -29.120  30.290   5.843  0.00  0.00    +0.068 C 
BRANCH  27  29
ATOM     28  N   UNL     1     -26.938  31.316   6.791  0.00  0.00    -0.191 NA
ATOM     29  C   UNL     1     -27.916  30.856   6.366  0.00  0.00    +0.100 C 
ENDBRANCH  27  29
ENDBRANCH   3  18
BRANCH  15  30
ATOM     30  N   UNL     1     -36.693  19.165   1.132  0.00  0.00    -0.219 N 
ATOM     31  H   UNL     1     -37.422  18.518   1.273  0.00  0.00    +0.173 HD
BRANCH  30  32
ATOM     32  S   UNL     1     -35.535  18.932  -0.122  0.00  0.00    +0.056 S 
ATOM     33  O   UNL     1     -35.510  20.123  -0.950  0.00  0.00    -0.154 OA
ATOM     34  O   UNL     1     -34.306  18.373   0.405  0.00  0.00    -0.154 OA
ATOM     35  C   UNL     1     -36.349  17.664  -1.069  0.00  0.00    +0.200 C 
ENDBRANCH  30  32
ENDBRANCH  15  30
TORSDOF 4
ENDMDL
MODEL 5
REMARK VINA RESULT:      -6.9      1.986      2.730
REMARK  Name = 195822
REMARK  4 active torsions:
REMARK  status: ('A' for Active; 'I' for Inactive)
REMARK    1  A    between atoms: N_3  and  C_18
REMARK    2  A    between atoms: C_15  and  N_30
REMARK    3  A    between atoms: C_27  and  C_29
REMARK    4  A    between atoms: N_30  and  S_32
REMARK                            x       y       z     vdW  Elec       q    Type
REMARK                         _______ _______ _______ _____ _____    ______ ____
ROOT
ATOM      1  O   UNL     1     -34.484  19.296   1.412  0.00  0.00    -0.482 OA
ATOM      2  O   UNL     1     -35.693  17.009  -1.774  0.00  0.00    -0.291 OA
ATOM      3  N   UNL     1     -35.844  22.562   1.261  0.00  0.00    +0.389 N 
ATOM      4  C   UNL     1     -35.672  19.662   0.683  0.00  0.00    +0.136 C 
ATOM      5  C   UNL     1     -36.643  20.266   1.720  0.00  0.00    +0.018 C 
ATOM      6  C   UNL     1     -35.350  20.759  -0.358  0.00  0.00    +0.018 C 
ATOM      7  C   UNL     1     -36.119  21.578   2.314  0.00  0.00    -0.074 C 
ATOM      8  C   UNL     1     -34.858  22.052   0.302  0.00  0.00    -0.074 C 
ATOM      9  C   UNL     1     -36.330  18.429   0.050  0.00  0.00    +0.109 C 
ATOM     10  C   UNL     1     -35.349  17.665  -0.797  0.00  0.00    +0.180 C 
ATOM     11  C   UNL     1     -33.605  18.483   0.754  0.00  0.00    +0.141 C 
ATOM     12  C   UNL     1     -33.949  17.685  -0.338  0.00  0.00    +0.070 C 
ATOM     13  C   UNL     1     -32.295  18.462   1.237  0.00  0.00    +0.038 C 
ATOM     14  C   UNL     1     -32.986  16.891  -0.968  0.00  0.00    +0.022 C 
ATOM     15  C   UNL     1     -31.676  16.888  -0.489  0.00  0.00    +0.065 C 
ATOM     16  C   UNL     1     -31.331  17.669   0.614  0.00  0.00    +0.019 C 
ATOM     17  H   UNL     1     -36.714  22.734   0.756  0.00  0.00    -0.080 HD
ENDROOT
BRANCH   3  18
ATOM     18  C   UNL     1     -35.388  23.823   1.845  0.00  0.00    -0.053 C 
ATOM     19  C   UNL     1     -34.059  24.244   1.214  0.00  0.00    -0.016 C 
ATOM     20  C   UNL     1     -35.224  23.681   3.364  0.00  0.00    +0.005 C 
ATOM     21  C   UNL     1     -33.634  25.617   1.737  0.00  0.00    +0.024 C 
ATOM     22  C   UNL     1     -34.525  24.861   3.997  0.00  0.00    -0.028 C 
ATOM     23  C   UNL     1     -33.743  25.748   3.235  0.00  0.00    -0.026 C 
ATOM     24  C   UNL     1     -34.612  25.039   5.387  0.00  0.00    -0.004 C 
ATOM     25  C   UNL     1     -33.094  26.815   3.874  0.00  0.00    +0.006 C 
ATOM     26  C   UNL     1     -33.954  26.098   6.010  0.00  0.00    +0.010 C 
ATOM     27  C   UNL     1     -33.197  26.987   5.253  0.00  0.00    +0.068 C 
BRANCH  27  29
ATOM     28  N   UNL     1     -31.980  28.962   6.408  0.00  0.00    -0.191 NA
ATOM     29  C   UNL     1     -32.526  28.077   5.890  0.00  0.00    +0.100 C 
ENDBRANCH  27  29
ENDBRANCH   3  18
BRANCH  15  30
ATOM     30  N   UNL     1     -30.682  16.092  -1.135  0.00  0.00    -0.219 N 
ATOM     31  H   UNL     1     -30.419  16.269  -2.067  0.00  0.00    +0.173 HD
BRANCH  30  32
ATOM     32  S   UNL     1     -29.954  14.814  -0.238  0.00  0.00    +0.056 S 
ATOM     33  O   UNL     1     -28.780  15.338   0.435  0.00  0.00    -0.154 OA
ATOM     34  O   UNL     1     -30.952  14.062   0.495  0.00  0.00    -0.154 OA
ATOM     35  C   UNL     1     -29.369  13.791  -1.571  0.00  0.00    +0.200 C 
ENDBRANCH  30  32
ENDBRANCH  15  30
TORSDOF 4
ENDMDL
MODEL 6
REMARK VINA RESULT:      -6.8      4.917     10.302
REMARK  Name = 195822
REMARK  4 active torsions:
REMARK  status: ('A' for Active; 'I' for Inactive)
REMARK    1  A    between atoms: N_3  and  C_18
REMARK    2  A    between atoms: C_15  and  N_30
REMARK    3  A    between atoms: C_27  and  C_29
REMARK    4  A    between atoms: N_30  and  S_32
REMARK                            x       y       z     vdW  Elec       q    Type
REMARK                         _______ _______ _______ _____ _____    ______ ____
ROOT
ATOM      1  O   UNL     1     -37.572  22.648   2.987  0.00  0.00    -0.482 OA
ATOM      2  O   UNL     1     -36.695  26.452   4.252  0.00  0.00    -0.291 OA
ATOM      3  N   UNL     1     -34.717  21.022   1.668  0.00  0.00    +0.389 N 
ATOM      4  C   UNL     1     -36.209  23.000   3.291  0.00  0.00    +0.136 C 
ATOM      5  C   UNL     1     -35.560  21.731   3.884  0.00  0.00    +0.018 C 
ATOM      6  C   UNL     1     -35.444  23.364   1.998  0.00  0.00    +0.018 C 
ATOM      7  C   UNL     1     -35.460  20.595   2.859  0.00  0.00    -0.074 C 
ATOM      8  C   UNL     1     -35.356  22.179   1.030  0.00  0.00    -0.074 C 
ATOM      9  C   UNL     1     -36.151  24.118   4.340  0.00  0.00    +0.109 C 
ATOM     10  C   UNL     1     -36.969  25.307   3.913  0.00  0.00    +0.180 C 
ATOM     11  C   UNL     1     -38.415  23.691   2.723  0.00  0.00    +0.141 C 
ATOM     12  C   UNL     1     -38.174  25.007   3.119  0.00  0.00    +0.070 C 
ATOM     13  C   UNL     1     -39.585  23.384   2.025  0.00  0.00    +0.038 C 
ATOM     14  C   UNL     1     -39.079  26.022   2.795  0.00  0.00    +0.022 C 
ATOM     15  C   UNL     1     -40.238  25.711   2.084  0.00  0.00    +0.065 C 
ATOM     16  C   UNL     1     -40.493  24.393   1.703  0.00  0.00    +0.019 C 
ATOM     17  H   UNL     1     -33.782  21.304   1.965  0.00  0.00    -0.080 HD
ENDROOT
BRANCH   3  18
ATOM     18  C   UNL     1     -34.591  19.916   0.719  0.00  0.00    -0.053 C 
ATOM     19  C   UNL     1     -35.933  19.198   0.567  0.00  0.00    -0.016 C 
ATOM     20  C   UNL     1     -33.518  18.926   1.191  0.00  0.00    +0.005 C 
ATOM     21  C   UNL     1     -35.836  18.114  -0.507  0.00  0.00    +0.024 C 
ATOM     22  C   UNL     1     -33.505  17.643   0.395  0.00  0.00    -0.028 C 
ATOM     23  C   UNL     1     -34.614  17.242  -0.371  0.00  0.00    -0.026 C 
ATOM     24  C   UNL     1     -32.381  16.805   0.472  0.00  0.00    -0.004 C 
ATOM     25  C   UNL     1     -34.562  16.029  -1.074  0.00  0.00    +0.006 C 
ATOM     26  C   UNL     1     -32.347  15.597  -0.223  0.00  0.00    +0.010 C 
ATOM     27  C   UNL     1     -33.436  15.211  -0.998  0.00  0.00    +0.068 C 
BRANCH  27  29
ATOM     28  N   UNL     1     -33.372  12.971  -2.299  0.00  0.00    -0.191 NA
ATOM     29  C   UNL     1     -33.401  13.975  -1.716  0.00  0.00    +0.100 C 
ENDBRANCH  27  29
ENDBRANCH   3  18
BRANCH  15  30
ATOM     30  N   UNL     1     -41.160  26.743   1.735  0.00  0.00    -0.219 N 
ATOM     31  H   UNL     1     -41.130  27.172   0.849  0.00  0.00    +0.173 HD
BRANCH  30  32
ATOM     32  S   UNL     1     -42.331  27.218   2.907  0.00  0.00    +0.056 S 
ATOM     33  O   UNL     1     -43.389  26.225   2.926  0.00  0.00    -0.154 OA
ATOM     34  O   UNL     1     -41.691  27.638   4.137  0.00  0.00    -0.154 OA
ATOM     35  C   UNL     1     -42.997  28.665   2.115  0.00  0.00    +0.200 C 
ENDBRANCH  30  32
ENDBRANCH  15  30
TORSDOF 4
ENDMDL
MODEL 7
REMARK VINA RESULT:      -6.8      7.182     10.018
REMARK  Name = 195822
REMARK  4 active torsions:
REMARK  status: ('A' for Active; 'I' for Inactive)
REMARK    1  A    between atoms: N_3  and  C_18
REMARK    2  A    between atoms: C_15  and  N_30
REMARK    3  A    between atoms: C_27  and  C_29
REMARK    4  A    between atoms: N_30  and  S_32
REMARK                            x       y       z     vdW  Elec       q    Type
REMARK                         _______ _______ _______ _____ _____    ______ ____
ROOT
ATOM      1  O   UNL     1     -35.335  28.872   1.504  0.00  0.00    -0.482 OA
ATOM      2  O   UNL     1     -32.925  28.042   4.720  0.00  0.00    -0.291 OA
ATOM      3  N   UNL     1     -35.909  32.350   1.170  0.00  0.00    +0.389 N 
ATOM      4  C   UNL     1     -34.485  29.904   2.041  0.00  0.00    +0.136 C 
ATOM      5  C   UNL     1     -34.040  30.763   0.838  0.00  0.00    +0.018 C 
ATOM      6  C   UNL     1     -35.282  30.813   3.004  0.00  0.00    +0.018 C 
ATOM      7  C   UNL     1     -35.212  31.510   0.190  0.00  0.00    -0.074 C 
ATOM      8  C   UNL     1     -36.420  31.550   2.289  0.00  0.00    -0.074 C 
ATOM      9  C   UNL     1     -33.239  29.300   2.702  0.00  0.00    +0.109 C 
ATOM     10  C   UNL     1     -33.617  28.272   3.734  0.00  0.00    +0.180 C 
ATOM     11  C   UNL     1     -35.611  27.828   2.341  0.00  0.00    +0.141 C 
ATOM     12  C   UNL     1     -34.837  27.495   3.453  0.00  0.00    +0.070 C 
ATOM     13  C   UNL     1     -36.734  27.060   2.028  0.00  0.00    +0.038 C 
ATOM     14  C   UNL     1     -35.196  26.420   4.271  0.00  0.00    +0.022 C 
ATOM     15  C   UNL     1     -36.329  25.667   3.961  0.00  0.00    +0.065 C 
ATOM     16  C   UNL     1     -37.095  25.984   2.839  0.00  0.00    +0.019 C 
ATOM     17  H   UNL     1     -35.236  33.020   1.544  0.00  0.00    -0.080 HD
ENDROOT
BRANCH   3  18
ATOM     18  C   UNL     1     -36.996  33.090   0.529  0.00  0.00    -0.053 C 
ATOM     19  C   UNL     1     -36.488  34.444   0.030  0.00  0.00    -0.016 C 
ATOM     20  C   UNL     1     -38.156  33.296   1.512  0.00  0.00    +0.005 C 
ATOM     21  C   UNL     1     -37.589  35.174  -0.739  0.00  0.00    +0.024 C 
ATOM     22  C   UNL     1     -39.201  34.258   1.001  0.00  0.00    -0.028 C 
ATOM     23  C   UNL     1     -38.920  35.170  -0.032  0.00  0.00    -0.026 C 
ATOM     24  C   UNL     1     -40.465  34.279   1.614  0.00  0.00    -0.004 C 
ATOM     25  C   UNL     1     -39.919  36.059  -0.455  0.00  0.00    +0.006 C 
ATOM     26  C   UNL     1     -41.444  35.175   1.190  0.00  0.00    +0.010 C 
ATOM     27  C   UNL     1     -41.172  36.063   0.154  0.00  0.00    +0.068 C 
BRANCH  27  29
ATOM     28  N   UNL     1     -42.995  37.725  -0.640  0.00  0.00    -0.191 NA
ATOM     29  C   UNL     1     -42.178  36.980  -0.284  0.00  0.00    +0.100 C 
ENDBRANCH  27  29
ENDBRANCH   3  18
BRANCH  15  30
ATOM     30  N   UNL     1     -36.712  24.577   4.799  0.00  0.00    -0.219 N 
ATOM     31  H   UNL     1     -37.586  24.570   5.253  0.00  0.00    +0.173 HD
BRANCH  30  32
ATOM     32  S   UNL     1     -35.605  23.271   4.993  0.00  0.00    +0.056 S 
ATOM     33  O   UNL     1     -34.256  23.804   4.950  0.00  0.00    -0.154 OA
ATOM     34  O   UNL     1     -36.019  22.397   6.072  0.00  0.00    -0.154 OA
ATOM     35  C   UNL     1     -35.867  22.408   3.459  0.00  0.00    +0.200 C 
ENDBRANCH  30  32
ENDBRANCH  15  30
TORSDOF 4
ENDMDL
MODEL 8
REMARK VINA RESULT:      -6.7     10.059     13.469
REMARK  Name = 195822
REMARK  4 active torsions:
REMARK  status: ('A' for Active; 'I' for Inactive)
REMARK    1  A    between atoms: N_3  and  C_18
REMARK    2  A    between atoms: C_15  and  N_30
REMARK    3  A    between atoms: C_27  and  C_29
REMARK    4  A    between atoms: N_30  and  S_32
REMARK                            x       y       z     vdW  Elec       q    Type
REMARK                         _______ _______ _______ _____ _____    ______ ____
ROOT
ATOM      1  O   UNL     1     -36.878  35.851   1.506  0.00  0.00    -0.482 OA
ATOM      2  O   UNL     1     -38.717  35.969  -2.161  0.00  0.00    -0.291 OA
ATOM      3  N   UNL     1     -33.964  33.840   1.438  0.00  0.00    +0.389 N 
ATOM      4  C   UNL     1     -36.123  35.532   0.321  0.00  0.00    +0.136 C 
ATOM      5  C   UNL     1     -34.688  36.043   0.575  0.00  0.00    +0.018 C 
ATOM      6  C   UNL     1     -36.052  34.001   0.121  0.00  0.00    +0.018 C 
ATOM      7  C   UNL     1     -33.991  35.282   1.708  0.00  0.00    -0.074 C 
ATOM      8  C   UNL     1     -35.320  33.304   1.274  0.00  0.00    -0.074 C 
ATOM      9  C   UNL     1     -36.694  36.257  -0.905  0.00  0.00    +0.109 C 
ATOM     10  C   UNL     1     -38.164  35.975  -1.067  0.00  0.00    +0.180 C 
ATOM     11  C   UNL     1     -38.236  35.753   1.395  0.00  0.00    +0.141 C 
ATOM     12  C   UNL     1     -38.923  35.781   0.181  0.00  0.00    +0.070 C 
ATOM     13  C   UNL     1     -38.951  35.633   2.589  0.00  0.00    +0.038 C 
ATOM     14  C   UNL     1     -40.315  35.658   0.151  0.00  0.00    +0.022 C 
ATOM     15  C   UNL     1     -41.021  35.522   1.346  0.00  0.00    +0.065 C 
ATOM     16  C   UNL     1     -40.340  35.513   2.564  0.00  0.00    +0.019 C 
ATOM     17  H   UNL     1     -33.461  33.694   0.562  0.00  0.00    -0.080 HD
ENDROOT
BRANCH   3  18
ATOM     18  C   UNL     1     -33.257  33.132   2.504  0.00  0.00    -0.053 C 
ATOM     19  C   UNL     1     -31.760  33.436   2.435  0.00  0.00    -0.016 C 
ATOM     20  C   UNL     1     -33.490  31.619   2.388  0.00  0.00    +0.005 C 
ATOM     21  C   UNL     1     -31.031  32.790   3.614  0.00  0.00    +0.024 C 
ATOM     22  C   UNL     1     -32.599  30.812   3.300  0.00  0.00    -0.028 C 
ATOM     23  C   UNL     1     -31.419  31.351   3.844  0.00  0.00    -0.026 C 
ATOM     24  C   UNL     1     -32.928  29.472   3.563  0.00  0.00    -0.004 C 
ATOM     25  C   UNL     1     -30.612  30.552   4.667  0.00  0.00    +0.006 C 
ATOM     26  C   UNL     1     -32.111  28.686   4.374  0.00  0.00    +0.010 C 
ATOM     27  C   UNL     1     -30.955  29.227   4.928  0.00  0.00    +0.068 C 
BRANCH  27  29
ATOM     28  N   UNL     1     -29.440  27.771   6.444  0.00  0.00    -0.191 NA
ATOM     29  C   UNL     1     -30.120  28.423   5.765  0.00  0.00    +0.100 C 
ENDBRANCH  27  29
ENDBRANCH   3  18
BRANCH  15  30
ATOM     30  N   UNL     1     -42.441  35.381   1.324  0.00  0.00    -0.219 N 
ATOM     31  H   UNL     1     -43.021  36.130   1.056  0.00  0.00    +0.173 HD
BRANCH  30  32
ATOM     32  S   UNL     1     -43.115  33.861   1.779  0.00  0.00    +0.056 S 
ATOM     33  O   UNL     1     -42.348  32.810   1.138  0.00  0.00    -0.154 OA
ATOM     34  O   UNL     1     -43.379  33.818   3.203  0.00  0.00    -0.154 OA
ATOM     35  C   UNL     1     -44.678  33.947   0.935  0.00  0.00    +0.200 C 
ENDBRANCH  30  32
ENDBRANCH  15  30
TORSDOF 4
ENDMDL
MODEL 9
REMARK VINA RESULT:      -6.6      4.744      9.924
REMARK  Name = 195822
REMARK  4 active torsions:
REMARK  status: ('A' for Active; 'I' for Inactive)
REMARK    1  A    between atoms: N_3  and  C_18
REMARK    2  A    between atoms: C_15  and  N_30
REMARK    3  A    between atoms: C_27  and  C_29
REMARK    4  A    between atoms: N_30  and  S_32
REMARK                            x       y       z     vdW  Elec       q    Type
REMARK                         _______ _______ _______ _____ _____    ______ ____
ROOT
ATOM      1  O   UNL     1     -33.416  26.765   1.226  0.00  0.00    -0.482 OA
ATOM      2  O   UNL     1     -35.132  29.819   3.363  0.00  0.00    -0.291 OA
ATOM      3  N   UNL     1     -35.490  23.897   1.157  0.00  0.00    +0.389 N 
ATOM      4  C   UNL     1     -34.841  26.773   1.437  0.00  0.00    +0.136 C 
ATOM      5  C   UNL     1     -35.467  26.163   0.164  0.00  0.00    +0.018 C 
ATOM      6  C   UNL     1     -35.215  25.865   2.631  0.00  0.00    +0.018 C 
ATOM      7  C   UNL     1     -35.098  24.686  -0.015  0.00  0.00    -0.074 C 
ATOM      8  C   UNL     1     -34.845  24.399   2.376  0.00  0.00    -0.074 C 
ATOM      9  C   UNL     1     -35.363  28.206   1.605  0.00  0.00    +0.109 C 
ATOM     10  C   UNL     1     -34.618  28.932   2.691  0.00  0.00    +0.180 C 
ATOM     11  C   UNL     1     -32.678  27.520   2.094  0.00  0.00    +0.141 C 
ATOM     12  C   UNL     1     -33.200  28.567   2.854  0.00  0.00    +0.070 C 
ATOM     13  C   UNL     1     -31.321  27.206   2.193  0.00  0.00    +0.038 C 
ATOM     14  C   UNL     1     -32.382  29.281   3.734  0.00  0.00    +0.022 C 
ATOM     15  C   UNL     1     -31.030  28.952   3.839  0.00  0.00    +0.065 C 
ATOM     16  C   UNL     1     -30.500  27.918   3.067  0.00  0.00    +0.019 C 
ATOM     17  H   UNL     1     -36.500  23.990   1.276  0.00  0.00    -0.080 HD
ENDROOT
BRANCH   3  18
ATOM     18  C   UNL     1     -35.173  22.483   0.954  0.00  0.00    -0.053 C 
ATOM     19  C   UNL     1     -35.311  21.719   2.271  0.00  0.00    -0.016 C 
ATOM     20  C   UNL     1     -33.748  22.328   0.405  0.00  0.00    +0.005 C 
ATOM     21  C   UNL     1     -35.091  20.223   2.043  0.00  0.00    +0.024 C 
ATOM     22  C   UNL     1     -33.268  20.897   0.403  0.00  0.00    -0.028 C 
ATOM     23  C   UNL     1     -33.875  19.915   1.206  0.00  0.00    -0.026 C 
ATOM     24  C   UNL     1     -32.151  20.555  -0.376  0.00  0.00    -0.004 C 
ATOM     25  C   UNL     1     -33.376  18.605   1.187  0.00  0.00    +0.006 C 
ATOM     26  C   UNL     1     -31.658  19.251  -0.377  0.00  0.00    +0.010 C 
ATOM     27  C   UNL     1     -32.273  18.275   0.401  0.00  0.00    +0.068 C 
BRANCH  27  29
ATOM     28  N   UNL     1     -31.365  15.849   0.393  0.00  0.00    -0.191 NA
ATOM     29  C   UNL     1     -31.772  16.937   0.397  0.00  0.00    +0.100 C 
ENDBRANCH  27  29
ENDBRANCH   3  18
BRANCH  15  30
ATOM     30  N   UNL     1     -30.190  29.665   4.746  0.00  0.00    -0.219 N 
ATOM     31  H   UNL     1     -29.725  30.486   4.466  0.00  0.00    +0.173 HD
BRANCH  30  32
ATOM     32  S   UNL     1     -30.013  29.051   6.346  0.00  0.00    +0.056 S 
ATOM     33  O   UNL     1     -30.108  27.604   6.294  0.00  0.00    -0.154 OA
ATOM     34  O   UNL     1     -28.908  29.694   7.027  0.00  0.00    -0.154 OA
ATOM     35  C   UNL     1     -31.524  29.641   7.077  0.00  0.00    +0.200 C 
ENDBRANCH  30  32
ENDBRANCH  15  30
TORSDOF 4
ENDMDL
