MODEL 1
REMARK VINA RESULT:      -6.0      0.000      0.000
REMARK  Name = 5326889
REMARK  7 active torsions:
REMARK  status: ('A' for Active; 'I' for Inactive)
REMARK    1  A    between atoms: C_2  and  O_15
REMARK    2  A    between atoms: C_3  and  O_17
REMARK    3  A    between atoms: C_4  and  O_19
REMARK    4  A    between atoms: C_5  and  C_21
REMARK    5  A    between atoms: C_6  and  N_8
REMARK    6  A    between atoms: C_9  and  C_14
REMARK    7  A    between atoms: C_21  and  O_22
REMARK                            x       y       z     vdW  Elec       q    Type
REMARK                         _______ _______ _______ _____ _____    ______ ____
ROOT
ATOM      1  O   UNL     1     -38.447  23.804   3.173  0.00  0.00    -0.333 OA
ATOM      2  C   UNL     1     -39.619  22.172   1.127  0.00  0.00    +0.171 C 
ATOM      3  C   UNL     1     -40.299  23.439   1.647  0.00  0.00    +0.169 C 
ATOM      4  C   UNL     1     -38.625  21.608   2.145  0.00  0.00    +0.186 C 
ATOM      5  C   UNL     1     -39.256  24.431   2.175  0.00  0.00    +0.175 C 
ATOM      6  C   UNL     1     -37.698  22.705   2.664  0.00  0.00    +0.221 C 
ENDROOT
BRANCH   6   8
ATOM      7  O   UNL     1     -35.864  24.238   4.318  0.00  0.00    -0.266 OA
ATOM      8  N   UNL     1     -36.865  22.218   3.735  0.00  0.00    -0.274 N 
ATOM      9  C   UNL     1     -36.017  23.029   4.471  0.00  0.00    +0.320 C 
ATOM     10  H   UNL     1     -36.900  21.258   3.954  0.00  0.00    +0.152 HD
BRANCH   9  14
ATOM     11  F   UNL     1     -35.985  22.129   6.663  0.00  0.00    -0.162 F 
ATOM     12  F   UNL     1     -34.097  22.862   5.854  0.00  0.00    -0.162 F 
ATOM     13  F   UNL     1     -34.956  21.005   5.105  0.00  0.00    -0.162 F 
ATOM     14  C   UNL     1     -35.267  22.260   5.518  0.00  0.00    +0.469 C 
ENDBRANCH   9  14
ENDBRANCH   6   8
BRANCH   2  15
ATOM     15  O   UNL     1     -40.611  21.183   0.842  0.00  0.00    -0.379 OA
ATOM     16  H   UNL     1     -40.628  21.007  -0.112  0.00  0.00    +0.211 HD
ENDBRANCH   2  15
BRANCH   3  17
ATOM     17  O   UNL     1     -41.038  24.017   0.575  0.00  0.00    -0.379 OA
ATOM     18  H   UNL     1     -40.654  23.736  -0.271  0.00  0.00    +0.211 HD
ENDBRANCH   3  17
BRANCH   4  19
ATOM     19  O   UNL     1     -37.839  20.597   1.515  0.00  0.00    -0.378 OA
ATOM     20  H   UNL     1     -37.687  20.838   0.587  0.00  0.00    +0.211 HD
ENDBRANCH   4  19
BRANCH   5  21
ATOM     21  C   UNL     1     -39.899  25.656   2.817  0.00  0.00    +0.169 C 
BRANCH  21  22
ATOM     22  O   UNL     1     -38.898  26.380   3.508  0.00  0.00    -0.379 OA
ATOM     23  H   UNL     1     -38.090  26.407   2.972  0.00  0.00    +0.211 HD
ENDBRANCH  21  22
ENDBRANCH   5  21
TORSDOF 7
ENDMDL
MODEL 2
REMARK VINA RESULT:      -5.9      2.620      3.039
REMARK  Name = 5326889
REMARK  7 active torsions:
REMARK  status: ('A' for Active; 'I' for Inactive)
REMARK    1  A    between atoms: C_2  and  O_15
REMARK    2  A    between atoms: C_3  and  O_17
REMARK    3  A    between atoms: C_4  and  O_19
REMARK    4  A    between atoms: C_5  and  C_21
REMARK    5  A    between atoms: C_6  and  N_8
REMARK    6  A    between atoms: C_9  and  C_14
REMARK    7  A    between atoms: C_21  and  O_22
REMARK                            x       y       z     vdW  Elec       q    Type
REMARK                         _______ _______ _______ _____ _____    ______ ____
ROOT
ATOM      1  O   UNL     1     -38.417  24.626   3.750  0.00  0.00    -0.333 OA
ATOM      2  C   UNL     1     -36.958  25.992   1.693  0.00  0.00    +0.171 C 
ATOM      3  C   UNL     1     -38.485  26.027   1.769  0.00  0.00    +0.169 C 
ATOM      4  C   UNL     1     -36.387  24.774   2.421  0.00  0.00    +0.186 C 
ATOM      5  C   UNL     1     -38.956  25.837   3.216  0.00  0.00    +0.175 C 
ATOM      6  C   UNL     1     -36.994  24.638   3.816  0.00  0.00    +0.221 C 
ENDROOT
BRANCH   6   8
ATOM      7  O   UNL     1     -34.754  24.246   5.625  0.00  0.00    -0.266 OA
ATOM      8  N   UNL     1     -36.580  23.410   4.446  0.00  0.00    -0.274 N 
ATOM      9  C   UNL     1     -35.492  23.320   5.298  0.00  0.00    +0.320 C 
ATOM     10  H   UNL     1     -37.097  22.592   4.262  0.00  0.00    +0.152 HD
BRANCH   9  14
ATOM     11  F   UNL     1     -34.063  21.766   6.375  0.00  0.00    -0.162 F 
ATOM     12  F   UNL     1     -35.383  21.000   4.818  0.00  0.00    -0.162 F 
ATOM     13  F   UNL     1     -36.202  21.585   6.750  0.00  0.00    -0.162 F 
ATOM     14  C   UNL     1     -35.286  21.924   5.808  0.00  0.00    +0.469 C 
ENDBRANCH   9  14
ENDBRANCH   6   8
BRANCH   2  15
ATOM     15  O   UNL     1     -36.552  25.955   0.323  0.00  0.00    -0.379 OA
ATOM     16  H   UNL     1     -37.286  26.244  -0.240  0.00  0.00    +0.211 HD
ENDBRANCH   2  15
BRANCH   3  17
ATOM     17  O   UNL     1     -38.925  27.285   1.264  0.00  0.00    -0.379 OA
ATOM     18  H   UNL     1     -39.852  27.428   1.515  0.00  0.00    +0.211 HD
ENDBRANCH   3  17
BRANCH   4  19
ATOM     19  O   UNL     1     -34.973  24.928   2.545  0.00  0.00    -0.378 OA
ATOM     20  H   UNL     1     -34.779  25.740   3.039  0.00  0.00    +0.211 HD
ENDBRANCH   4  19
BRANCH   5  21
ATOM     21  C   UNL     1     -40.475  25.741   3.320  0.00  0.00    +0.169 C 
BRANCH  21  22
ATOM     22  O   UNL     1     -40.979  27.000   3.728  0.00  0.00    -0.379 OA
ATOM     23  H   UNL     1     -41.749  26.869   4.303  0.00  0.00    +0.211 HD
ENDBRANCH  21  22
ENDBRANCH   5  21
TORSDOF 7
ENDMDL
MODEL 3
REMARK VINA RESULT:      -5.8      3.323      5.824
REMARK  Name = 5326889
REMARK  7 active torsions:
REMARK  status: ('A' for Active; 'I' for Inactive)
REMARK    1  A    between atoms: C_2  and  O_15
REMARK    2  A    between atoms: C_3  and  O_17
REMARK    3  A    between atoms: C_4  and  O_19
REMARK    4  A    between atoms: C_5  and  C_21
REMARK    5  A    between atoms: C_6  and  N_8
REMARK    6  A    between atoms: C_9  and  C_14
REMARK    7  A    between atoms: C_21  and  O_22
REMARK                            x       y       z     vdW  Elec       q    Type
REMARK                         _______ _______ _______ _____ _____    ______ ____
ROOT
ATOM      1  O   UNL     1     -36.646  22.837   4.501  0.00  0.00    -0.333 OA
ATOM      2  C   UNL     1     -35.861  25.593   4.384  0.00  0.00    +0.171 C 
ATOM      3  C   UNL     1     -35.461  24.681   5.545  0.00  0.00    +0.169 C 
ATOM      4  C   UNL     1     -37.105  25.073   3.662  0.00  0.00    +0.186 C 
ATOM      5  C   UNL     1     -35.397  23.221   5.083  0.00  0.00    +0.175 C 
ATOM      6  C   UNL     1     -36.961  23.588   3.332  0.00  0.00    +0.221 C 
ENDROOT
BRANCH   6   8
ATOM      7  O   UNL     1     -37.295  21.178   1.742  0.00  0.00    -0.266 OA
ATOM      8  N   UNL     1     -38.187  23.054   2.794  0.00  0.00    -0.274 N 
ATOM      9  C   UNL     1     -38.248  21.892   2.043  0.00  0.00    +0.320 C 
ATOM     10  H   UNL     1     -39.026  23.540   2.970  0.00  0.00    +0.152 HD
BRANCH   9  14
ATOM     11  F   UNL     1     -40.359  20.967   2.594  0.00  0.00    -0.162 F 
ATOM     12  F   UNL     1     -39.671  20.737   0.538  0.00  0.00    -0.162 F 
ATOM     13  F   UNL     1     -40.338  22.684   1.252  0.00  0.00    -0.162 F 
ATOM     14  C   UNL     1     -39.647  21.571   1.608  0.00  0.00    +0.469 C 
ENDBRANCH   9  14
ENDBRANCH   6   8
BRANCH   2  15
ATOM     15  O   UNL     1     -36.122  26.908   4.881  0.00  0.00    -0.379 OA
ATOM     16  H   UNL     1     -36.640  26.848   5.699  0.00  0.00    +0.211 HD
ENDBRANCH   2  15
BRANCH   3  17
ATOM     17  O   UNL     1     -34.189  25.107   6.025  0.00  0.00    -0.379 OA
ATOM     18  H   UNL     1     -34.265  26.002   6.392  0.00  0.00    +0.211 HD
ENDBRANCH   3  17
BRANCH   4  19
ATOM     19  O   UNL     1     -37.276  25.802   2.447  0.00  0.00    -0.378 OA
ATOM     20  H   UNL     1     -37.477  25.185   1.726  0.00  0.00    +0.211 HD
ENDBRANCH   4  19
BRANCH   5  21
ATOM     21  C   UNL     1     -35.124  22.263   6.238  0.00  0.00    +0.169 C 
BRANCH  21  22
ATOM     22  O   UNL     1     -35.349  20.939   5.788  0.00  0.00    -0.379 OA
ATOM     23  H   UNL     1     -36.211  20.631   6.108  0.00  0.00    +0.211 HD
ENDBRANCH  21  22
ENDBRANCH   5  21
TORSDOF 7
ENDMDL
MODEL 4
REMARK VINA RESULT:      -5.8      2.131      3.749
REMARK  Name = 5326889
REMARK  7 active torsions:
REMARK  status: ('A' for Active; 'I' for Inactive)
REMARK    1  A    between atoms: C_2  and  O_15
REMARK    2  A    between atoms: C_3  and  O_17
REMARK    3  A    between atoms: C_4  and  O_19
REMARK    4  A    between atoms: C_5  and  C_21
REMARK    5  A    between atoms: C_6  and  N_8
REMARK    6  A    between atoms: C_9  and  C_14
REMARK    7  A    between atoms: C_21  and  O_22
REMARK                            x       y       z     vdW  Elec       q    Type
REMARK                         _______ _______ _______ _____ _____    ______ ____
ROOT
ATOM      1  O   UNL     1     -36.701  22.459   2.348  0.00  0.00    -0.333 OA
ATOM      2  C   UNL     1     -39.547  22.792   2.235  0.00  0.00    +0.171 C 
ATOM      3  C   UNL     1     -38.805  21.812   1.325  0.00  0.00    +0.169 C 
ATOM      4  C   UNL     1     -38.621  23.896   2.747  0.00  0.00    +0.186 C 
ATOM      5  C   UNL     1     -37.510  21.335   1.991  0.00  0.00    +0.175 C 
ATOM      6  C   UNL     1     -37.327  23.306   3.306  0.00  0.00    +0.221 C 
ENDROOT
BRANCH   6   8
ATOM      7  O   UNL     1     -35.927  23.670   5.827  0.00  0.00    -0.266 OA
ATOM      8  N   UNL     1     -36.387  24.344   3.646  0.00  0.00    -0.274 N 
ATOM      9  C   UNL     1     -35.767  24.436   4.881  0.00  0.00    +0.320 C 
ATOM     10  H   UNL     1     -36.174  25.022   2.965  0.00  0.00    +0.152 HD
BRANCH   9  14
ATOM     11  F   UNL     1     -34.607  25.987   6.247  0.00  0.00    -0.162 F 
ATOM     12  F   UNL     1     -35.339  26.700   4.320  0.00  0.00    -0.162 F 
ATOM     13  F   UNL     1     -33.632  25.350   4.405  0.00  0.00    -0.162 F 
ATOM     14  C   UNL     1     -34.840  25.614   4.962  0.00  0.00    +0.469 C 
ENDBRANCH   9  14
ENDBRANCH   6   8
BRANCH   2  15
ATOM     15  O   UNL     1     -40.630  23.383   1.514  0.00  0.00    -0.379 OA
ATOM     16  H   UNL     1     -40.283  23.866   0.748  0.00  0.00    +0.211 HD
ENDBRANCH   2  15
BRANCH   3  17
ATOM     17  O   UNL     1     -39.667  20.707   1.066  0.00  0.00    -0.379 OA
ATOM     18  H   UNL     1     -40.503  21.030   0.692  0.00  0.00    +0.211 HD
ENDBRANCH   3  17
BRANCH   4  19
ATOM     19  O   UNL     1     -39.287  24.616   3.784  0.00  0.00    -0.378 OA
ATOM     20  H   UNL     1     -39.713  25.402   3.408  0.00  0.00    +0.211 HD
ENDBRANCH   4  19
BRANCH   5  21
ATOM     21  C   UNL     1     -36.676  20.453   1.067  0.00  0.00    +0.169 C 
BRANCH  21  22
ATOM     22  O   UNL     1     -37.045  19.103   1.279  0.00  0.00    -0.379 OA
ATOM     23  H   UNL     1     -37.981  19.059   1.531  0.00  0.00    +0.211 HD
ENDBRANCH  21  22
ENDBRANCH   5  21
TORSDOF 7
ENDMDL
MODEL 5
REMARK VINA RESULT:      -5.7      4.620      6.259
REMARK  Name = 5326889
REMARK  7 active torsions:
REMARK  status: ('A' for Active; 'I' for Inactive)
REMARK    1  A    between atoms: C_2  and  O_15
REMARK    2  A    between atoms: C_3  and  O_17
REMARK    3  A    between atoms: C_4  and  O_19
REMARK    4  A    between atoms: C_5  and  C_21
REMARK    5  A    between atoms: C_6  and  N_8
REMARK    6  A    between atoms: C_9  and  C_14
REMARK    7  A    between atoms: C_21  and  O_22
REMARK                            x       y       z     vdW  Elec       q    Type
REMARK                         _______ _______ _______ _____ _____    ______ ____
ROOT
ATOM      1  O   UNL     1     -34.214  25.088   5.260  0.00  0.00    -0.333 OA
ATOM      2  C   UNL     1     -36.419  25.724   3.540  0.00  0.00    +0.171 C 
ATOM      3  C   UNL     1     -36.097  24.287   3.955  0.00  0.00    +0.169 C 
ATOM      4  C   UNL     1     -35.193  26.631   3.657  0.00  0.00    +0.186 C 
ATOM      5  C   UNL     1     -35.383  24.266   5.311  0.00  0.00    +0.175 C 
ATOM      6  C   UNL     1     -34.515  26.458   5.015  0.00  0.00    +0.221 C 
ENDROOT
BRANCH   6   8
ATOM      7  O   UNL     1     -32.937  27.081   7.375  0.00  0.00    -0.266 OA
ATOM      8  N   UNL     1     -33.274  27.190   5.073  0.00  0.00    -0.274 N 
ATOM      9  C   UNL     1     -32.591  27.439   6.252  0.00  0.00    +0.320 C 
ATOM     10  H   UNL     1     -32.892  27.531   4.232  0.00  0.00    +0.152 HD
BRANCH   9  14
ATOM     11  F   UNL     1     -30.264  27.662   6.641  0.00  0.00    -0.162 F 
ATOM     12  F   UNL     1     -31.434  29.496   6.486  0.00  0.00    -0.162 F 
ATOM     13  F   UNL     1     -31.022  28.313   4.704  0.00  0.00    -0.162 F 
ATOM     14  C   UNL     1     -31.334  28.225   6.022  0.00  0.00    +0.469 C 
ENDBRANCH   9  14
ENDBRANCH   6   8
BRANCH   2  15
ATOM     15  O   UNL     1     -36.886  25.735   2.189  0.00  0.00    -0.379 OA
ATOM     16  H   UNL     1     -37.836  25.928   2.177  0.00  0.00    +0.211 HD
ENDBRANCH   2  15
BRANCH   3  17
ATOM     17  O   UNL     1     -37.321  23.562   4.026  0.00  0.00    -0.379 OA
ATOM     18  H   UNL     1     -38.052  24.176   4.201  0.00  0.00    +0.211 HD
ENDBRANCH   3  17
BRANCH   4  19
ATOM     19  O   UNL     1     -35.606  27.990   3.515  0.00  0.00    -0.378 OA
ATOM     20  H   UNL     1     -36.372  28.034   2.922  0.00  0.00    +0.211 HD
ENDBRANCH   4  19
BRANCH   5  21
ATOM     21  C   UNL     1     -34.932  22.863   5.704  0.00  0.00    +0.169 C 
BRANCH  21  22
ATOM     22  O   UNL     1     -36.058  22.144   6.174  0.00  0.00    -0.379 OA
ATOM     23  H   UNL     1     -36.778  22.763   6.370  0.00  0.00    +0.211 HD
ENDBRANCH  21  22
ENDBRANCH   5  21
TORSDOF 7
ENDMDL
MODEL 6
REMARK VINA RESULT:      -5.7      2.070      3.318
REMARK  Name = 5326889
REMARK  7 active torsions:
REMARK  status: ('A' for Active; 'I' for Inactive)
REMARK    1  A    between atoms: C_2  and  O_15
REMARK    2  A    between atoms: C_3  and  O_17
REMARK    3  A    between atoms: C_4  and  O_19
REMARK    4  A    between atoms: C_5  and  C_21
REMARK    5  A    between atoms: C_6  and  N_8
REMARK    6  A    between atoms: C_9  and  C_14
REMARK    7  A    between atoms: C_21  and  O_22
REMARK                            x       y       z     vdW  Elec       q    Type
REMARK                         _______ _______ _______ _____ _____    ______ ____
ROOT
ATOM      1  O   UNL     1     -37.580  21.468   2.409  0.00  0.00    -0.333 OA
ATOM      2  C   UNL     1     -36.407  19.717   0.465  0.00  0.00    +0.171 C 
ATOM      3  C   UNL     1     -37.898  20.057   0.459  0.00  0.00    +0.169 C 
ATOM      4  C   UNL     1     -35.787  19.926   1.847  0.00  0.00    +0.186 C 
ATOM      5  C   UNL     1     -38.138  21.432   1.093  0.00  0.00    +0.175 C 
ATOM      6  C   UNL     1     -36.167  21.293   2.413  0.00  0.00    +0.221 C 
ENDROOT
BRANCH   6   8
ATOM      7  O   UNL     1     -36.548  23.573   4.175  0.00  0.00    -0.266 OA
ATOM      8  N   UNL     1     -35.718  21.434   3.776  0.00  0.00    -0.274 N 
ATOM      9  C   UNL     1     -35.948  22.566   4.541  0.00  0.00    +0.320 C 
ATOM     10  H   UNL     1     -35.222  20.688   4.185  0.00  0.00    +0.152 HD
BRANCH   9  14
ATOM     11  F   UNL     1     -35.023  23.653   6.432  0.00  0.00    -0.162 F 
ATOM     12  F   UNL     1     -34.251  21.675   5.937  0.00  0.00    -0.162 F 
ATOM     13  F   UNL     1     -36.243  21.884   6.792  0.00  0.00    -0.162 F 
ATOM     14  C   UNL     1     -35.369  22.445   5.919  0.00  0.00    +0.469 C 
ENDBRANCH   9  14
ENDBRANCH   6   8
BRANCH   2  15
ATOM     15  O   UNL     1     -36.229  18.354   0.070  0.00  0.00    -0.379 OA
ATOM     16  H   UNL     1     -36.126  18.307  -0.893  0.00  0.00    +0.211 HD
ENDBRANCH   2  15
BRANCH   3  17
ATOM     17  O   UNL     1     -38.350  20.046  -0.892  0.00  0.00    -0.379 OA
ATOM     18  H   UNL     1     -38.479  20.958  -1.197  0.00  0.00    +0.211 HD
ENDBRANCH   3  17
BRANCH   4  19
ATOM     19  O   UNL     1     -34.366  19.851   1.735  0.00  0.00    -0.378 OA
ATOM     20  H   UNL     1     -34.076  18.941   1.906  0.00  0.00    +0.211 HD
ENDBRANCH   4  19
BRANCH   5  21
ATOM     21  C   UNL     1     -39.622  21.757   1.221  0.00  0.00    +0.169 C 
BRANCH  21  22
ATOM     22  O   UNL     1     -40.167  20.968   2.263  0.00  0.00    -0.379 OA
ATOM     23  H   UNL     1     -39.864  20.051   2.167  0.00  0.00    +0.211 HD
ENDBRANCH  21  22
ENDBRANCH   5  21
TORSDOF 7
ENDMDL
MODEL 7
REMARK VINA RESULT:      -5.7      3.168      4.701
REMARK  Name = 5326889
REMARK  7 active torsions:
REMARK  status: ('A' for Active; 'I' for Inactive)
REMARK    1  A    between atoms: C_2  and  O_15
REMARK    2  A    between atoms: C_3  and  O_17
REMARK    3  A    between atoms: C_4  and  O_19
REMARK    4  A    between atoms: C_5  and  C_21
REMARK    5  A    between atoms: C_6  and  N_8
REMARK    6  A    between atoms: C_9  and  C_14
REMARK    7  A    between atoms: C_21  and  O_22
REMARK                            x       y       z     vdW  Elec       q    Type
REMARK                         _______ _______ _______ _____ _____    ______ ____
ROOT
ATOM      1  O   UNL     1     -36.900  23.641   3.189  0.00  0.00    -0.333 OA
ATOM      2  C   UNL     1     -35.433  24.595   5.461  0.00  0.00    +0.171 C 
ATOM      3  C   UNL     1     -36.182  25.540   4.520  0.00  0.00    +0.169 C 
ATOM      4  C   UNL     1     -35.096  23.269   4.776  0.00  0.00    +0.186 C 
ATOM      5  C   UNL     1     -37.361  24.817   3.859  0.00  0.00    +0.175 C 
ATOM      6  C   UNL     1     -36.326  22.689   4.079  0.00  0.00    +0.221 C 
ENDROOT
BRANCH   6   8
ATOM      7  O   UNL     1     -34.715  22.586   1.662  0.00  0.00    -0.266 OA
ATOM      8  N   UNL     1     -35.982  21.524   3.303  0.00  0.00    -0.274 N 
ATOM      9  C   UNL     1     -35.204  21.574   2.158  0.00  0.00    +0.320 C 
ATOM     10  H   UNL     1     -36.316  20.648   3.602  0.00  0.00    +0.152 HD
BRANCH   9  14
ATOM     11  F   UNL     1     -34.121  19.469   2.256  0.00  0.00    -0.162 F 
ATOM     12  F   UNL     1     -34.534  20.291   0.279  0.00  0.00    -0.162 F 
ATOM     13  F   UNL     1     -36.163  19.509   1.495  0.00  0.00    -0.162 F 
ATOM     14  C   UNL     1     -35.007  20.217   1.549  0.00  0.00    +0.469 C 
ENDBRANCH   9  14
ENDBRANCH   6   8
BRANCH   2  15
ATOM     15  O   UNL     1     -34.223  25.220   5.897  0.00  0.00    -0.379 OA
ATOM     16  H   UNL     1     -34.301  25.457   6.834  0.00  0.00    +0.211 HD
ENDBRANCH   2  15
BRANCH   3  17
ATOM     17  O   UNL     1     -36.645  26.651   5.283  0.00  0.00    -0.379 OA
ATOM     18  H   UNL     1     -35.964  26.907   5.926  0.00  0.00    +0.211 HD
ENDBRANCH   3  17
BRANCH   4  19
ATOM     19  O   UNL     1     -34.642  22.341   5.761  0.00  0.00    -0.378 OA
ATOM     20  H   UNL     1     -35.125  22.487   6.589  0.00  0.00    +0.211 HD
ENDBRANCH   4  19
BRANCH   5  21
ATOM     21  C   UNL     1     -38.061  25.686   2.819  0.00  0.00    +0.169 C 
BRANCH  21  22
ATOM     22  O   UNL     1     -39.058  26.452   3.469  0.00  0.00    -0.379 OA
ATOM     23  H   UNL     1     -38.671  27.283   3.786  0.00  0.00    +0.211 HD
ENDBRANCH  21  22
ENDBRANCH   5  21
TORSDOF 7
ENDMDL
MODEL 8
REMARK VINA RESULT:      -5.5      3.804      6.139
REMARK  Name = 5326889
REMARK  7 active torsions:
REMARK  status: ('A' for Active; 'I' for Inactive)
REMARK    1  A    between atoms: C_2  and  O_15
REMARK    2  A    between atoms: C_3  and  O_17
REMARK    3  A    between atoms: C_4  and  O_19
REMARK    4  A    between atoms: C_5  and  C_21
REMARK    5  A    between atoms: C_6  and  N_8
REMARK    6  A    between atoms: C_9  and  C_14
REMARK    7  A    between atoms: C_21  and  O_22
REMARK                            x       y       z     vdW  Elec       q    Type
REMARK                         _______ _______ _______ _____ _____    ______ ____
ROOT
ATOM      1  O   UNL     1     -37.167  23.057   3.648  0.00  0.00    -0.333 OA
ATOM      2  C   UNL     1     -36.364  25.681   4.481  0.00  0.00    +0.171 C 
ATOM      3  C   UNL     1     -35.893  24.417   5.202  0.00  0.00    +0.169 C 
ATOM      4  C   UNL     1     -37.661  25.437   3.708  0.00  0.00    +0.186 C 
ATOM      5  C   UNL     1     -35.877  23.223   4.241  0.00  0.00    +0.175 C 
ATOM      6  C   UNL     1     -37.556  24.174   2.854  0.00  0.00    +0.221 C 
ENDROOT
BRANCH   6   8
ATOM      7  O   UNL     1     -38.526  24.999   0.242  0.00  0.00    -0.266 OA
ATOM      8  N   UNL     1     -38.823  23.852   2.246  0.00  0.00    -0.274 N 
ATOM      9  C   UNL     1     -39.199  24.294   0.988  0.00  0.00    +0.320 C 
ATOM     10  H   UNL     1     -39.453  23.288   2.750  0.00  0.00    +0.152 HD
BRANCH   9  14
ATOM     11  F   UNL     1     -40.908  24.201  -0.650  0.00  0.00    -0.162 F 
ATOM     12  F   UNL     1     -41.527  24.290   1.439  0.00  0.00    -0.162 F 
ATOM     13  F   UNL     1     -40.659  22.460   0.636  0.00  0.00    -0.162 F 
ATOM     14  C   UNL     1     -40.567  23.813   0.606  0.00  0.00    +0.469 C 
ENDBRANCH   9  14
ENDBRANCH   6   8
BRANCH   2  15
ATOM     15  O   UNL     1     -36.575  26.723   5.437  0.00  0.00    -0.379 OA
ATOM     16  H   UNL     1     -35.822  27.334   5.420  0.00  0.00    +0.211 HD
ENDBRANCH   2  15
BRANCH   3  17
ATOM     17  O   UNL     1     -34.585  24.661   5.715  0.00  0.00    -0.379 OA
ATOM     18  H   UNL     1     -34.024  23.885   5.552  0.00  0.00    +0.211 HD
ENDBRANCH   3  17
BRANCH   4  19
ATOM     19  O   UNL     1     -37.909  26.553   2.854  0.00  0.00    -0.378 OA
ATOM     20  H   UNL     1     -38.678  27.045   3.181  0.00  0.00    +0.211 HD
ENDBRANCH   4  19
BRANCH   5  21
ATOM     21  C   UNL     1     -35.533  21.917   4.949  0.00  0.00    +0.169 C 
BRANCH  21  22
ATOM     22  O   UNL     1     -36.045  21.971   6.268  0.00  0.00    -0.379 OA
ATOM     23  H   UNL     1     -36.063  21.077   6.645  0.00  0.00    +0.211 HD
ENDBRANCH  21  22
ENDBRANCH   5  21
TORSDOF 7
ENDMDL
MODEL 9
REMARK VINA RESULT:      -5.5      2.703      4.558
REMARK  Name = 5326889
REMARK  7 active torsions:
REMARK  status: ('A' for Active; 'I' for Inactive)
REMARK    1  A    between atoms: C_2  and  O_15
REMARK    2  A    between atoms: C_3  and  O_17
REMARK    3  A    between atoms: C_4  and  O_19
REMARK    4  A    between atoms: C_5  and  C_21
REMARK    5  A    between atoms: C_6  and  N_8
REMARK    6  A    between atoms: C_9  and  C_14
REMARK    7  A    between atoms: C_21  and  O_22
REMARK                            x       y       z     vdW  Elec       q    Type
REMARK                         _______ _______ _______ _____ _____    ______ ____
ROOT
ATOM      1  O   UNL     1     -35.075  21.610   2.468  0.00  0.00    -0.333 OA
ATOM      2  C   UNL     1     -37.737  20.862   1.707  0.00  0.00    +0.171 C 
ATOM      3  C   UNL     1     -36.500  20.236   1.062  0.00  0.00    +0.169 C 
ATOM      4  C   UNL     1     -37.422  22.227   2.321  0.00  0.00    +0.186 C 
ATOM      5  C   UNL     1     -35.313  20.269   2.033  0.00  0.00    +0.175 C 
ATOM      6  C   UNL     1     -36.172  22.155   3.195  0.00  0.00    +0.221 C 
ENDROOT
BRANCH   6   8
ATOM      7  O   UNL     1     -35.990  23.095   5.940  0.00  0.00    -0.266 OA
ATOM      8  N   UNL     1     -35.780  23.466   3.650  0.00  0.00    -0.274 N 
ATOM      9  C   UNL     1     -35.723  23.823   4.987  0.00  0.00    +0.320 C 
ATOM     10  H   UNL     1     -35.539  24.142   2.976  0.00  0.00    +0.152 HD
BRANCH   9  14
ATOM     11  F   UNL     1     -34.084  25.332   5.795  0.00  0.00    -0.162 F 
ATOM     12  F   UNL     1     -36.169  25.955   5.925  0.00  0.00    -0.162 F 
ATOM     13  F   UNL     1     -35.167  25.902   3.992  0.00  0.00    -0.162 F 
ATOM     14  C   UNL     1     -35.288  25.247   5.174  0.00  0.00    +0.469 C 
ENDBRANCH   9  14
ENDBRANCH   6   8
BRANCH   2  15
ATOM     15  O   UNL     1     -38.761  21.015   0.721  0.00  0.00    -0.379 OA
ATOM     16  H   UNL     1     -38.812  21.944   0.449  0.00  0.00    +0.211 HD
ENDBRANCH   2  15
BRANCH   3  17
ATOM     17  O   UNL     1     -36.816  18.892   0.709  0.00  0.00    -0.379 OA
ATOM     18  H   UNL     1     -37.220  18.877  -0.173  0.00  0.00    +0.211 HD
ENDBRANCH   3  17
BRANCH   4  19
ATOM     19  O   UNL     1     -38.527  22.640   3.126  0.00  0.00    -0.378 OA
ATOM     20  H   UNL     1     -38.370  23.540   3.452  0.00  0.00    +0.211 HD
ENDBRANCH   4  19
BRANCH   5  21
ATOM     21  C   UNL     1     -34.026  19.768   1.386  0.00  0.00    +0.169 C 
BRANCH  21  22
ATOM     22  O   UNL     1     -34.087  18.356   1.296  0.00  0.00    -0.379 OA
ATOM     23  H   UNL     1     -34.998  18.083   1.105  0.00  0.00    +0.211 HD
ENDBRANCH  21  22
ENDBRANCH   5  21
TORSDOF 7
ENDMDL
