MODEL 1
REMARK VINA RESULT:      -6.3      0.000      0.000
REMARK  Name = 21122687
REMARK  4 active torsions:
REMARK  status: ('A' for Active; 'I' for Inactive)
REMARK    1  A    between atoms: N_1  and  C_16
REMARK    2  A    between atoms: C_17  and  O_20
REMARK    3  A    between atoms: C_19  and  C_22
REMARK    4  A    between atoms: C_22  and  O_23
REMARK                            x       y       z     vdW  Elec       q    Type
REMARK                         _______ _______ _______ _____ _____    ______ ____
ROOT
ATOM      1  N   UNL     1     -36.505  24.579   3.329  0.00  0.00    -0.234 N 
ATOM      2  N   UNL     1     -38.618  25.023   2.772  0.00  0.00    -0.240 NA
ATOM      3  N   UNL     1     -36.434  22.202   2.829  0.00  0.00    -0.311 NA
ATOM      4  N   UNL     1     -38.582  21.409   1.987  0.00  0.00    -0.312 NA
ATOM      5  N   UNL     1     -36.756  19.963   2.234  0.00  0.00    -0.283 N 
ATOM      6  C   UNL     1     -37.041  23.397   2.903  0.00  0.00    +0.221 C 
ATOM      7  C   UNL     1     -37.491  25.525   3.232  0.00  0.00    +0.224 C 
ATOM      8  C   UNL     1     -38.350  23.693   2.561  0.00  0.00    +0.167 C 
ATOM      9  C   UNL     1     -39.131  22.643   2.088  0.00  0.00    +0.212 C 
ATOM     10  C   UNL     1     -37.287  21.267   2.358  0.00  0.00    +0.199 C 
ATOM     11  H   UNL     1     -35.821  19.785   2.485  0.00  0.00    +0.156 HD
ATOM     12  H   UNL     1     -37.322  19.231   1.896  0.00  0.00    +0.156 HD
ATOM     13  N   UNL     1     -40.470  22.854   1.718  0.00  0.00    -0.331 N 
ATOM     14  H   UNL     1     -41.013  22.103   1.384  0.00  0.00    +0.145 HD
ATOM     15  H   UNL     1     -40.866  23.752   1.792  0.00  0.00    +0.145 HD
ENDROOT
BRANCH   1  19
ATOM     16  F   UNL     1     -36.100  25.658   5.802  0.00  0.00    -0.197 F 
ATOM     17  F   UNL     1     -34.852  23.873   5.973  0.00  0.00    -0.197 F 
ATOM     18  O   UNL     1     -34.581  25.966   3.160  0.00  0.00    -0.331 OA
ATOM     19  C   UNL     1     -35.144  24.801   3.802  0.00  0.00    +0.261 C 
ATOM     20  C   UNL     1     -33.800  25.907   5.383  0.00  0.00    +0.206 C 
ATOM     21  C   UNL     1     -35.018  25.025   5.299  0.00  0.00    +0.332 C 
ATOM     22  C   UNL     1     -34.009  26.808   4.178  0.00  0.00    +0.179 C 
BRANCH  20  23
ATOM     23  O   UNL     1     -33.748  26.645   6.585  0.00  0.00    -0.377 OA
ATOM     24  H   UNL     1     -33.914  27.583   6.396  0.00  0.00    +0.211 HD
ENDBRANCH  20  23
BRANCH  22  25
ATOM     25  C   UNL     1     -32.727  27.435   3.664  0.00  0.00    +0.169 C 
BRANCH  25  26
ATOM     26  O   UNL     1     -31.823  27.585   4.747  0.00  0.00    -0.379 OA
ATOM     27  H   UNL     1     -32.180  28.227   5.379  0.00  0.00    +0.211 HD
ENDBRANCH  25  26
ENDBRANCH  22  25
ENDBRANCH   1  19
TORSDOF 4
ENDMDL
MODEL 2
REMARK VINA RESULT:      -6.2      4.080      7.081
REMARK  Name = 21122687
REMARK  4 active torsions:
REMARK  status: ('A' for Active; 'I' for Inactive)
REMARK    1  A    between atoms: N_1  and  C_16
REMARK    2  A    between atoms: C_17  and  O_20
REMARK    3  A    between atoms: C_19  and  C_22
REMARK    4  A    between atoms: C_22  and  O_23
REMARK                            x       y       z     vdW  Elec       q    Type
REMARK                         _______ _______ _______ _____ _____    ______ ____
ROOT
ATOM      1  N   UNL     1     -33.536  27.086   3.771  0.00  0.00    -0.234 N 
ATOM      2  N   UNL     1     -31.823  27.339   2.367  0.00  0.00    -0.240 NA
ATOM      3  N   UNL     1     -32.640  28.212   5.728  0.00  0.00    -0.311 NA
ATOM      4  N   UNL     1     -30.395  29.070   5.307  0.00  0.00    -0.312 NA
ATOM      5  N   UNL     1     -31.447  29.363   7.379  0.00  0.00    -0.283 N 
ATOM      6  C   UNL     1     -32.579  27.772   4.462  0.00  0.00    +0.221 C 
ATOM      7  C   UNL     1     -33.034  26.848   2.519  0.00  0.00    +0.224 C 
ATOM      8  C   UNL     1     -31.525  27.920   3.575  0.00  0.00    +0.167 C 
ATOM      9  C   UNL     1     -30.402  28.597   4.037  0.00  0.00    +0.212 C 
ATOM     10  C   UNL     1     -31.498  28.851   6.062  0.00  0.00    +0.199 C 
ATOM     11  H   UNL     1     -32.213  29.242   7.985  0.00  0.00    +0.156 HD
ATOM     12  H   UNL     1     -30.645  29.841   7.691  0.00  0.00    +0.156 HD
ATOM     13  N   UNL     1     -29.287  28.793   3.204  0.00  0.00    -0.331 N 
ATOM     14  H   UNL     1     -28.498  29.275   3.543  0.00  0.00    +0.145 HD
ATOM     15  H   UNL     1     -29.295  28.450   2.282  0.00  0.00    +0.145 HD
ENDROOT
BRANCH   1  19
ATOM     16  F   UNL     1     -33.846  24.605   4.865  0.00  0.00    -0.197 F 
ATOM     17  F   UNL     1     -34.674  25.822   6.479  0.00  0.00    -0.197 F 
ATOM     18  O   UNL     1     -35.708  26.337   3.158  0.00  0.00    -0.331 OA
ATOM     19  C   UNL     1     -34.846  26.676   4.265  0.00  0.00    +0.261 C 
ATOM     20  C   UNL     1     -36.182  24.861   4.932  0.00  0.00    +0.206 C 
ATOM     21  C   UNL     1     -34.830  25.472   5.190  0.00  0.00    +0.332 C 
ATOM     22  C   UNL     1     -36.310  25.058   3.432  0.00  0.00    +0.179 C 
BRANCH  20  23
ATOM     23  O   UNL     1     -36.235  23.495   5.286  0.00  0.00    -0.377 OA
ATOM     24  H   UNL     1     -36.709  23.397   6.128  0.00  0.00    +0.211 HD
ENDBRANCH  20  23
BRANCH  22  25
ATOM     25  C   UNL     1     -37.747  25.052   2.943  0.00  0.00    +0.169 C 
BRANCH  25  26
ATOM     26  O   UNL     1     -38.609  24.879   4.055  0.00  0.00    -0.379 OA
ATOM     27  H   UNL     1     -38.105  24.518   4.801  0.00  0.00    +0.211 HD
ENDBRANCH  25  26
ENDBRANCH  22  25
ENDBRANCH   1  19
TORSDOF 4
ENDMDL
MODEL 3
REMARK VINA RESULT:      -6.2      4.013      5.973
REMARK  Name = 21122687
REMARK  4 active torsions:
REMARK  status: ('A' for Active; 'I' for Inactive)
REMARK    1  A    between atoms: N_1  and  C_16
REMARK    2  A    between atoms: C_17  and  O_20
REMARK    3  A    between atoms: C_19  and  C_22
REMARK    4  A    between atoms: C_22  and  O_23
REMARK                            x       y       z     vdW  Elec       q    Type
REMARK                         _______ _______ _______ _____ _____    ______ ____
ROOT
ATOM      1  N   UNL     1     -36.046  23.078   1.816  0.00  0.00    -0.234 N 
ATOM      2  N   UNL     1     -36.675  25.142   2.379  0.00  0.00    -0.240 NA
ATOM      3  N   UNL     1     -35.473  22.204   4.009  0.00  0.00    -0.311 NA
ATOM      4  N   UNL     1     -35.824  23.878   5.750  0.00  0.00    -0.312 NA
ATOM      5  N   UNL     1     -35.033  21.733   6.258  0.00  0.00    -0.283 N 
ATOM      6  C   UNL     1     -35.903  23.161   3.171  0.00  0.00    +0.221 C 
ATOM      7  C   UNL     1     -36.511  24.293   1.386  0.00  0.00    +0.224 C 
ATOM      8  C   UNL     1     -36.299  24.447   3.502  0.00  0.00    +0.167 C 
ATOM      9  C   UNL     1     -36.248  24.795   4.847  0.00  0.00    +0.212 C 
ATOM     10  C   UNL     1     -35.468  22.658   5.281  0.00  0.00    +0.199 C 
ATOM     11  H   UNL     1     -34.758  20.826   5.991  0.00  0.00    +0.156 HD
ATOM     12  H   UNL     1     -35.004  21.995   7.206  0.00  0.00    +0.156 HD
ATOM     13  N   UNL     1     -36.632  26.079   5.271  0.00  0.00    -0.331 N 
ATOM     14  H   UNL     1     -36.593  26.314   6.227  0.00  0.00    +0.145 HD
ATOM     15  H   UNL     1     -36.941  26.743   4.614  0.00  0.00    +0.145 HD
ENDROOT
BRANCH   1  19
ATOM     16  F   UNL     1     -37.587  20.837   2.033  0.00  0.00    -0.197 F 
ATOM     17  F   UNL     1     -37.731  21.172  -0.121  0.00  0.00    -0.197 F 
ATOM     18  O   UNL     1     -34.600  21.221   1.478  0.00  0.00    -0.331 OA
ATOM     19  C   UNL     1     -35.757  21.923   0.975  0.00  0.00    +0.261 C 
ATOM     20  C   UNL     1     -36.122  19.622   0.653  0.00  0.00    +0.206 C 
ATOM     21  C   UNL     1     -36.879  20.904   0.884  0.00  0.00    +0.332 C 
ATOM     22  C   UNL     1     -34.926  19.822   1.569  0.00  0.00    +0.179 C 
BRANCH  20  23
ATOM     23  O   UNL     1     -36.870  18.480   1.011  0.00  0.00    -0.377 OA
ATOM     24  H   UNL     1     -36.290  17.841   1.456  0.00  0.00    +0.211 HD
ENDBRANCH  20  23
BRANCH  22  25
ATOM     25  C   UNL     1     -33.721  18.988   1.176  0.00  0.00    +0.169 C 
BRANCH  25  26
ATOM     26  O   UNL     1     -34.167  17.715   0.737  0.00  0.00    -0.379 OA
ATOM     27  H   UNL     1     -34.458  17.775  -0.185  0.00  0.00    +0.211 HD
ENDBRANCH  25  26
ENDBRANCH  22  25
ENDBRANCH   1  19
TORSDOF 4
ENDMDL
MODEL 4
REMARK VINA RESULT:      -6.1      4.189      7.031
REMARK  Name = 21122687
REMARK  4 active torsions:
REMARK  status: ('A' for Active; 'I' for Inactive)
REMARK    1  A    between atoms: N_1  and  C_16
REMARK    2  A    between atoms: C_17  and  O_20
REMARK    3  A    between atoms: C_19  and  C_22
REMARK    4  A    between atoms: C_22  and  O_23
REMARK                            x       y       z     vdW  Elec       q    Type
REMARK                         _______ _______ _______ _____ _____    ______ ____
ROOT
ATOM      1  N   UNL     1     -33.499  26.582   5.021  0.00  0.00    -0.234 N 
ATOM      2  N   UNL     1     -32.539  27.654   6.724  0.00  0.00    -0.240 NA
ATOM      3  N   UNL     1     -32.666  27.915   3.168  0.00  0.00    -0.311 NA
ATOM      4  N   UNL     1     -31.232  29.726   3.953  0.00  0.00    -0.312 NA
ATOM      5  N   UNL     1     -31.672  29.416   1.674  0.00  0.00    -0.283 N 
ATOM      6  C   UNL     1     -32.781  27.604   4.469  0.00  0.00    +0.221 C 
ATOM      7  C   UNL     1     -33.322  26.655   6.378  0.00  0.00    +0.224 C 
ATOM      8  C   UNL     1     -32.193  28.256   5.540  0.00  0.00    +0.167 C 
ATOM      9  C   UNL     1     -31.393  29.355   5.247  0.00  0.00    +0.212 C 
ATOM     10  C   UNL     1     -31.869  28.994   3.009  0.00  0.00    +0.199 C 
ATOM     11  H   UNL     1     -32.104  28.930   0.935  0.00  0.00    +0.156 HD
ATOM     12  H   UNL     1     -31.101  30.195   1.483  0.00  0.00    +0.156 HD
ATOM     13  N   UNL     1     -30.757  30.075   6.273  0.00  0.00    -0.331 N 
ATOM     14  H   UNL     1     -30.192  30.852   6.052  0.00  0.00    +0.145 HD
ATOM     15  H   UNL     1     -30.874  29.804   7.211  0.00  0.00    +0.145 HD
ENDROOT
BRANCH   1  19
ATOM     16  F   UNL     1     -36.220  26.706   5.180  0.00  0.00    -0.197 F 
ATOM     17  F   UNL     1     -35.982  26.674   3.009  0.00  0.00    -0.197 F 
ATOM     18  O   UNL     1     -34.285  24.338   5.016  0.00  0.00    -0.331 OA
ATOM     19  C   UNL     1     -34.306  25.598   4.311  0.00  0.00    +0.261 C 
ATOM     20  C   UNL     1     -36.438  24.628   4.103  0.00  0.00    +0.206 C 
ATOM     21  C   UNL     1     -35.767  25.976   4.138  0.00  0.00    +0.332 C 
ATOM     22  C   UNL     1     -35.642  23.879   5.158  0.00  0.00    +0.179 C 
BRANCH  20  23
ATOM     23  O   UNL     1     -37.809  24.697   4.434  0.00  0.00    -0.377 OA
ATOM     24  H   UNL     1     -38.292  25.140   3.718  0.00  0.00    +0.211 HD
ENDBRANCH  20  23
BRANCH  22  25
ATOM     25  C   UNL     1     -35.693  22.371   4.993  0.00  0.00    +0.169 C 
BRANCH  25  26
ATOM     26  O   UNL     1     -36.009  21.784   6.245  0.00  0.00    -0.379 OA
ATOM     27  H   UNL     1     -36.914  22.023   6.496  0.00  0.00    +0.211 HD
ENDBRANCH  25  26
ENDBRANCH  22  25
ENDBRANCH   1  19
TORSDOF 4
ENDMDL
MODEL 5
REMARK VINA RESULT:      -6.0      1.204      2.484
REMARK  Name = 21122687
REMARK  4 active torsions:
REMARK  status: ('A' for Active; 'I' for Inactive)
REMARK    1  A    between atoms: N_1  and  C_16
REMARK    2  A    between atoms: C_17  and  O_20
REMARK    3  A    between atoms: C_19  and  C_22
REMARK    4  A    between atoms: C_22  and  O_23
REMARK                            x       y       z     vdW  Elec       q    Type
REMARK                         _______ _______ _______ _____ _____    ______ ____
ROOT
ATOM      1  N   UNL     1     -35.974  23.248   2.938  0.00  0.00    -0.234 N 
ATOM      2  N   UNL     1     -37.006  21.397   2.246  0.00  0.00    -0.240 NA
ATOM      3  N   UNL     1     -37.885  24.730   3.168  0.00  0.00    -0.311 NA
ATOM      4  N   UNL     1     -39.963  23.596   2.575  0.00  0.00    -0.312 NA
ATOM      5  N   UNL     1     -39.946  25.833   3.266  0.00  0.00    -0.283 N 
ATOM      6  C   UNL     1     -37.303  23.557   2.876  0.00  0.00    +0.221 C 
ATOM      7  C   UNL     1     -35.847  21.941   2.550  0.00  0.00    +0.224 C 
ATOM      8  C   UNL     1     -37.926  22.397   2.446  0.00  0.00    +0.167 C 
ATOM      9  C   UNL     1     -39.308  22.442   2.297  0.00  0.00    +0.212 C 
ATOM     10  C   UNL     1     -39.222  24.652   2.987  0.00  0.00    +0.199 C 
ATOM     11  H   UNL     1     -39.473  26.641   3.570  0.00  0.00    +0.156 HD
ATOM     12  H   UNL     1     -40.924  25.849   3.157  0.00  0.00    +0.156 HD
ATOM     13  N   UNL     1     -40.022  21.311   1.866  0.00  0.00    -0.331 N 
ATOM     14  H   UNL     1     -41.001  21.355   1.765  0.00  0.00    +0.145 HD
ATOM     15  H   UNL     1     -39.544  20.474   1.666  0.00  0.00    +0.145 HD
ENDROOT
BRANCH   1  19
ATOM     16  F   UNL     1     -35.933  24.272   5.467  0.00  0.00    -0.197 F 
ATOM     17  F   UNL     1     -33.927  23.411   5.389  0.00  0.00    -0.197 F 
ATOM     18  O   UNL     1     -35.087  25.448   2.768  0.00  0.00    -0.331 OA
ATOM     19  C   UNL     1     -34.888  24.136   3.337  0.00  0.00    +0.261 C 
ATOM     20  C   UNL     1     -34.161  25.716   4.919  0.00  0.00    +0.206 C 
ATOM     21  C   UNL     1     -34.740  24.328   4.836  0.00  0.00    +0.332 C 
ATOM     22  C   UNL     1     -34.936  26.421   3.819  0.00  0.00    +0.179 C 
BRANCH  20  23
ATOM     23  O   UNL     1     -34.375  26.318   6.178  0.00  0.00    -0.377 OA
ATOM     24  H   UNL     1     -34.577  25.632   6.834  0.00  0.00    +0.211 HD
ENDBRANCH  20  23
BRANCH  22  25
ATOM     25  C   UNL     1     -34.232  27.653   3.279  0.00  0.00    +0.169 C 
BRANCH  25  26
ATOM     26  O   UNL     1     -33.493  28.255   4.329  0.00  0.00    -0.379 OA
ATOM     27  H   UNL     1     -32.546  28.100   4.189  0.00  0.00    +0.211 HD
ENDBRANCH  25  26
ENDBRANCH  22  25
ENDBRANCH   1  19
TORSDOF 4
ENDMDL
MODEL 6
REMARK VINA RESULT:      -6.0      4.466      6.568
REMARK  Name = 21122687
REMARK  4 active torsions:
REMARK  status: ('A' for Active; 'I' for Inactive)
REMARK    1  A    between atoms: N_1  and  C_16
REMARK    2  A    between atoms: C_17  and  O_20
REMARK    3  A    between atoms: C_19  and  C_22
REMARK    4  A    between atoms: C_22  and  O_23
REMARK                            x       y       z     vdW  Elec       q    Type
REMARK                         _______ _______ _______ _____ _____    ______ ____
ROOT
ATOM      1  N   UNL     1     -36.528  21.657   2.252  0.00  0.00    -0.234 N 
ATOM      2  N   UNL     1     -37.209  23.774   2.088  0.00  0.00    -0.240 NA
ATOM      3  N   UNL     1     -35.664  21.672   4.522  0.00  0.00    -0.311 NA
ATOM      4  N   UNL     1     -35.915  23.871   5.551  0.00  0.00    -0.312 NA
ATOM      5  N   UNL     1     -34.949  22.081   6.712  0.00  0.00    -0.283 N 
ATOM      6  C   UNL     1     -36.240  22.241   3.452  0.00  0.00    +0.221 C 
ATOM      7  C   UNL     1     -37.108  22.618   1.466  0.00  0.00    +0.224 C 
ATOM      8  C   UNL     1     -36.670  23.553   3.331  0.00  0.00    +0.167 C 
ATOM      9  C   UNL     1     -36.490  24.379   4.434  0.00  0.00    +0.212 C 
ATOM     10  C   UNL     1     -35.544  22.569   5.526  0.00  0.00    +0.199 C 
ATOM     11  H   UNL     1     -34.655  21.143   6.766  0.00  0.00    +0.156 HD
ATOM     12  H   UNL     1     -34.830  22.679   7.485  0.00  0.00    +0.156 HD
ATOM     13  N   UNL     1     -36.898  25.724   4.399  0.00  0.00    -0.331 N 
ATOM     14  H   UNL     1     -36.766  26.300   5.188  0.00  0.00    +0.145 HD
ATOM     15  H   UNL     1     -37.316  26.091   3.587  0.00  0.00    +0.145 HD
ENDROOT
BRANCH   1  19
ATOM     16  F   UNL     1     -34.388  21.081   0.659  0.00  0.00    -0.197 F 
ATOM     17  F   UNL     1     -34.002  19.698   2.305  0.00  0.00    -0.197 F 
ATOM     18  O   UNL     1     -37.193  19.865   0.838  0.00  0.00    -0.331 OA
ATOM     19  C   UNL     1     -36.269  20.274   1.868  0.00  0.00    +0.261 C 
ATOM     20  C   UNL     1     -35.109  18.860   0.391  0.00  0.00    +0.206 C 
ATOM     21  C   UNL     1     -34.873  20.013   1.330  0.00  0.00    +0.332 C 
ATOM     22  C   UNL     1     -36.439  19.255  -0.227  0.00  0.00    +0.179 C 
BRANCH  20  23
ATOM     23  O   UNL     1     -34.095  18.739  -0.584  0.00  0.00    -0.377 OA
ATOM     24  H   UNL     1     -33.713  19.614  -0.763  0.00  0.00    +0.211 HD
ENDBRANCH  20  23
BRANCH  22  25
ATOM     25  C   UNL     1     -37.213  18.079  -0.795  0.00  0.00    +0.169 C 
BRANCH  25  26
ATOM     26  O   UNL     1     -37.522  17.181   0.259  0.00  0.00    -0.379 OA
ATOM     27  H   UNL     1     -37.726  17.684   1.063  0.00  0.00    +0.211 HD
ENDBRANCH  25  26
ENDBRANCH  22  25
ENDBRANCH   1  19
TORSDOF 4
ENDMDL
MODEL 7
REMARK VINA RESULT:      -5.9      1.726      3.017
REMARK  Name = 21122687
REMARK  4 active torsions:
REMARK  status: ('A' for Active; 'I' for Inactive)
REMARK    1  A    between atoms: N_1  and  C_16
REMARK    2  A    between atoms: C_17  and  O_20
REMARK    3  A    between atoms: C_19  and  C_22
REMARK    4  A    between atoms: C_22  and  O_23
REMARK                            x       y       z     vdW  Elec       q    Type
REMARK                         _______ _______ _______ _____ _____    ______ ____
ROOT
ATOM      1  N   UNL     1     -36.526  23.164   3.457  0.00  0.00    -0.234 N 
ATOM      2  N   UNL     1     -35.907  21.237   2.523  0.00  0.00    -0.240 NA
ATOM      3  N   UNL     1     -38.749  23.394   2.504  0.00  0.00    -0.311 NA
ATOM      4  N   UNL     1     -39.282  21.519   1.036  0.00  0.00    -0.312 NA
ATOM      5  N   UNL     1     -40.807  23.259   1.400  0.00  0.00    -0.283 N 
ATOM      6  C   UNL     1     -37.576  22.766   2.680  0.00  0.00    +0.221 C 
ATOM      7  C   UNL     1     -35.548  22.214   3.329  0.00  0.00    +0.224 C 
ATOM      8  C   UNL     1     -37.174  21.569   2.111  0.00  0.00    +0.167 C 
ATOM      9  C   UNL     1     -38.077  20.941   1.260  0.00  0.00    +0.212 C 
ATOM     10  C   UNL     1     -39.539  22.692   1.662  0.00  0.00    +0.199 C 
ATOM     11  H   UNL     1     -41.063  24.111   1.822  0.00  0.00    +0.156 HD
ATOM     12  H   UNL     1     -41.436  22.801   0.796  0.00  0.00    +0.156 HD
ATOM     13  N   UNL     1     -37.751  19.723   0.639  0.00  0.00    -0.331 N 
ATOM     14  H   UNL     1     -38.400  19.287   0.039  0.00  0.00    +0.145 HD
ATOM     15  H   UNL     1     -36.876  19.304   0.804  0.00  0.00    +0.145 HD
ENDROOT
BRANCH   1  19
ATOM     16  F   UNL     1     -35.919  25.547   2.273  0.00  0.00    -0.197 F 
ATOM     17  F   UNL     1     -37.757  26.111   3.308  0.00  0.00    -0.197 F 
ATOM     18  O   UNL     1     -35.215  24.388   5.019  0.00  0.00    -0.331 OA
ATOM     19  C   UNL     1     -36.449  24.373   4.270  0.00  0.00    +0.261 C 
ATOM     20  C   UNL     1     -35.699  26.599   4.363  0.00  0.00    +0.206 C 
ATOM     21  C   UNL     1     -36.499  25.672   3.486  0.00  0.00    +0.332 C 
ATOM     22  C   UNL     1     -34.590  25.672   4.832  0.00  0.00    +0.179 C 
BRANCH  20  23
ATOM     23  O   UNL     1     -35.188  27.708   3.655  0.00  0.00    -0.377 OA
ATOM     24  H   UNL     1     -34.416  27.432   3.135  0.00  0.00    +0.211 HD
ENDBRANCH  20  23
BRANCH  22  25
ATOM     25  C   UNL     1     -33.938  26.118   6.127  0.00  0.00    +0.169 C 
BRANCH  25  26
ATOM     26  O   UNL     1     -33.207  27.309   5.886  0.00  0.00    -0.379 OA
ATOM     27  H   UNL     1     -32.263  27.146   6.037  0.00  0.00    +0.211 HD
ENDBRANCH  25  26
ENDBRANCH  22  25
ENDBRANCH   1  19
TORSDOF 4
ENDMDL
MODEL 8
REMARK VINA RESULT:      -5.9      3.666      6.089
REMARK  Name = 21122687
REMARK  4 active torsions:
REMARK  status: ('A' for Active; 'I' for Inactive)
REMARK    1  A    between atoms: N_1  and  C_16
REMARK    2  A    between atoms: C_17  and  O_20
REMARK    3  A    between atoms: C_19  and  C_22
REMARK    4  A    between atoms: C_22  and  O_23
REMARK                            x       y       z     vdW  Elec       q    Type
REMARK                         _______ _______ _______ _____ _____    ______ ____
ROOT
ATOM      1  N   UNL     1     -37.114  24.355   2.162  0.00  0.00    -0.234 N 
ATOM      2  N   UNL     1     -36.239  26.258   2.925  0.00  0.00    -0.240 NA
ATOM      3  N   UNL     1     -36.564  22.874   4.008  0.00  0.00    -0.311 NA
ATOM      4  N   UNL     1     -35.370  24.064   5.773  0.00  0.00    -0.312 NA
ATOM      5  N   UNL     1     -35.866  21.782   5.956  0.00  0.00    -0.283 N 
ATOM      6  C   UNL     1     -36.574  24.061   3.382  0.00  0.00    +0.221 C 
ATOM      7  C   UNL     1     -36.886  25.686   1.932  0.00  0.00    +0.224 C 
ATOM      8  C   UNL     1     -36.038  25.254   3.839  0.00  0.00    +0.167 C 
ATOM      9  C   UNL     1     -35.417  25.229   5.083  0.00  0.00    +0.212 C 
ATOM     10  C   UNL     1     -35.938  22.975   5.201  0.00  0.00    +0.199 C 
ATOM     11  H   UNL     1     -36.258  20.951   5.603  0.00  0.00    +0.156 HD
ATOM     12  H   UNL     1     -35.424  21.782   6.836  0.00  0.00    +0.156 HD
ATOM     13  N   UNL     1     -34.846  26.395   5.625  0.00  0.00    -0.331 N 
ATOM     14  H   UNL     1     -34.410  26.365   6.507  0.00  0.00    +0.145 HD
ATOM     15  H   UNL     1     -34.883  27.240   5.122  0.00  0.00    +0.145 HD
ENDROOT
BRANCH   1  19
ATOM     16  F   UNL     1     -39.389  23.105   3.002  0.00  0.00    -0.197 F 
ATOM     17  F   UNL     1     -40.116  23.967   1.131  0.00  0.00    -0.197 F 
ATOM     18  O   UNL     1     -37.089  22.178   1.205  0.00  0.00    -0.331 OA
ATOM     19  C   UNL     1     -37.801  23.433   1.265  0.00  0.00    +0.261 C 
ATOM     20  C   UNL     1     -39.397  21.714   1.107  0.00  0.00    +0.206 C 
ATOM     21  C   UNL     1     -39.230  23.105   1.661  0.00  0.00    +0.332 C 
ATOM     22  C   UNL     1     -38.036  21.113   1.411  0.00  0.00    +0.179 C 
BRANCH  20  23
ATOM     23  O   UNL     1     -40.437  21.000   1.741  0.00  0.00    -0.377 OA
ATOM     24  H   UNL     1     -40.134  20.691   2.610  0.00  0.00    +0.211 HD
ENDBRANCH  20  23
BRANCH  22  25
ATOM     25  C   UNL     1     -37.684  19.935   0.522  0.00  0.00    +0.169 C 
BRANCH  25  26
ATOM     26  O   UNL     1     -38.861  19.482  -0.126  0.00  0.00    -0.379 OA
ATOM     27  H   UNL     1     -38.622  19.000  -0.932  0.00  0.00    +0.211 HD
ENDBRANCH  25  26
ENDBRANCH  22  25
ENDBRANCH   1  19
TORSDOF 4
ENDMDL
MODEL 9
REMARK VINA RESULT:      -5.9      4.410      6.919
REMARK  Name = 21122687
REMARK  4 active torsions:
REMARK  status: ('A' for Active; 'I' for Inactive)
REMARK    1  A    between atoms: N_1  and  C_16
REMARK    2  A    between atoms: C_17  and  O_20
REMARK    3  A    between atoms: C_19  and  C_22
REMARK    4  A    between atoms: C_22  and  O_23
REMARK                            x       y       z     vdW  Elec       q    Type
REMARK                         _______ _______ _______ _____ _____    ______ ____
ROOT
ATOM      1  N   UNL     1     -37.079  21.758   2.176  0.00  0.00    -0.234 N 
ATOM      2  N   UNL     1     -35.641  20.658   3.476  0.00  0.00    -0.240 NA
ATOM      3  N   UNL     1     -37.236  23.849   3.405  0.00  0.00    -0.311 NA
ATOM      4  N   UNL     1     -35.829  23.813   5.398  0.00  0.00    -0.312 NA
ATOM      5  N   UNL     1     -37.120  25.687   4.846  0.00  0.00    -0.283 N 
ATOM      6  C   UNL     1     -36.774  22.605   3.203  0.00  0.00    +0.221 C 
ATOM      7  C   UNL     1     -36.375  20.602   2.385  0.00  0.00    +0.224 C 
ATOM      8  C   UNL     1     -35.881  21.905   3.998  0.00  0.00    +0.167 C 
ATOM      9  C   UNL     1     -35.405  22.554   5.132  0.00  0.00    +0.212 C 
ATOM     10  C   UNL     1     -36.705  24.373   4.530  0.00  0.00    +0.199 C 
ATOM     11  H   UNL     1     -37.756  26.158   4.260  0.00  0.00    +0.156 HD
ATOM     12  H   UNL     1     -36.772  26.133   5.652  0.00  0.00    +0.156 HD
ATOM     13  N   UNL     1     -34.495  21.918   5.995  0.00  0.00    -0.331 N 
ATOM     14  H   UNL     1     -34.164  22.388   6.795  0.00  0.00    +0.145 HD
ATOM     15  H   UNL     1     -34.187  21.004   5.799  0.00  0.00    +0.145 HD
ENDROOT
BRANCH   1  19
ATOM     16  F   UNL     1     -39.708  21.056   2.384  0.00  0.00    -0.197 F 
ATOM     17  F   UNL     1     -39.934  23.156   1.827  0.00  0.00    -0.197 F 
ATOM     18  O   UNL     1     -37.772  21.060   0.011  0.00  0.00    -0.331 OA
ATOM     19  C   UNL     1     -37.985  22.024   1.064  0.00  0.00    +0.261 C 
ATOM     20  C   UNL     1     -40.078  21.534   0.112  0.00  0.00    +0.206 C 
ATOM     21  C   UNL     1     -39.461  21.966   1.417  0.00  0.00    +0.332 C 
ATOM     22  C   UNL     1     -39.052  20.526  -0.376  0.00  0.00    +0.179 C 
BRANCH  20  23
ATOM     23  O   UNL     1     -41.349  20.944   0.284  0.00  0.00    -0.377 OA
ATOM     24  H   UNL     1     -42.014  21.463  -0.198  0.00  0.00    +0.211 HD
ENDBRANCH  20  23
BRANCH  22  25
ATOM     25  C   UNL     1     -39.085  20.311  -1.878  0.00  0.00    +0.169 C 
BRANCH  25  26
ATOM     26  O   UNL     1     -39.180  21.572  -2.520  0.00  0.00    -0.379 OA
ATOM     27  H   UNL     1     -39.686  22.182  -1.961  0.00  0.00    +0.211 HD
ENDBRANCH  25  26
ENDBRANCH  22  25
ENDBRANCH   1  19
TORSDOF 4
ENDMDL
