MODEL 1
REMARK VINA RESULT:      -6.0      0.000      0.000
REMARK  Name = 5329
REMARK  3 active torsions:
REMARK  status: ('A' for Active; 'I' for Inactive)
REMARK    1  A    between atoms: S_1  and  N_5
REMARK    2  A    between atoms: S_1  and  C_12
REMARK    3  A    between atoms: C_15  and  N_18
REMARK                            x       y       z     vdW  Elec       q    Type
REMARK                         _______ _______ _______ _____ _____    ______ ____
ROOT
ATOM      1  S   UNL     1     -35.705  20.965   1.809  0.00  0.00    +0.075 S 
ATOM      2  O   UNL     1     -36.640  19.848   1.867  0.00  0.00    -0.150 OA
ATOM      3  O   UNL     1     -36.065  22.143   1.029  0.00  0.00    -0.150 OA
ENDROOT
BRANCH   1   5
ATOM      4  O   UNL     1     -37.221  24.292   4.244  0.00  0.00    -0.356 OA
ATOM      5  N   UNL     1     -35.334  21.435   3.425  0.00  0.00    -0.196 N 
ATOM      6  N   UNL     1     -37.087  23.076   3.582  0.00  0.00    -0.061 NA
ATOM      7  C   UNL     1     -35.876  22.676   3.910  0.00  0.00    +0.189 C 
ATOM      8  C   UNL     1     -35.185  23.535   4.748  0.00  0.00    +0.074 C 
ATOM      9  C   UNL     1     -36.082  24.553   4.934  0.00  0.00    +0.156 C 
ATOM     10  C   UNL     1     -36.051  25.808   5.697  0.00  0.00    +0.075 C 
ATOM     11  H   UNL     1     -34.768  20.871   3.999  0.00  0.00    +0.175 HD
ENDBRANCH   1   5
BRANCH   1  12
ATOM     12  C   UNL     1     -34.178  20.352   1.224  0.00  0.00    +0.125 C 
ATOM     13  C   UNL     1     -33.736  19.089   1.619  0.00  0.00    +0.021 C 
ATOM     14  C   UNL     1     -33.400  21.126   0.362  0.00  0.00    +0.021 C 
ATOM     15  C   UNL     1     -31.739  19.373   0.290  0.00  0.00    +0.042 C 
ATOM     16  C   UNL     1     -32.517  18.600   1.152  0.00  0.00    +0.015 C 
ATOM     17  C   UNL     1     -32.181  20.635  -0.104  0.00  0.00    +0.015 C 
BRANCH  15  18
ATOM     18  N   UNL     1     -30.506  18.876  -0.183  0.00  0.00    -0.357 N 
ATOM     19  H   UNL     1     -29.884  19.473  -0.657  0.00  0.00    +0.142 HD
ATOM     20  H   UNL     1     -30.269  17.931  -0.039  0.00  0.00    +0.142 HD
ENDBRANCH  15  18
ENDBRANCH   1  12
TORSDOF 3
ENDMDL
MODEL 2
REMARK VINA RESULT:      -5.9      1.368      1.701
REMARK  Name = 5329
REMARK  3 active torsions:
REMARK  status: ('A' for Active; 'I' for Inactive)
REMARK    1  A    between atoms: S_1  and  N_5
REMARK    2  A    between atoms: S_1  and  C_12
REMARK    3  A    between atoms: C_15  and  N_18
REMARK                            x       y       z     vdW  Elec       q    Type
REMARK                         _______ _______ _______ _____ _____    ______ ____
ROOT
ATOM      1  S   UNL     1     -36.434  21.160   1.610  0.00  0.00    +0.075 S 
ATOM      2  O   UNL     1     -37.797  20.643   1.650  0.00  0.00    -0.150 OA
ATOM      3  O   UNL     1     -36.144  22.313   0.766  0.00  0.00    -0.150 OA
ENDROOT
BRANCH   1   5
ATOM      4  O   UNL     1     -37.348  24.553   4.245  0.00  0.00    -0.356 OA
ATOM      5  N   UNL     1     -35.942  21.490   3.228  0.00  0.00    -0.196 N 
ATOM      6  N   UNL     1     -37.422  23.365   3.527  0.00  0.00    -0.061 NA
ATOM      7  C   UNL     1     -36.274  22.773   3.788  0.00  0.00    +0.189 C 
ATOM      8  C   UNL     1     -35.433  23.478   4.633  0.00  0.00    +0.074 C 
ATOM      9  C   UNL     1     -36.160  24.608   4.898  0.00  0.00    +0.156 C 
ATOM     10  C   UNL     1     -35.915  25.806   5.713  0.00  0.00    +0.075 C 
ATOM     11  H   UNL     1     -35.448  20.821   3.754  0.00  0.00    +0.175 HD
ENDBRANCH   1   5
BRANCH   1  12
ATOM     12  C   UNL     1     -35.381  19.847   1.146  0.00  0.00    +0.125 C 
ATOM     13  C   UNL     1     -34.133  19.705   1.752  0.00  0.00    +0.021 C 
ATOM     14  C   UNL     1     -35.788  18.939   0.167  0.00  0.00    +0.021 C 
ATOM     15  C   UNL     1     -33.699  17.749   0.403  0.00  0.00    +0.042 C 
ATOM     16  C   UNL     1     -33.293  18.656   1.382  0.00  0.00    +0.015 C 
ATOM     17  C   UNL     1     -34.947  17.891  -0.203  0.00  0.00    +0.015 C 
BRANCH  15  18
ATOM     18  N   UNL     1     -32.848  16.688   0.029  0.00  0.00    -0.357 N 
ATOM     19  H   UNL     1     -32.134  16.392   0.637  0.00  0.00    +0.142 HD
ATOM     20  H   UNL     1     -32.970  16.243  -0.842  0.00  0.00    +0.142 HD
ENDBRANCH  15  18
ENDBRANCH   1  12
TORSDOF 3
ENDMDL
MODEL 3
REMARK VINA RESULT:      -5.9      1.371      1.696
REMARK  Name = 5329
REMARK  3 active torsions:
REMARK  status: ('A' for Active; 'I' for Inactive)
REMARK    1  A    between atoms: S_1  and  N_5
REMARK    2  A    between atoms: S_1  and  C_12
REMARK    3  A    between atoms: C_15  and  N_18
REMARK                            x       y       z     vdW  Elec       q    Type
REMARK                         _______ _______ _______ _____ _____    ______ ____
ROOT
ATOM      1  S   UNL     1     -36.454  21.164   1.620  0.00  0.00    +0.075 S 
ATOM      2  O   UNL     1     -37.815  20.643   1.669  0.00  0.00    -0.150 OA
ATOM      3  O   UNL     1     -36.173  22.317   0.774  0.00  0.00    -0.150 OA
ENDROOT
BRANCH   1   5
ATOM      4  O   UNL     1     -37.356  24.563   4.253  0.00  0.00    -0.356 OA
ATOM      5  N   UNL     1     -35.953  21.499   3.235  0.00  0.00    -0.196 N 
ATOM      6  N   UNL     1     -37.433  23.373   3.538  0.00  0.00    -0.061 NA
ATOM      7  C   UNL     1     -36.284  22.782   3.794  0.00  0.00    +0.189 C 
ATOM      8  C   UNL     1     -35.439  23.490   4.633  0.00  0.00    +0.074 C 
ATOM      9  C   UNL     1     -36.165  24.620   4.900  0.00  0.00    +0.156 C 
ATOM     10  C   UNL     1     -35.916  25.819   5.710  0.00  0.00    +0.075 C 
ATOM     11  H   UNL     1     -35.456  20.830   3.761  0.00  0.00    +0.175 HD
ENDBRANCH   1   5
BRANCH   1  12
ATOM     12  C   UNL     1     -35.399  19.855   1.152  0.00  0.00    +0.125 C 
ATOM     13  C   UNL     1     -35.803  18.949   0.172  0.00  0.00    +0.021 C 
ATOM     14  C   UNL     1     -34.150  19.714   1.759  0.00  0.00    +0.021 C 
ATOM     15  C   UNL     1     -33.712  17.762   0.404  0.00  0.00    +0.042 C 
ATOM     16  C   UNL     1     -34.960  17.903  -0.202  0.00  0.00    +0.015 C 
ATOM     17  C   UNL     1     -33.308  18.668   1.385  0.00  0.00    +0.015 C 
BRANCH  15  18
ATOM     18  N   UNL     1     -32.859  16.705   0.025  0.00  0.00    -0.357 N 
ATOM     19  H   UNL     1     -32.297  16.789  -0.778  0.00  0.00    +0.142 HD
ATOM     20  H   UNL     1     -32.827  15.881   0.564  0.00  0.00    +0.142 HD
ENDBRANCH  15  18
ENDBRANCH   1  12
TORSDOF 3
ENDMDL
MODEL 4
REMARK VINA RESULT:      -5.8      3.578      4.636
REMARK  Name = 5329
REMARK  3 active torsions:
REMARK  status: ('A' for Active; 'I' for Inactive)
REMARK    1  A    between atoms: S_1  and  N_5
REMARK    2  A    between atoms: S_1  and  C_12
REMARK    3  A    between atoms: C_15  and  N_18
REMARK                            x       y       z     vdW  Elec       q    Type
REMARK                         _______ _______ _______ _____ _____    ______ ____
ROOT
ATOM      1  S   UNL     1     -36.088  23.655   4.549  0.00  0.00    +0.075 S 
ATOM      2  O   UNL     1     -35.938  23.008   5.847  0.00  0.00    -0.150 OA
ATOM      3  O   UNL     1     -37.061  24.732   4.410  0.00  0.00    -0.150 OA
ENDROOT
BRANCH   1   5
ATOM      4  O   UNL     1     -33.638  27.000   5.998  0.00  0.00    -0.356 OA
ATOM      5  N   UNL     1     -34.536  24.211   4.047  0.00  0.00    -0.196 N 
ATOM      6  N   UNL     1     -34.264  25.766   5.863  0.00  0.00    -0.061 NA
ATOM      7  C   UNL     1     -34.045  25.442   4.606  0.00  0.00    +0.189 C 
ATOM      8  C   UNL     1     -33.313  26.370   3.884  0.00  0.00    +0.074 C 
ATOM      9  C   UNL     1     -33.076  27.348   4.813  0.00  0.00    +0.156 C 
ATOM     10  C   UNL     1     -32.367  28.634   4.776  0.00  0.00    +0.075 C 
ATOM     11  H   UNL     1     -34.001  23.701   3.397  0.00  0.00    +0.175 HD
ENDBRANCH   1   5
BRANCH   1  12
ATOM     12  C   UNL     1     -36.453  22.416   3.375  0.00  0.00    +0.125 C 
ATOM     13  C   UNL     1     -37.627  22.487   2.626  0.00  0.00    +0.021 C 
ATOM     14  C   UNL     1     -35.570  21.352   3.187  0.00  0.00    +0.021 C 
ATOM     15  C   UNL     1     -37.036  20.434   1.500  0.00  0.00    +0.042 C 
ATOM     16  C   UNL     1     -37.919  21.498   1.688  0.00  0.00    +0.015 C 
ATOM     17  C   UNL     1     -35.862  20.362   2.249  0.00  0.00    +0.015 C 
BRANCH  15  18
ATOM     18  N   UNL     1     -37.330  19.433   0.550  0.00  0.00    -0.357 N 
ATOM     19  H   UNL     1     -38.197  19.435   0.086  0.00  0.00    +0.142 HD
ATOM     20  H   UNL     1     -36.667  18.732   0.353  0.00  0.00    +0.142 HD
ENDBRANCH  15  18
ENDBRANCH   1  12
TORSDOF 3
ENDMDL
MODEL 5
REMARK VINA RESULT:      -5.7      2.703      3.383
REMARK  Name = 5329
REMARK  3 active torsions:
REMARK  status: ('A' for Active; 'I' for Inactive)
REMARK    1  A    between atoms: S_1  and  N_5
REMARK    2  A    between atoms: S_1  and  C_12
REMARK    3  A    between atoms: C_15  and  N_18
REMARK                            x       y       z     vdW  Elec       q    Type
REMARK                         _______ _______ _______ _____ _____    ______ ____
ROOT
ATOM      1  S   UNL     1     -37.233  23.441   2.876  0.00  0.00    +0.075 S 
ATOM      2  O   UNL     1     -38.673  23.343   3.083  0.00  0.00    -0.150 OA
ATOM      3  O   UNL     1     -36.711  24.552   2.090  0.00  0.00    -0.150 OA
ENDROOT
BRANCH   1   5
ATOM      4  O   UNL     1     -35.377  26.670   5.203  0.00  0.00    -0.356 OA
ATOM      5  N   UNL     1     -36.469  23.417   4.420  0.00  0.00    -0.196 N 
ATOM      6  N   UNL     1     -36.296  25.809   4.615  0.00  0.00    -0.061 NA
ATOM      7  C   UNL     1     -35.806  24.613   4.866  0.00  0.00    +0.189 C 
ATOM      8  C   UNL     1     -34.622  24.607   5.584  0.00  0.00    +0.074 C 
ATOM      9  C   UNL     1     -34.385  25.942   5.777  0.00  0.00    +0.156 C 
ATOM     10  C   UNL     1     -33.322  26.699   6.450  0.00  0.00    +0.075 C 
ATOM     11  H   UNL     1     -36.486  22.608   4.981  0.00  0.00    +0.175 HD
ENDBRANCH   1   5
BRANCH   1  12
ATOM     12  C   UNL     1     -36.696  21.944   2.155  0.00  0.00    +0.125 C 
ATOM     13  C   UNL     1     -35.435  21.434   2.463  0.00  0.00    +0.021 C 
ATOM     14  C   UNL     1     -37.529  21.258   1.270  0.00  0.00    +0.021 C 
ATOM     15  C   UNL     1     -35.839  19.553   1.002  0.00  0.00    +0.042 C 
ATOM     16  C   UNL     1     -35.007  20.238   1.888  0.00  0.00    +0.015 C 
ATOM     17  C   UNL     1     -37.099  20.063   0.694  0.00  0.00    +0.015 C 
BRANCH  15  18
ATOM     18  N   UNL     1     -35.405  18.343   0.421  0.00  0.00    -0.357 N 
ATOM     19  H   UNL     1     -35.124  17.594   0.994  0.00  0.00    +0.142 HD
ATOM     20  H   UNL     1     -35.384  18.248  -0.559  0.00  0.00    +0.142 HD
ENDBRANCH  15  18
ENDBRANCH   1  12
TORSDOF 3
ENDMDL
MODEL 6
REMARK VINA RESULT:      -5.7      4.259      6.021
REMARK  Name = 5329
REMARK  3 active torsions:
REMARK  status: ('A' for Active; 'I' for Inactive)
REMARK    1  A    between atoms: S_1  and  N_5
REMARK    2  A    between atoms: S_1  and  C_12
REMARK    3  A    between atoms: C_15  and  N_18
REMARK                            x       y       z     vdW  Elec       q    Type
REMARK                         _______ _______ _______ _____ _____    ______ ____
ROOT
ATOM      1  S   UNL     1     -34.472  26.108   4.341  0.00  0.00    +0.075 S 
ATOM      2  O   UNL     1     -33.052  26.128   4.670  0.00  0.00    -0.150 OA
ATOM      3  O   UNL     1     -35.426  26.623   5.316  0.00  0.00    -0.150 OA
ENDROOT
BRANCH   1   5
ATOM      4  O   UNL     1     -34.587  30.398   3.408  0.00  0.00    -0.356 OA
ATOM      5  N   UNL     1     -34.684  26.926   2.839  0.00  0.00    -0.196 N 
ATOM      6  N   UNL     1     -34.159  29.109   3.704  0.00  0.00    -0.061 NA
ATOM      7  C   UNL     1     -34.836  28.356   2.863  0.00  0.00    +0.189 C 
ATOM      8  C   UNL     1     -35.689  29.047   2.018  0.00  0.00    +0.074 C 
ATOM      9  C   UNL     1     -35.497  30.348   2.402  0.00  0.00    +0.156 C 
ATOM     10  C   UNL     1     -36.057  31.631   1.959  0.00  0.00    +0.075 C 
ATOM     11  H   UNL     1     -34.700  26.429   1.989  0.00  0.00    +0.175 HD
ENDBRANCH   1   5
BRANCH   1  12
ATOM     12  C   UNL     1     -34.905  24.463   3.949  0.00  0.00    +0.125 C 
ATOM     13  C   UNL     1     -35.176  23.551   4.969  0.00  0.00    +0.021 C 
ATOM     14  C   UNL     1     -34.979  24.059   2.615  0.00  0.00    +0.021 C 
ATOM     15  C   UNL     1     -35.595  21.833   3.323  0.00  0.00    +0.042 C 
ATOM     16  C   UNL     1     -35.522  22.237   4.656  0.00  0.00    +0.015 C 
ATOM     17  C   UNL     1     -35.324  22.745   2.303  0.00  0.00    +0.015 C 
BRANCH  15  18
ATOM     18  N   UNL     1     -35.946  20.504   3.006  0.00  0.00    -0.357 N 
ATOM     19  H   UNL     1     -35.388  19.759   3.323  0.00  0.00    +0.142 HD
ATOM     20  H   UNL     1     -36.751  20.323   2.468  0.00  0.00    +0.142 HD
ENDBRANCH  15  18
ENDBRANCH   1  12
TORSDOF 3
ENDMDL
MODEL 7
REMARK VINA RESULT:      -5.6      2.553      6.305
REMARK  Name = 5329
REMARK  3 active torsions:
REMARK  status: ('A' for Active; 'I' for Inactive)
REMARK    1  A    between atoms: S_1  and  N_5
REMARK    2  A    between atoms: S_1  and  C_12
REMARK    3  A    between atoms: C_15  and  N_18
REMARK                            x       y       z     vdW  Elec       q    Type
REMARK                         _______ _______ _______ _____ _____    ______ ____
ROOT
ATOM      1  S   UNL     1     -35.745  22.887   3.837  0.00  0.00    +0.075 S 
ATOM      2  O   UNL     1     -37.161  23.212   3.711  0.00  0.00    -0.150 OA
ATOM      3  O   UNL     1     -35.346  21.835   4.764  0.00  0.00    -0.150 OA
ENDROOT
BRANCH   1   5
ATOM      4  O   UNL     1     -36.402  19.414   1.231  0.00  0.00    -0.356 OA
ATOM      5  N   UNL     1     -35.138  22.532   2.264  0.00  0.00    -0.196 N 
ATOM      6  N   UNL     1     -36.551  20.616   1.913  0.00  0.00    -0.061 NA
ATOM      7  C   UNL     1     -35.402  21.229   1.715  0.00  0.00    +0.189 C 
ATOM      8  C   UNL     1     -34.490  20.526   0.946  0.00  0.00    +0.074 C 
ATOM      9  C   UNL     1     -35.171  19.372   0.659  0.00  0.00    +0.156 C 
ATOM     10  C   UNL     1     -34.844  18.163  -0.107  0.00  0.00    +0.075 C 
ATOM     11  H   UNL     1     -34.625  23.201   1.756  0.00  0.00    +0.175 HD
ENDBRANCH   1   5
BRANCH   1  12
ATOM     12  C   UNL     1     -34.898  24.355   4.257  0.00  0.00    +0.125 C 
ATOM     13  C   UNL     1     -34.946  24.840   5.564  0.00  0.00    +0.021 C 
ATOM     14  C   UNL     1     -34.173  25.044   3.284  0.00  0.00    +0.021 C 
ATOM     15  C   UNL     1     -33.545  26.701   4.926  0.00  0.00    +0.042 C 
ATOM     16  C   UNL     1     -34.270  26.012   5.898  0.00  0.00    +0.015 C 
ATOM     17  C   UNL     1     -33.497  26.216   3.619  0.00  0.00    +0.015 C 
BRANCH  15  18
ATOM     18  N   UNL     1     -32.860  27.886   5.265  0.00  0.00    -0.357 N 
ATOM     19  H   UNL     1     -32.333  27.930   6.095  0.00  0.00    +0.142 HD
ATOM     20  H   UNL     1     -32.909  28.670   4.671  0.00  0.00    +0.142 HD
ENDBRANCH  15  18
ENDBRANCH   1  12
TORSDOF 3
ENDMDL
MODEL 8
REMARK VINA RESULT:      -5.6      2.458      6.170
REMARK  Name = 5329
REMARK  3 active torsions:
REMARK  status: ('A' for Active; 'I' for Inactive)
REMARK    1  A    between atoms: S_1  and  N_5
REMARK    2  A    between atoms: S_1  and  C_12
REMARK    3  A    between atoms: C_15  and  N_18
REMARK                            x       y       z     vdW  Elec       q    Type
REMARK                         _______ _______ _______ _____ _____    ______ ____
ROOT
ATOM      1  S   UNL     1     -37.474  23.959   3.009  0.00  0.00    +0.075 S 
ATOM      2  O   UNL     1     -37.275  24.152   1.577  0.00  0.00    -0.150 OA
ATOM      3  O   UNL     1     -38.770  24.289   3.588  0.00  0.00    -0.150 OA
ENDROOT
BRANCH   1   5
ATOM      4  O   UNL     1     -34.385  21.312   1.353  0.00  0.00    -0.356 OA
ATOM      5  N   UNL     1     -37.071  22.327   3.389  0.00  0.00    -0.196 N 
ATOM      6  N   UNL     1     -35.052  22.291   2.081  0.00  0.00    -0.061 NA
ATOM      7  C   UNL     1     -36.102  21.659   2.562  0.00  0.00    +0.189 C 
ATOM      8  C   UNL     1     -36.189  20.322   2.212  0.00  0.00    +0.074 C 
ATOM      9  C   UNL     1     -35.072  20.144   1.439  0.00  0.00    +0.156 C 
ATOM     10  C   UNL     1     -34.504  18.995   0.724  0.00  0.00    +0.075 C 
ATOM     11  H   UNL     1     -37.492  21.865   4.150  0.00  0.00    +0.175 HD
ENDBRANCH   1   5
BRANCH   1  12
ATOM     12  C   UNL     1     -36.239  24.866   3.845  0.00  0.00    +0.125 C 
ATOM     13  C   UNL     1     -35.755  24.419   5.074  0.00  0.00    +0.021 C 
ATOM     14  C   UNL     1     -35.736  26.041   3.283  0.00  0.00    +0.021 C 
ATOM     15  C   UNL     1     -34.266  26.318   5.180  0.00  0.00    +0.042 C 
ATOM     16  C   UNL     1     -34.769  25.144   5.741  0.00  0.00    +0.015 C 
ATOM     17  C   UNL     1     -34.750  26.766   3.952  0.00  0.00    +0.015 C 
BRANCH  15  18
ATOM     18  N   UNL     1     -33.267  27.050   5.855  0.00  0.00    -0.357 N 
ATOM     19  H   UNL     1     -33.329  27.188   6.827  0.00  0.00    +0.142 HD
ATOM     20  H   UNL     1     -32.507  27.425   5.352  0.00  0.00    +0.142 HD
ENDBRANCH  15  18
ENDBRANCH   1  12
TORSDOF 3
ENDMDL
MODEL 9
REMARK VINA RESULT:      -5.5      5.747      7.768
REMARK  Name = 5329
REMARK  3 active torsions:
REMARK  status: ('A' for Active; 'I' for Inactive)
REMARK    1  A    between atoms: S_1  and  N_5
REMARK    2  A    between atoms: S_1  and  C_12
REMARK    3  A    between atoms: C_15  and  N_18
REMARK                            x       y       z     vdW  Elec       q    Type
REMARK                         _______ _______ _______ _____ _____    ______ ____
ROOT
ATOM      1  S   UNL     1     -33.130  27.451   4.072  0.00  0.00    +0.075 S 
ATOM      2  O   UNL     1     -34.065  28.500   3.682  0.00  0.00    -0.150 OA
ATOM      3  O   UNL     1     -32.015  27.140   3.186  0.00  0.00    -0.150 OA
ENDROOT
BRANCH   1   5
ATOM      4  O   UNL     1     -30.011  30.266   5.351  0.00  0.00    -0.356 OA
ATOM      5  N   UNL     1     -32.532  27.826   5.644  0.00  0.00    -0.196 N 
ATOM      6  N   UNL     1     -31.213  29.709   4.930  0.00  0.00    -0.061 NA
ATOM      7  C   UNL     1     -31.383  28.687   5.743  0.00  0.00    +0.189 C 
ATOM      8  C   UNL     1     -30.380  28.516   6.683  0.00  0.00    +0.074 C 
ATOM      9  C   UNL     1     -29.525  29.546   6.395  0.00  0.00    +0.156 C 
ATOM     10  C   UNL     1     -28.252  30.000   6.968  0.00  0.00    +0.075 C 
ATOM     11  H   UNL     1     -32.963  27.463   6.451  0.00  0.00    +0.175 HD
ENDBRANCH   1   5
BRANCH   1  12
ATOM     12  C   UNL     1     -34.051  25.993   4.347  0.00  0.00    +0.125 C 
ATOM     13  C   UNL     1     -34.145  25.028   3.345  0.00  0.00    +0.021 C 
ATOM     14  C   UNL     1     -34.693  25.794   5.570  0.00  0.00    +0.021 C 
ATOM     15  C   UNL     1     -35.522  23.664   4.787  0.00  0.00    +0.042 C 
ATOM     16  C   UNL     1     -34.880  23.863   3.565  0.00  0.00    +0.015 C 
ATOM     17  C   UNL     1     -35.428  24.630   5.789  0.00  0.00    +0.015 C 
BRANCH  15  18
ATOM     18  N   UNL     1     -36.265  22.486   5.009  0.00  0.00    -0.357 N 
ATOM     19  H   UNL     1     -35.825  21.690   5.385  0.00  0.00    +0.142 HD
ATOM     20  H   UNL     1     -37.224  22.460   4.788  0.00  0.00    +0.142 HD
ENDBRANCH  15  18
ENDBRANCH   1  12
TORSDOF 3
ENDMDL
