MODEL 1
REMARK VINA RESULT:      -5.9      0.000      0.000
REMARK  Name = 54720864
REMARK  5 active torsions:
REMARK  status: ('A' for Active; 'I' for Inactive)
REMARK    1  A    between atoms: C_4  and  N_13
REMARK    2  A    between atoms: C_5  and  C_19
REMARK    3  A    between atoms: C_6  and  O_20
REMARK    4  A    between atoms: C_8  and  O_22
REMARK    5  A    between atoms: C_10  and  O_24
REMARK                            x       y       z     vdW  Elec       q    Type
REMARK                         _______ _______ _______ _____ _____    ______ ____
ROOT
ATOM      1  O   UNL     1     -35.059  23.193   3.459  0.00  0.00    -0.452 OA
ATOM      2  O   UNL     1     -35.990  21.169   3.225  0.00  0.00    -0.245 OA
ATOM      3  C   UNL     1     -37.599  24.517   3.292  0.00  0.00    +0.044 C 
ATOM      4  C   UNL     1     -36.286  25.302   3.083  0.00  0.00    -0.019 C 
ATOM      5  C   UNL     1     -35.137  24.594   3.836  0.00  0.00    +0.147 C 
ATOM      6  C   UNL     1     -38.806  25.189   2.596  0.00  0.00    +0.140 C 
ATOM      7  C   UNL     1     -37.429  23.059   2.940  0.00  0.00    +0.083 C 
ATOM      8  C   UNL     1     -40.041  24.294   2.681  0.00  0.00    +0.145 C 
ATOM      9  C   UNL     1     -39.771  22.935   2.038  0.00  0.00    +0.095 C 
ATOM     10  C   UNL     1     -38.420  22.353   2.355  0.00  0.00    +0.116 C 
ATOM     11  C   UNL     1     -36.127  22.388   3.228  0.00  0.00    +0.340 C 
ATOM     12  C   UNL     1     -33.762  25.206   3.521  0.00  0.00    +0.044 C 
ENDROOT
BRANCH   4  13
ATOM     13  N   UNL     1     -36.007  25.444   1.646  0.00  0.00    +0.384 N 
ATOM     14  H   UNL     1     -36.887  25.475   1.130  0.00  0.00    -0.089 HD
ATOM     15  H   UNL     1     -35.454  24.648   1.326  0.00  0.00    -0.089 HD
ATOM     16  H   UNL     1     -35.486  26.306   1.484  0.00  0.00    -0.089 HD
ENDBRANCH   4  13
BRANCH   5  19
ATOM     17 CL   UNL     1     -34.310  25.918   6.050  0.00  0.00    -0.093 Cl
ATOM     18 CL   UNL     1     -34.912  23.069   6.064  0.00  0.00    -0.093 Cl
ATOM     19  C   UNL     1     -35.327  24.642   5.363  0.00  0.00    +0.193 C 
ENDBRANCH   5  19
BRANCH   6  20
ATOM     20  O   UNL     1     -39.079  26.425   3.261  0.00  0.00    -0.382 OA
ATOM     21  H   UNL     1     -39.910  26.349   3.756  0.00  0.00    +0.210 HD
ENDBRANCH   6  20
BRANCH   8  22
ATOM     22  O   UNL     1     -41.117  24.929   1.992  0.00  0.00    -0.382 OA
ATOM     23  H   UNL     1     -41.913  24.380   2.059  0.00  0.00    +0.210 HD
ENDBRANCH   8  22
BRANCH  10  24
ATOM     24  O   UNL     1     -38.268  21.031   1.983  0.00  0.00    -0.510 OA
ATOM     25  H   UNL     1     -38.582  20.738   1.150  0.00  0.00    +0.292 HD
ENDBRANCH  10  24
TORSDOF 5
ENDMDL
MODEL 2
REMARK VINA RESULT:      -5.8      3.348      4.601
REMARK  Name = 54720864
REMARK  5 active torsions:
REMARK  status: ('A' for Active; 'I' for Inactive)
REMARK    1  A    between atoms: C_4  and  N_13
REMARK    2  A    between atoms: C_5  and  C_19
REMARK    3  A    between atoms: C_6  and  O_20
REMARK    4  A    between atoms: C_8  and  O_22
REMARK    5  A    between atoms: C_10  and  O_24
REMARK                            x       y       z     vdW  Elec       q    Type
REMARK                         _______ _______ _______ _____ _____    ______ ____
ROOT
ATOM      1  O   UNL     1     -35.785  20.630   3.153  0.00  0.00    -0.452 OA
ATOM      2  O   UNL     1     -34.974  20.635   5.241  0.00  0.00    -0.245 OA
ATOM      3  C   UNL     1     -35.613  23.487   2.948  0.00  0.00    +0.044 C 
ATOM      4  C   UNL     1     -36.488  22.677   1.967  0.00  0.00    -0.019 C 
ATOM      5  C   UNL     1     -35.931  21.241   1.843  0.00  0.00    +0.147 C 
ATOM      6  C   UNL     1     -36.089  24.951   3.094  0.00  0.00    +0.140 C 
ATOM      7  C   UNL     1     -35.453  22.765   4.264  0.00  0.00    +0.083 C 
ATOM      8  C   UNL     1     -35.308  25.662   4.198  0.00  0.00    +0.145 C 
ATOM      9  C   UNL     1     -35.471  24.935   5.531  0.00  0.00    +0.095 C 
ATOM     10  C   UNL     1     -35.405  23.435   5.436  0.00  0.00    +0.116 C 
ATOM     11  C   UNL     1     -35.365  21.275   4.271  0.00  0.00    +0.340 C 
ATOM     12  C   UNL     1     -36.857  20.318   1.034  0.00  0.00    +0.044 C 
ENDROOT
BRANCH   4  13
ATOM     13  N   UNL     1     -37.890  22.695   2.410  0.00  0.00    +0.384 N 
ATOM     14  H   UNL     1     -38.217  21.738   2.546  0.00  0.00    -0.089 HD
ATOM     15  H   UNL     1     -38.466  23.153   1.702  0.00  0.00    -0.089 HD
ATOM     16  H   UNL     1     -37.963  23.208   3.289  0.00  0.00    -0.089 HD
ENDBRANCH   4  13
BRANCH   5  19
ATOM     17 CL   UNL     1     -34.708  21.600  -0.547  0.00  0.00    -0.093 Cl
ATOM     18 CL   UNL     1     -33.814  19.613   1.385  0.00  0.00    -0.093 Cl
ATOM     19  C   UNL     1     -34.545  21.212   1.173  0.00  0.00    +0.193 C 
ENDBRANCH   5  19
BRANCH   6  20
ATOM     20  O   UNL     1     -35.862  25.625   1.854  0.00  0.00    -0.382 OA
ATOM     21  H   UNL     1     -34.916  25.812   1.757  0.00  0.00    +0.210 HD
ENDBRANCH   6  20
BRANCH   8  22
ATOM     22  O   UNL     1     -35.806  26.992   4.329  0.00  0.00    -0.382 OA
ATOM     23  H   UNL     1     -36.202  27.104   5.207  0.00  0.00    +0.210 HD
ENDBRANCH   8  22
BRANCH  10  24
ATOM     24  O   UNL     1     -35.306  22.790   6.654  0.00  0.00    -0.510 OA
ATOM     25  H   UNL     1     -34.539  22.293   6.861  0.00  0.00    +0.292 HD
ENDBRANCH  10  24
TORSDOF 5
ENDMDL
MODEL 3
REMARK VINA RESULT:      -5.8      2.047      3.851
REMARK  Name = 54720864
REMARK  5 active torsions:
REMARK  status: ('A' for Active; 'I' for Inactive)
REMARK    1  A    between atoms: C_4  and  N_13
REMARK    2  A    between atoms: C_5  and  C_19
REMARK    3  A    between atoms: C_6  and  O_20
REMARK    4  A    between atoms: C_8  and  O_22
REMARK    5  A    between atoms: C_10  and  O_24
REMARK                            x       y       z     vdW  Elec       q    Type
REMARK                         _______ _______ _______ _____ _____    ______ ____
ROOT
ATOM      1  O   UNL     1     -37.169  24.977   4.200  0.00  0.00    -0.452 OA
ATOM      2  O   UNL     1     -39.146  25.012   3.147  0.00  0.00    -0.245 OA
ATOM      3  C   UNL     1     -36.330  22.612   2.808  0.00  0.00    +0.044 C 
ATOM      4  C   UNL     1     -35.612  23.064   4.098  0.00  0.00    -0.019 C 
ATOM      5  C   UNL     1     -35.770  24.593   4.268  0.00  0.00    +0.147 C 
ATOM      6  C   UNL     1     -36.182  21.094   2.550  0.00  0.00    +0.140 C 
ATOM      7  C   UNL     1     -37.759  23.099   2.776  0.00  0.00    +0.083 C 
ATOM      8  C   UNL     1     -37.048  20.664   1.368  0.00  0.00    +0.145 C 
ATOM      9  C   UNL     1     -38.516  21.000   1.620  0.00  0.00    +0.095 C 
ATOM     10  C   UNL     1     -38.749  22.348   2.247  0.00  0.00    +0.116 C 
ATOM     11  C   UNL     1     -38.088  24.431   3.362  0.00  0.00    +0.340 C 
ATOM     12  C   UNL     1     -35.248  25.091   5.625  0.00  0.00    +0.044 C 
ENDROOT
BRANCH   4  13
ATOM     13  N   UNL     1     -36.134  22.318   5.252  0.00  0.00    +0.384 N 
ATOM     14  H   UNL     1     -37.069  22.656   5.482  0.00  0.00    -0.089 HD
ATOM     15  H   UNL     1     -35.517  22.456   6.054  0.00  0.00    -0.089 HD
ATOM     16  H   UNL     1     -36.177  21.324   5.024  0.00  0.00    -0.089 HD
ENDBRANCH   4  13
BRANCH   5  19
ATOM     17 CL   UNL     1     -33.312  25.500   3.578  0.00  0.00    -0.093 Cl
ATOM     18 CL   UNL     1     -35.748  26.989   3.004  0.00  0.00    -0.093 Cl
ATOM     19  C   UNL     1     -35.031  25.378   3.169  0.00  0.00    +0.193 C 
ENDBRANCH   5  19
BRANCH   6  20
ATOM     20  O   UNL     1     -34.813  20.819   2.250  0.00  0.00    -0.382 OA
ATOM     21  H   UNL     1     -34.729  19.907   1.930  0.00  0.00    +0.210 HD
ENDBRANCH   6  20
BRANCH   8  22
ATOM     22  O   UNL     1     -36.917  19.254   1.192  0.00  0.00    -0.382 OA
ATOM     23  H   UNL     1     -37.703  18.910   0.741  0.00  0.00    +0.210 HD
ENDBRANCH   8  22
BRANCH  10  24
ATOM     24  O   UNL     1     -40.070  22.755   2.250  0.00  0.00    -0.510 OA
ATOM     25  H   UNL     1     -40.295  23.620   1.971  0.00  0.00    +0.292 HD
ENDBRANCH  10  24
TORSDOF 5
ENDMDL
MODEL 4
REMARK VINA RESULT:      -5.8      3.080      5.400
REMARK  Name = 54720864
REMARK  5 active torsions:
REMARK  status: ('A' for Active; 'I' for Inactive)
REMARK    1  A    between atoms: C_4  and  N_13
REMARK    2  A    between atoms: C_5  and  C_19
REMARK    3  A    between atoms: C_6  and  O_20
REMARK    4  A    between atoms: C_8  and  O_22
REMARK    5  A    between atoms: C_10  and  O_24
REMARK                            x       y       z     vdW  Elec       q    Type
REMARK                         _______ _______ _______ _____ _____    ______ ____
ROOT
ATOM      1  O   UNL     1     -38.021  24.733   1.613  0.00  0.00    -0.452 OA
ATOM      2  O   UNL     1     -38.186  26.216   3.284  0.00  0.00    -0.245 OA
ATOM      3  C   UNL     1     -36.751  22.789   3.298  0.00  0.00    +0.044 C 
ATOM      4  C   UNL     1     -36.679  22.667   1.761  0.00  0.00    -0.019 C 
ATOM      5  C   UNL     1     -37.903  23.368   1.129  0.00  0.00    +0.147 C 
ATOM      6  C   UNL     1     -35.574  22.075   4.003  0.00  0.00    +0.140 C 
ATOM      7  C   UNL     1     -36.936  24.225   3.726  0.00  0.00    +0.083 C 
ATOM      8  C   UNL     1     -35.590  22.367   5.502  0.00  0.00    +0.145 C 
ATOM      9  C   UNL     1     -35.507  23.870   5.763  0.00  0.00    +0.095 C 
ATOM     10  C   UNL     1     -36.351  24.710   4.843  0.00  0.00    +0.116 C 
ATOM     11  C   UNL     1     -37.769  25.134   2.885  0.00  0.00    +0.340 C 
ATOM     12  C   UNL     1     -37.806  23.457  -0.403  0.00  0.00    +0.044 C 
ENDROOT
BRANCH   4  13
ATOM     13  N   UNL     1     -35.406  23.218   1.271  0.00  0.00    +0.384 N 
ATOM     14  H   UNL     1     -34.823  22.462   0.912  0.00  0.00    -0.089 HD
ATOM     15  H   UNL     1     -34.921  23.688   2.036  0.00  0.00    -0.089 HD
ATOM     16  H   UNL     1     -35.591  23.890   0.525  0.00  0.00    -0.089 HD
ENDBRANCH   4  13
BRANCH   5  19
ATOM     17 CL   UNL     1     -39.222  21.032   0.753  0.00  0.00    -0.093 Cl
ATOM     18 CL   UNL     1     -40.590  23.601   0.865  0.00  0.00    -0.093 Cl
ATOM     19  C   UNL     1     -39.222  22.652   1.470  0.00  0.00    +0.193 C 
ENDBRANCH   5  19
BRANCH   6  20
ATOM     20  O   UNL     1     -35.714  20.667   3.801  0.00  0.00    -0.382 OA
ATOM     21  H   UNL     1     -35.758  20.220   4.661  0.00  0.00    +0.210 HD
ENDBRANCH   6  20
BRANCH   8  22
ATOM     22  O   UNL     1     -34.467  21.727   6.106  0.00  0.00    -0.382 OA
ATOM     23  H   UNL     1     -33.661  21.962   5.621  0.00  0.00    +0.210 HD
ENDBRANCH   8  22
BRANCH  10  24
ATOM     24  O   UNL     1     -36.470  26.032   5.227  0.00  0.00    -0.510 OA
ATOM     25  H   UNL     1     -36.869  26.248   6.046  0.00  0.00    +0.292 HD
ENDBRANCH  10  24
TORSDOF 5
ENDMDL
MODEL 5
REMARK VINA RESULT:      -5.6      2.549      4.485
REMARK  Name = 54720864
REMARK  5 active torsions:
REMARK  status: ('A' for Active; 'I' for Inactive)
REMARK    1  A    between atoms: C_4  and  N_13
REMARK    2  A    between atoms: C_5  and  C_19
REMARK    3  A    between atoms: C_6  and  O_20
REMARK    4  A    between atoms: C_8  and  O_22
REMARK    5  A    between atoms: C_10  and  O_24
REMARK                            x       y       z     vdW  Elec       q    Type
REMARK                         _______ _______ _______ _____ _____    ______ ____
ROOT
ATOM      1  O   UNL     1     -35.170  24.736   2.736  0.00  0.00    -0.452 OA
ATOM      2  O   UNL     1     -33.641  24.777   1.099  0.00  0.00    -0.245 OA
ATOM      3  C   UNL     1     -35.559  21.906   2.470  0.00  0.00    +0.044 C 
ATOM      4  C   UNL     1     -36.595  22.778   3.211  0.00  0.00    -0.019 C 
ATOM      5  C   UNL     1     -35.899  24.036   3.779  0.00  0.00    +0.147 C 
ATOM      6  C   UNL     1     -36.178  20.605   1.905  0.00  0.00    +0.140 C 
ATOM      7  C   UNL     1     -34.797  22.712   1.446  0.00  0.00    +0.083 C 
ATOM      8  C   UNL     1     -35.165  19.863   1.036  0.00  0.00    +0.145 C 
ATOM      9  C   UNL     1     -34.689  20.746  -0.116  0.00  0.00    +0.095 C 
ATOM     10  C   UNL     1     -34.420  22.177   0.265  0.00  0.00    +0.116 C 
ATOM     11  C   UNL     1     -34.470  24.138   1.738  0.00  0.00    +0.340 C 
ATOM     12  C   UNL     1     -36.898  25.047   4.365  0.00  0.00    +0.044 C 
ENDROOT
BRANCH   4  13
ATOM     13  N   UNL     1     -37.707  23.115   2.310  0.00  0.00    +0.384 N 
ATOM     14  H   UNL     1     -37.530  24.019   1.874  0.00  0.00    -0.089 HD
ATOM     15  H   UNL     1     -38.577  23.160   2.844  0.00  0.00    -0.089 HD
ATOM     16  H   UNL     1     -37.790  22.398   1.589  0.00  0.00    -0.089 HD
ENDBRANCH   4  13
BRANCH   5  19
ATOM     17 CL   UNL     1     -35.632  22.585   6.051  0.00  0.00    -0.093 Cl
ATOM     18 CL   UNL     1     -34.349  25.174   5.688  0.00  0.00    -0.093 Cl
ATOM     19  C   UNL     1     -34.886  23.689   4.885  0.00  0.00    +0.193 C 
ENDBRANCH   5  19
BRANCH   6  20
ATOM     20  O   UNL     1     -36.551  19.770   3.003  0.00  0.00    -0.382 OA
ATOM     21  H   UNL     1     -35.808  19.192   3.236  0.00  0.00    +0.210 HD
ENDBRANCH   6  20
BRANCH   8  22
ATOM     22  O   UNL     1     -35.787  18.696   0.501  0.00  0.00    -0.382 OA
ATOM     23  H   UNL     1     -36.055  18.111   1.226  0.00  0.00    +0.210 HD
ENDBRANCH   8  22
BRANCH  10  24
ATOM     24  O   UNL     1     -33.762  22.910  -0.705  0.00  0.00    -0.510 OA
ATOM     25  H   UNL     1     -33.462  23.777  -0.514  0.00  0.00    +0.292 HD
ENDBRANCH  10  24
TORSDOF 5
ENDMDL
MODEL 6
REMARK VINA RESULT:      -5.6      3.144      4.509
REMARK  Name = 54720864
REMARK  5 active torsions:
REMARK  status: ('A' for Active; 'I' for Inactive)
REMARK    1  A    between atoms: C_4  and  N_13
REMARK    2  A    between atoms: C_5  and  C_19
REMARK    3  A    between atoms: C_6  and  O_20
REMARK    4  A    between atoms: C_8  and  O_22
REMARK    5  A    between atoms: C_10  and  O_24
REMARK                            x       y       z     vdW  Elec       q    Type
REMARK                         _______ _______ _______ _____ _____    ______ ____
ROOT
ATOM      1  O   UNL     1     -36.796  21.251   1.859  0.00  0.00    -0.452 OA
ATOM      2  O   UNL     1     -35.277  20.547   3.348  0.00  0.00    -0.245 OA
ATOM      3  C   UNL     1     -36.723  23.936   2.867  0.00  0.00    +0.044 C 
ATOM      4  C   UNL     1     -37.893  23.459   1.981  0.00  0.00    -0.019 C 
ATOM      5  C   UNL     1     -37.413  22.304   1.072  0.00  0.00    +0.147 C 
ATOM      6  C   UNL     1     -37.118  25.120   3.781  0.00  0.00    +0.140 C 
ATOM      7  C   UNL     1     -36.089  22.782   3.607  0.00  0.00    +0.083 C 
ATOM      8  C   UNL     1     -35.991  25.443   4.759  0.00  0.00    +0.145 C 
ATOM      9  C   UNL     1     -35.651  24.226   5.617  0.00  0.00    +0.095 C 
ATOM     10  C   UNL     1     -35.619  22.923   4.866  0.00  0.00    +0.116 C 
ATOM     11  C   UNL     1     -35.999  21.451   2.939  0.00  0.00    +0.340 C 
ATOM     12  C   UNL     1     -38.567  21.647   0.297  0.00  0.00    +0.044 C 
ENDROOT
BRANCH   4  13
ATOM     13  N   UNL     1     -39.035  23.070   2.820  0.00  0.00    +0.384 N 
ATOM     14  H   UNL     1     -39.337  22.128   2.570  0.00  0.00    -0.089 HD
ATOM     15  H   UNL     1     -39.805  23.724   2.673  0.00  0.00    -0.089 HD
ATOM     16  H   UNL     1     -38.758  23.088   3.802  0.00  0.00    -0.089 HD
ENDBRANCH   4  13
BRANCH   5  19
ATOM     17 CL   UNL     1     -37.140  23.829  -1.150  0.00  0.00    -0.093 Cl
ATOM     18 CL   UNL     1     -35.643  21.363  -0.751  0.00  0.00    -0.093 Cl
ATOM     19  C   UNL     1     -36.368  22.771   0.042  0.00  0.00    +0.193 C 
ENDBRANCH   5  19
BRANCH   6  20
ATOM     20  O   UNL     1     -37.363  26.262   2.957  0.00  0.00    -0.382 OA
ATOM     21  H   UNL     1     -36.666  26.921   3.103  0.00  0.00    +0.210 HD
ENDBRANCH   6  20
BRANCH   8  22
ATOM     22  O   UNL     1     -36.412  26.509   5.609  0.00  0.00    -0.382 OA
ATOM     23  H   UNL     1     -37.308  26.330   5.931  0.00  0.00    +0.210 HD
ENDBRANCH   8  22
BRANCH  10  24
ATOM     24  O   UNL     1     -35.078  21.868   5.577  0.00  0.00    -0.510 OA
ATOM     25  H   UNL     1     -35.077  21.885   6.514  0.00  0.00    +0.292 HD
ENDBRANCH  10  24
TORSDOF 5
ENDMDL
MODEL 7
REMARK VINA RESULT:      -5.5      3.037      4.670
REMARK  Name = 54720864
REMARK  5 active torsions:
REMARK  status: ('A' for Active; 'I' for Inactive)
REMARK    1  A    between atoms: C_4  and  N_13
REMARK    2  A    between atoms: C_5  and  C_19
REMARK    3  A    between atoms: C_6  and  O_20
REMARK    4  A    between atoms: C_8  and  O_22
REMARK    5  A    between atoms: C_10  and  O_24
REMARK                            x       y       z     vdW  Elec       q    Type
REMARK                         _______ _______ _______ _____ _____    ______ ____
ROOT
ATOM      1  O   UNL     1     -38.088  22.988   1.895  0.00  0.00    -0.452 OA
ATOM      2  O   UNL     1     -36.824  21.254   2.538  0.00  0.00    -0.245 OA
ATOM      3  C   UNL     1     -36.474  24.862   3.350  0.00  0.00    +0.044 C 
ATOM      4  C   UNL     1     -37.893  25.245   2.876  0.00  0.00    -0.019 C 
ATOM      5  C   UNL     1     -38.264  24.406   1.632  0.00  0.00    +0.147 C 
ATOM      6  C   UNL     1     -36.017  25.691   4.574  0.00  0.00    +0.140 C 
ATOM      7  C   UNL     1     -36.345  23.370   3.544  0.00  0.00    +0.083 C 
ATOM      8  C   UNL     1     -34.690  25.163   5.114  0.00  0.00    +0.145 C 
ATOM      9  C   UNL     1     -34.812  23.692   5.509  0.00  0.00    +0.095 C 
ATOM     10  C   UNL     1     -35.597  22.850   4.541  0.00  0.00    +0.116 C 
ATOM     11  C   UNL     1     -37.076  22.451   2.624  0.00  0.00    +0.340 C 
ATOM     12  C   UNL     1     -39.732  24.591   1.214  0.00  0.00    +0.044 C 
ENDROOT
BRANCH   4  13
ATOM     13  N   UNL     1     -38.856  25.071   3.973  0.00  0.00    +0.384 N 
ATOM     14  H   UNL     1     -38.480  25.489   4.825  0.00  0.00    -0.089 HD
ATOM     15  H   UNL     1     -39.021  24.076   4.127  0.00  0.00    -0.089 HD
ATOM     16  H   UNL     1     -39.736  25.527   3.729  0.00  0.00    -0.089 HD
ENDBRANCH   4  13
BRANCH   5  19
ATOM     17 CL   UNL     1     -37.628  26.450  -0.028  0.00  0.00    -0.093 Cl
ATOM     18 CL   UNL     1     -37.803  23.690  -0.941  0.00  0.00    -0.093 Cl
ATOM     19  C   UNL     1     -37.388  24.752   0.414  0.00  0.00    +0.193 C 
ENDBRANCH   5  19
BRANCH   6  20
ATOM     20  O   UNL     1     -35.845  27.048   4.160  0.00  0.00    -0.382 OA
ATOM     21  H   UNL     1     -35.112  27.102   3.527  0.00  0.00    +0.210 HD
ENDBRANCH   6  20
BRANCH   8  22
ATOM     22  O   UNL     1     -34.327  25.925   6.264  0.00  0.00    -0.382 OA
ATOM     23  H   UNL     1     -33.855  25.357   6.893  0.00  0.00    +0.210 HD
ENDBRANCH   8  22
BRANCH  10  24
ATOM     24  O   UNL     1     -35.503  21.489   4.763  0.00  0.00    -0.510 OA
ATOM     25  H   UNL     1     -34.896  20.974   4.270  0.00  0.00    +0.292 HD
ENDBRANCH  10  24
TORSDOF 5
ENDMDL
MODEL 8
REMARK VINA RESULT:      -5.5      3.089      5.157
REMARK  Name = 54720864
REMARK  5 active torsions:
REMARK  status: ('A' for Active; 'I' for Inactive)
REMARK    1  A    between atoms: C_4  and  N_13
REMARK    2  A    between atoms: C_5  and  C_19
REMARK    3  A    between atoms: C_6  and  O_20
REMARK    4  A    between atoms: C_8  and  O_22
REMARK    5  A    between atoms: C_10  and  O_24
REMARK                            x       y       z     vdW  Elec       q    Type
REMARK                         _______ _______ _______ _____ _____    ______ ____
ROOT
ATOM      1  O   UNL     1     -35.929  26.113   2.167  0.00  0.00    -0.452 OA
ATOM      2  O   UNL     1     -35.433  27.005   4.161  0.00  0.00    -0.245 OA
ATOM      3  C   UNL     1     -36.149  23.471   3.264  0.00  0.00    +0.044 C 
ATOM      4  C   UNL     1     -35.982  23.682   1.744  0.00  0.00    -0.019 C 
ATOM      5  C   UNL     1     -36.532  25.073   1.353  0.00  0.00    +0.147 C 
ATOM      6  C   UNL     1     -35.653  22.081   3.726  0.00  0.00    +0.140 C 
ATOM      7  C   UNL     1     -35.555  24.619   4.046  0.00  0.00    +0.083 C 
ATOM      8  C   UNL     1     -35.674  21.983   5.250  0.00  0.00    +0.145 C 
ATOM      9  C   UNL     1     -34.803  23.070   5.876  0.00  0.00    +0.095 C 
ATOM     10  C   UNL     1     -34.930  24.421   5.226  0.00  0.00    +0.116 C 
ATOM     11  C   UNL     1     -35.643  26.001   3.489  0.00  0.00    +0.340 C 
ATOM     12  C   UNL     1     -36.229  25.435  -0.110  0.00  0.00    +0.044 C 
ENDROOT
BRANCH   4  13
ATOM     13  N   UNL     1     -34.572  23.513   1.364  0.00  0.00    +0.384 N 
ATOM     14  H   UNL     1     -34.515  22.979   0.496  0.00  0.00    -0.089 HD
ATOM     15  H   UNL     1     -34.077  23.013   2.103  0.00  0.00    -0.089 HD
ATOM     16  H   UNL     1     -34.143  24.429   1.229  0.00  0.00    -0.089 HD
ENDBRANCH   4  13
BRANCH   5  19
ATOM     17 CL   UNL     1     -38.860  23.900   0.613  0.00  0.00    -0.093 Cl
ATOM     18 CL   UNL     1     -38.621  26.771   1.042  0.00  0.00    -0.093 Cl
ATOM     19  C   UNL     1     -38.056  25.171   1.549  0.00  0.00    +0.193 C 
ENDBRANCH   5  19
BRANCH   6  20
ATOM     20  O   UNL     1     -36.526  21.088   3.183  0.00  0.00    -0.382 OA
ATOM     21  H   UNL     1     -36.194  20.805   2.316  0.00  0.00    +0.210 HD
ENDBRANCH   6  20
BRANCH   8  22
ATOM     22  O   UNL     1     -35.170  20.704   5.635  0.00  0.00    -0.382 OA
ATOM     23  H   UNL     1     -35.313  20.071   4.915  0.00  0.00    +0.210 HD
ENDBRANCH   8  22
BRANCH  10  24
ATOM     24  O   UNL     1     -34.339  25.452   5.934  0.00  0.00    -0.510 OA
ATOM     25  H   UNL     1     -33.876  25.270   6.728  0.00  0.00    +0.292 HD
ENDBRANCH  10  24
TORSDOF 5
ENDMDL
MODEL 9
REMARK VINA RESULT:      -5.2      2.688      4.017
REMARK  Name = 54720864
REMARK  5 active torsions:
REMARK  status: ('A' for Active; 'I' for Inactive)
REMARK    1  A    between atoms: C_4  and  N_13
REMARK    2  A    between atoms: C_5  and  C_19
REMARK    3  A    between atoms: C_6  and  O_20
REMARK    4  A    between atoms: C_8  and  O_22
REMARK    5  A    between atoms: C_10  and  O_24
REMARK                            x       y       z     vdW  Elec       q    Type
REMARK                         _______ _______ _______ _____ _____    ______ ____
ROOT
ATOM      1  O   UNL     1     -34.135  25.811   1.676  0.00  0.00    -0.452 OA
ATOM      2  O   UNL     1     -32.952  24.606   0.206  0.00  0.00    -0.245 OA
ATOM      3  C   UNL     1     -35.242  23.463   2.899  0.00  0.00    +0.044 C 
ATOM      4  C   UNL     1     -35.889  24.846   3.121  0.00  0.00    -0.019 C 
ATOM      5  C   UNL     1     -34.820  25.950   2.950  0.00  0.00    +0.147 C 
ATOM      6  C   UNL     1     -36.247  22.303   3.091  0.00  0.00    +0.140 C 
ATOM      7  C   UNL     1     -34.496  23.410   1.586  0.00  0.00    +0.083 C 
ATOM      8  C   UNL     1     -35.612  20.972   2.693  0.00  0.00    +0.145 C 
ATOM      9  C   UNL     1     -35.143  21.007   1.240  0.00  0.00    +0.095 C 
ATOM     10  C   UNL     1     -34.472  22.290   0.832  0.00  0.00    +0.116 C 
ATOM     11  C   UNL     1     -33.787  24.631   1.103  0.00  0.00    +0.340 C 
ATOM     12  C   UNL     1     -35.425  27.363   2.967  0.00  0.00    +0.044 C 
ENDROOT
BRANCH   4  13
ATOM     13  N   UNL     1     -37.025  25.024   2.204  0.00  0.00    +0.384 N 
ATOM     14  H   UNL     1     -37.067  25.996   1.898  0.00  0.00    -0.089 HD
ATOM     15  H   UNL     1     -37.893  24.782   2.685  0.00  0.00    -0.089 HD
ATOM     16  H   UNL     1     -36.907  24.416   1.393  0.00  0.00    -0.089 HD
ENDBRANCH   4  13
BRANCH   5  19
ATOM     17 CL   UNL     1     -34.521  25.700   5.631  0.00  0.00    -0.093 Cl
ATOM     18 CL   UNL     1     -32.770  27.369   4.010  0.00  0.00    -0.093 Cl
ATOM     19  C   UNL     1     -33.745  25.891   4.051  0.00  0.00    +0.193 C 
ENDBRANCH   5  19
BRANCH   6  20
ATOM     20  O   UNL     1     -36.615  22.249   4.471  0.00  0.00    -0.382 OA
ATOM     21  H   UNL     1     -36.472  21.352   4.809  0.00  0.00    +0.210 HD
ENDBRANCH   6  20
BRANCH   8  22
ATOM     22  O   UNL     1     -36.583  19.937   2.844  0.00  0.00    -0.382 OA
ATOM     23  H   UNL     1     -36.135  19.100   3.043  0.00  0.00    +0.210 HD
ENDBRANCH   8  22
BRANCH  10  24
ATOM     24  O   UNL     1     -33.835  22.236  -0.393  0.00  0.00    -0.510 OA
ATOM     25  H   UNL     1     -33.535  23.025  -0.801  0.00  0.00    +0.292 HD
ENDBRANCH  10  24
TORSDOF 5
ENDMDL
