MODEL 1
REMARK VINA RESULT:      -6.7      0.000      0.000
REMARK  Name = 20055036
REMARK  6 active torsions:
REMARK  status: ('A' for Active; 'I' for Inactive)
REMARK    1  A    between atoms: N_2  and  CA_11
REMARK    2  A    between atoms: C_3  and  C_19
REMARK    3  A    between atoms: CA_10  and  C_16
REMARK    4  A    between atoms: C_16  and  O_17
REMARK    5  A    between atoms: C_19  and  C_20
REMARK    6  A    between atoms: C_19  and  S_26
REMARK                            x       y       z     vdW  Elec       q    Type
REMARK                         _______ _______ _______ _____ _____    ______ ____
ROOT
ATOM      1  O   UNL     1     -35.362  26.156   2.204  0.00  0.00    -0.273 OA
ATOM      2  N   UNL     1     -37.495  26.056   3.110  0.00  0.00    -0.295 N 
ATOM      3  C   UNL     1     -36.102  25.968   3.168  0.00  0.00    +0.249 C 
ATOM      4  H   UNL     1     -38.011  25.891   3.933  0.00  0.00    +0.150 HD
ENDROOT
BRANCH   2  11
ATOM      5  S   UNL     1     -37.884  23.592   1.302  0.00  0.00    -0.118 S 
ATOM      6  O   UNL     1     -40.597  26.751   2.741  0.00  0.00    -0.273 OA
ATOM      7  N   UNL     1     -39.797  25.324   1.040  0.00  0.00    -0.260 N 
ATOM      8  C   UNL     1     -38.350  25.292   0.811  0.00  0.00    +0.151 C 
ATOM      9  C   UNL     1     -39.543  22.940   0.760  0.00  0.00    +0.068 C 
ATOM     10  CA  UNL     1     -40.521  24.073   1.138  0.00  0.00    +0.184 C 
ATOM     11  CA  UNL     1     -38.221  26.382   1.885  0.00  0.00    +0.178 C 
ATOM     12  C   UNL     1     -39.755  26.286   2.007  0.00  0.00    +0.247 C 
ATOM     13  C   UNL     1     -39.849  21.656   1.533  0.00  0.00    +0.013 C 
ATOM     14  C   UNL     1     -39.464  22.643  -0.744  0.00  0.00    +0.013 C 
BRANCH  10  16
ATOM     15  OXT UNL     1     -42.691  23.438   0.292  0.00  0.00    -0.248 OA
ATOM     16  C   UNL     1     -41.730  24.193   0.266  0.00  0.00    +0.333 C 
BRANCH  16  17
ATOM     17  O   UNL     1     -41.617  25.257  -0.566  0.00  0.00    -0.479 OA
ATOM     18  H   UNL     1     -41.035  25.218  -1.300  0.00  0.00    +0.295 HD
ENDBRANCH  16  17
ENDBRANCH  10  16
ENDBRANCH   2  11
BRANCH   3  19
ATOM     19  C   UNL     1     -35.595  25.611   4.552  0.00  0.00    +0.233 C 
BRANCH  19  20
ATOM     20  C   UNL     1     -35.469  24.125   4.777  0.00  0.00    +0.009 C 
ATOM     21  C   UNL     1     -35.466  23.252   3.688  0.00  0.00    -0.002 C 
ATOM     22  C   UNL     1     -35.354  23.623   6.074  0.00  0.00    -0.002 C 
ATOM     23  C   UNL     1     -35.350  21.878   3.896  0.00  0.00    -0.000 C 
ATOM     24  C   UNL     1     -35.236  22.248   6.281  0.00  0.00    -0.000 C 
ATOM     25  C   UNL     1     -35.234  21.376   5.193  0.00  0.00    -0.000 C 
ENDBRANCH  19  20
BRANCH  19  26
ATOM     26  S   UNL     1     -34.008  26.324   4.868  0.00  0.00    +0.033 S 
ATOM     27  O   UNL     1     -34.283  27.769   4.164  0.00  0.00    -0.069 OA
ATOM     28  O   UNL     1     -33.012  25.608   4.094  0.00  0.00    -0.069 OA
ATOM     29  O   UNL     1     -33.863  26.521   6.298  0.00  0.00    -0.069 OA
ENDBRANCH  19  26
ENDBRANCH   3  19
TORSDOF 6
ENDMDL
MODEL 2
REMARK VINA RESULT:      -6.4      4.481      6.330
REMARK  Name = 20055036
REMARK  6 active torsions:
REMARK  status: ('A' for Active; 'I' for Inactive)
REMARK    1  A    between atoms: N_2  and  CA_11
REMARK    2  A    between atoms: C_3  and  C_19
REMARK    3  A    between atoms: CA_10  and  C_16
REMARK    4  A    between atoms: C_16  and  O_17
REMARK    5  A    between atoms: C_19  and  C_20
REMARK    6  A    between atoms: C_19  and  S_26
REMARK                            x       y       z     vdW  Elec       q    Type
REMARK                         _______ _______ _______ _____ _____    ______ ____
ROOT
ATOM      1  O   UNL     1     -34.626  19.913   2.558  0.00  0.00    -0.273 OA
ATOM      2  N   UNL     1     -35.841  21.471   1.343  0.00  0.00    -0.295 N 
ATOM      3  C   UNL     1     -34.783  20.580   1.538  0.00  0.00    +0.249 C 
ATOM      4  H   UNL     1     -35.890  21.965   0.492  0.00  0.00    +0.150 HD
ENDROOT
BRANCH   2  11
ATOM      5  S   UNL     1     -35.269  23.970   3.051  0.00  0.00    -0.118 S 
ATOM      6  O   UNL     1     -38.839  22.509   0.920  0.00  0.00    -0.273 OA
ATOM      7  N   UNL     1     -37.809  23.505   2.796  0.00  0.00    -0.260 N 
ATOM      8  C   UNL     1     -36.652  22.816   3.375  0.00  0.00    +0.151 C 
ATOM      9  C   UNL     1     -36.412  25.435   3.181  0.00  0.00    +0.068 C 
ATOM     10  CA  UNL     1     -37.727  24.930   2.549  0.00  0.00    +0.184 C 
ATOM     11  CA  UNL     1     -36.880  21.702   2.344  0.00  0.00    +0.178 C 
ATOM     12  C   UNL     1     -38.065  22.556   1.850  0.00  0.00    +0.247 C 
ATOM     13  C   UNL     1     -35.821  26.599   2.384  0.00  0.00    +0.013 C 
ATOM     14  C   UNL     1     -36.524  25.817   4.663  0.00  0.00    +0.013 C 
BRANCH  10  16
ATOM     15  OXT UNL     1     -39.414  26.642   2.777  0.00  0.00    -0.248 OA
ATOM     16  C   UNL     1     -38.977  25.545   3.094  0.00  0.00    +0.333 C 
BRANCH  16  17
ATOM     17  O   UNL     1     -39.565  24.719   3.993  0.00  0.00    -0.479 OA
ATOM     18  H   UNL     1     -40.500  24.679   4.050  0.00  0.00    +0.295 HD
ENDBRANCH  16  17
ENDBRANCH  10  16
ENDBRANCH   2  11
BRANCH   3  19
ATOM     19  C   UNL     1     -33.839  20.525   0.352  0.00  0.00    +0.233 C 
BRANCH  19  20
ATOM     20  C   UNL     1     -32.907  19.339   0.385  0.00  0.00    +0.009 C 
ATOM     21  C   UNL     1     -33.427  18.044   0.377  0.00  0.00    -0.002 C 
ATOM     22  C   UNL     1     -31.526  19.537   0.422  0.00  0.00    -0.002 C 
ATOM     23  C   UNL     1     -32.565  16.947   0.408  0.00  0.00    -0.000 C 
ATOM     24  C   UNL     1     -30.666  18.440   0.451  0.00  0.00    -0.000 C 
ATOM     25  C   UNL     1     -31.184  17.145   0.445  0.00  0.00    -0.000 C 
ENDBRANCH  19  20
BRANCH  19  26
ATOM     26  S   UNL     1     -34.719  20.455  -1.180  0.00  0.00    +0.033 S 
ATOM     27  O   UNL     1     -35.012  22.053  -1.326  0.00  0.00    -0.069 OA
ATOM     28  O   UNL     1     -35.978  19.767  -0.964  0.00  0.00    -0.069 OA
ATOM     29  O   UNL     1     -33.800  20.050  -2.226  0.00  0.00    -0.069 OA
ENDBRANCH  19  26
ENDBRANCH   3  19
TORSDOF 6
ENDMDL
MODEL 3
REMARK VINA RESULT:      -6.4      2.477      3.427
REMARK  Name = 20055036
REMARK  6 active torsions:
REMARK  status: ('A' for Active; 'I' for Inactive)
REMARK    1  A    between atoms: N_2  and  CA_11
REMARK    2  A    between atoms: C_3  and  C_19
REMARK    3  A    between atoms: CA_10  and  C_16
REMARK    4  A    between atoms: C_16  and  O_17
REMARK    5  A    between atoms: C_19  and  C_20
REMARK    6  A    between atoms: C_19  and  S_26
REMARK                            x       y       z     vdW  Elec       q    Type
REMARK                         _______ _______ _______ _____ _____    ______ ____
ROOT
ATOM      1  O   UNL     1     -39.360  24.799   3.677  0.00  0.00    -0.273 OA
ATOM      2  N   UNL     1     -37.892  24.253   1.966  0.00  0.00    -0.295 N 
ATOM      3  C   UNL     1     -38.210  24.670   3.260  0.00  0.00    +0.249 C 
ATOM      4  H   UNL     1     -36.942  24.176   1.717  0.00  0.00    +0.150 HD
ENDROOT
BRANCH   2  11
ATOM      5  S   UNL     1     -36.684  22.807  -0.472  0.00  0.00    -0.118 S 
ATOM      6  O   UNL     1     -40.184  22.024   2.087  0.00  0.00    -0.273 OA
ATOM      7  N   UNL     1     -39.145  22.117  -0.031  0.00  0.00    -0.260 N 
ATOM      8  C   UNL     1     -38.430  23.348  -0.377  0.00  0.00    +0.151 C 
ATOM      9  C   UNL     1     -37.201  21.113  -1.049  0.00  0.00    +0.068 C 
ATOM     10  CA  UNL     1     -38.500  20.841  -0.262  0.00  0.00    +0.184 C 
ATOM     11  CA  UNL     1     -38.904  23.924   0.964  0.00  0.00    +0.178 C 
ATOM     12  C   UNL     1     -39.595  22.564   1.178  0.00  0.00    +0.247 C 
ATOM     13  C   UNL     1     -36.106  20.109  -0.684  0.00  0.00    +0.013 C 
ATOM     14  C   UNL     1     -37.379  21.167  -2.572  0.00  0.00    +0.013 C 
BRANCH  10  16
ATOM     15  OXT UNL     1     -40.462  20.359  -1.584  0.00  0.00    -0.248 OA
ATOM     16  C   UNL     1     -39.494  19.962  -0.951  0.00  0.00    +0.333 C 
BRANCH  16  17
ATOM     17  O   UNL     1     -39.179  18.655  -0.780  0.00  0.00    -0.479 OA
ATOM     18  H   UNL     1     -38.419  18.418  -0.285  0.00  0.00    +0.295 HD
ENDBRANCH  16  17
ENDBRANCH  10  16
ENDBRANCH   2  11
BRANCH   3  19
ATOM     19  C   UNL     1     -36.982  24.954   4.103  0.00  0.00    +0.233 C 
BRANCH  19  20
ATOM     20  C   UNL     1     -36.253  23.706   4.536  0.00  0.00    +0.009 C 
ATOM     21  C   UNL     1     -35.662  23.646   5.798  0.00  0.00    -0.002 C 
ATOM     22  C   UNL     1     -36.173  22.610   3.675  0.00  0.00    -0.002 C 
ATOM     23  C   UNL     1     -34.988  22.492   6.199  0.00  0.00    -0.000 C 
ATOM     24  C   UNL     1     -35.500  21.456   4.077  0.00  0.00    -0.000 C 
ATOM     25  C   UNL     1     -34.908  21.397   5.339  0.00  0.00    -0.000 C 
ENDBRANCH  19  20
BRANCH  19  26
ATOM     26  S   UNL     1     -35.817  25.965   3.237  0.00  0.00    +0.033 S 
ATOM     27  O   UNL     1     -35.279  26.811   4.523  0.00  0.00    -0.069 OA
ATOM     28  O   UNL     1     -36.541  26.861   2.356  0.00  0.00    -0.069 OA
ATOM     29  O   UNL     1     -34.742  25.121   2.749  0.00  0.00    -0.069 OA
ENDBRANCH  19  26
ENDBRANCH   3  19
TORSDOF 6
ENDMDL
MODEL 4
REMARK VINA RESULT:      -6.3      4.128      6.980
REMARK  Name = 20055036
REMARK  6 active torsions:
REMARK  status: ('A' for Active; 'I' for Inactive)
REMARK    1  A    between atoms: N_2  and  CA_11
REMARK    2  A    between atoms: C_3  and  C_19
REMARK    3  A    between atoms: CA_10  and  C_16
REMARK    4  A    between atoms: C_16  and  O_17
REMARK    5  A    between atoms: C_19  and  C_20
REMARK    6  A    between atoms: C_19  and  S_26
REMARK                            x       y       z     vdW  Elec       q    Type
REMARK                         _______ _______ _______ _____ _____    ______ ____
ROOT
ATOM      1  O   UNL     1     -35.354  22.280  -1.703  0.00  0.00    -0.273 OA
ATOM      2  N   UNL     1     -35.696  22.303   0.591  0.00  0.00    -0.295 N 
ATOM      3  C   UNL     1     -35.513  21.677  -0.643  0.00  0.00    +0.249 C 
ATOM      4  H   UNL     1     -35.815  21.741   1.392  0.00  0.00    +0.150 HD
ENDROOT
BRANCH   2  11
ATOM      5  S   UNL     1     -36.550  23.146   3.429  0.00  0.00    -0.118 S 
ATOM      6  O   UNL     1     -33.234  24.339   0.784  0.00  0.00    -0.273 OA
ATOM      7  N   UNL     1     -34.940  24.858   2.330  0.00  0.00    -0.260 N 
ATOM      8  C   UNL     1     -36.280  24.329   2.059  0.00  0.00    +0.151 C 
ATOM      9  C   UNL     1     -35.505  24.178   4.575  0.00  0.00    +0.068 C 
ATOM     10  CA  UNL     1     -34.386  24.720   3.661  0.00  0.00    +0.184 C 
ATOM     11  CA  UNL     1     -35.718  23.756   0.750  0.00  0.00    +0.178 C 
ATOM     12  C   UNL     1     -34.375  24.371   1.187  0.00  0.00    +0.247 C 
ATOM     13  C   UNL     1     -34.940  23.280   5.677  0.00  0.00    +0.013 C 
ATOM     14  C   UNL     1     -36.405  25.260   5.189  0.00  0.00    +0.013 C 
BRANCH  10  16
ATOM     15  OXT UNL     1     -33.060  26.249   4.977  0.00  0.00    -0.248 OA
ATOM     16  C   UNL     1     -33.831  26.053   4.049  0.00  0.00    +0.333 C 
BRANCH  16  17
ATOM     17  O   UNL     1     -34.301  27.025   3.229  0.00  0.00    -0.479 OA
ATOM     18  H   UNL     1     -34.586  26.809   2.362  0.00  0.00    +0.295 HD
ENDBRANCH  16  17
ENDBRANCH  10  16
ENDBRANCH   2  11
BRANCH   3  19
ATOM     19  C   UNL     1     -35.535  20.164  -0.540  0.00  0.00    +0.233 C 
BRANCH  19  20
ATOM     20  C   UNL     1     -34.232  19.579  -0.053  0.00  0.00    +0.009 C 
ATOM     21  C   UNL     1     -34.169  18.239   0.331  0.00  0.00    -0.002 C 
ATOM     22  C   UNL     1     -33.089  20.378   0.011  0.00  0.00    -0.002 C 
ATOM     23  C   UNL     1     -32.964  17.699   0.781  0.00  0.00    -0.000 C 
ATOM     24  C   UNL     1     -31.885  19.836   0.460  0.00  0.00    -0.000 C 
ATOM     25  C   UNL     1     -31.822  18.498   0.846  0.00  0.00    -0.000 C 
ENDBRANCH  19  20
BRANCH  19  26
ATOM     26  S   UNL     1     -36.802  19.603   0.559  0.00  0.00    +0.033 S 
ATOM     27  O   UNL     1     -37.944  20.684   0.129  0.00  0.00    -0.069 OA
ATOM     28  O   UNL     1     -36.390  19.875   1.923  0.00  0.00    -0.069 OA
ATOM     29  O   UNL     1     -37.228  18.281   0.141  0.00  0.00    -0.069 OA
ENDBRANCH  19  26
ENDBRANCH   3  19
TORSDOF 6
ENDMDL
MODEL 5
REMARK VINA RESULT:      -6.3      3.800      5.944
REMARK  Name = 20055036
REMARK  6 active torsions:
REMARK  status: ('A' for Active; 'I' for Inactive)
REMARK    1  A    between atoms: N_2  and  CA_11
REMARK    2  A    between atoms: C_3  and  C_19
REMARK    3  A    between atoms: CA_10  and  C_16
REMARK    4  A    between atoms: C_16  and  O_17
REMARK    5  A    between atoms: C_19  and  C_20
REMARK    6  A    between atoms: C_19  and  S_26
REMARK                            x       y       z     vdW  Elec       q    Type
REMARK                         _______ _______ _______ _____ _____    ______ ____
ROOT
ATOM      1  O   UNL     1     -39.111  23.311   2.925  0.00  0.00    -0.273 OA
ATOM      2  N   UNL     1     -36.823  23.029   2.668  0.00  0.00    -0.295 N 
ATOM      3  C   UNL     1     -37.973  23.775   2.937  0.00  0.00    +0.249 C 
ATOM      4  H   UNL     1     -35.950  23.483   2.701  0.00  0.00    +0.150 HD
ENDROOT
BRANCH   2  11
ATOM      5  S   UNL     1     -35.430  22.421  -0.011  0.00  0.00    -0.118 S 
ATOM      6  O   UNL     1     -35.189  20.624   4.005  0.00  0.00    -0.273 OA
ATOM      7  N   UNL     1     -35.284  20.437   1.654  0.00  0.00    -0.260 N 
ATOM      8  C   UNL     1     -36.347  21.170   0.961  0.00  0.00    +0.151 C 
ATOM      9  C   UNL     1     -33.982  21.265  -0.201  0.00  0.00    +0.068 C 
ATOM     10  CA  UNL     1     -33.929  20.521   1.150  0.00  0.00    +0.184 C 
ATOM     11  CA  UNL     1     -36.858  21.606   2.342  0.00  0.00    +0.178 C 
ATOM     12  C   UNL     1     -35.680  20.791   2.911  0.00  0.00    +0.247 C 
ATOM     13  C   UNL     1     -32.715  22.091  -0.434  0.00  0.00    +0.013 C 
ATOM     14  C   UNL     1     -34.252  20.364  -1.414  0.00  0.00    +0.013 C 
BRANCH  10  16
ATOM     15  OXT UNL     1     -32.205  18.832   1.071  0.00  0.00    -0.248 OA
ATOM     16  C   UNL     1     -33.392  19.126   1.092  0.00  0.00    +0.333 C 
BRANCH  16  17
ATOM     17  O   UNL     1     -34.403  18.224   1.066  0.00  0.00    -0.479 OA
ATOM     18  H   UNL     1     -34.843  17.990   1.860  0.00  0.00    +0.295 HD
ENDBRANCH  16  17
ENDBRANCH  10  16
ENDBRANCH   2  11
BRANCH   3  19
ATOM     19  C   UNL     1     -37.669  25.229   3.243  0.00  0.00    +0.233 C 
BRANCH  19  20
ATOM     20  C   UNL     1     -36.314  25.437   3.872  0.00  0.00    +0.009 C 
ATOM     21  C   UNL     1     -35.163  25.385   3.084  0.00  0.00    -0.002 C 
ATOM     22  C   UNL     1     -36.210  25.681   5.242  0.00  0.00    -0.002 C 
ATOM     23  C   UNL     1     -33.910  25.577   3.666  0.00  0.00    -0.000 C 
ATOM     24  C   UNL     1     -34.957  25.874   5.823  0.00  0.00    -0.000 C 
ATOM     25  C   UNL     1     -33.807  25.821   5.036  0.00  0.00    -0.000 C 
ENDBRANCH  19  20
BRANCH  19  26
ATOM     26  S   UNL     1     -37.725  26.228   1.784  0.00  0.00    +0.033 S 
ATOM     27  O   UNL     1     -39.306  26.621   1.861  0.00  0.00    -0.069 OA
ATOM     28  O   UNL     1     -37.510  25.379   0.628  0.00  0.00    -0.069 OA
ATOM     29  O   UNL     1     -36.935  27.423   2.009  0.00  0.00    -0.069 OA
ENDBRANCH  19  26
ENDBRANCH   3  19
TORSDOF 6
ENDMDL
MODEL 6
REMARK VINA RESULT:      -6.3      3.476      4.533
REMARK  Name = 20055036
REMARK  6 active torsions:
REMARK  status: ('A' for Active; 'I' for Inactive)
REMARK    1  A    between atoms: N_2  and  CA_11
REMARK    2  A    between atoms: C_3  and  C_19
REMARK    3  A    between atoms: CA_10  and  C_16
REMARK    4  A    between atoms: C_16  and  O_17
REMARK    5  A    between atoms: C_19  and  C_20
REMARK    6  A    between atoms: C_19  and  S_26
REMARK                            x       y       z     vdW  Elec       q    Type
REMARK                         _______ _______ _______ _____ _____    ______ ____
ROOT
ATOM      1  O   UNL     1     -37.475  26.075   3.000  0.00  0.00    -0.273 OA
ATOM      2  N   UNL     1     -35.330  25.754   2.178  0.00  0.00    -0.295 N 
ATOM      3  C   UNL     1     -36.291  25.804   3.190  0.00  0.00    +0.249 C 
ATOM      4  H   UNL     1     -34.403  25.526   2.421  0.00  0.00    +0.150 HD
ENDROOT
BRANCH   2  11
ATOM      5  S   UNL     1     -32.913  25.229   0.341  0.00  0.00    -0.118 S 
ATOM      6  O   UNL     1     -37.159  24.065   0.167  0.00  0.00    -0.273 OA
ATOM      7  N   UNL     1     -35.177  24.828  -0.862  0.00  0.00    -0.260 N 
ATOM      8  C   UNL     1     -34.487  25.961  -0.240  0.00  0.00    +0.151 C 
ATOM      9  C   UNL     1     -32.914  24.015  -1.072  0.00  0.00    +0.068 C 
ATOM     10  CA  UNL     1     -34.407  23.665  -1.251  0.00  0.00    +0.184 C 
ATOM     11  CA  UNL     1     -35.638  26.021   0.775  0.00  0.00    +0.178 C 
ATOM     12  C   UNL     1     -36.227  24.821   0.010  0.00  0.00    +0.247 C 
ATOM     13  C   UNL     1     -32.096  22.786  -0.672  0.00  0.00    +0.013 C 
ATOM     14  C   UNL     1     -32.272  24.702  -2.285  0.00  0.00    +0.013 C 
BRANCH  10  16
ATOM     15  OXT UNL     1     -34.577  22.245  -3.197  0.00  0.00    -0.248 OA
ATOM     16  C   UNL     1     -34.818  23.309  -2.644  0.00  0.00    +0.333 C 
BRANCH  16  17
ATOM     17  O   UNL     1     -35.500  24.330  -3.218  0.00  0.00    -0.479 OA
ATOM     18  H   UNL     1     -35.405  25.201  -2.886  0.00  0.00    +0.295 HD
ENDBRANCH  16  17
ENDBRANCH  10  16
ENDBRANCH   2  11
BRANCH   3  19
ATOM     19  C   UNL     1     -35.717  25.492   4.559  0.00  0.00    +0.233 C 
BRANCH  19  20
ATOM     20  C   UNL     1     -35.544  24.015   4.811  0.00  0.00    +0.009 C 
ATOM     21  C   UNL     1     -35.329  23.549   6.108  0.00  0.00    -0.002 C 
ATOM     22  C   UNL     1     -35.602  23.113   3.747  0.00  0.00    -0.002 C 
ATOM     23  C   UNL     1     -35.169  22.183   6.342  0.00  0.00    -0.000 C 
ATOM     24  C   UNL     1     -35.443  21.748   3.981  0.00  0.00    -0.000 C 
ATOM     25  C   UNL     1     -35.226  21.282   5.278  0.00  0.00    -0.000 C 
ENDBRANCH  19  20
BRANCH  19  26
ATOM     26  S   UNL     1     -34.136  26.250   4.791  0.00  0.00    +0.033 S 
ATOM     27  O   UNL     1     -34.471  27.663   4.050  0.00  0.00    -0.069 OA
ATOM     28  O   UNL     1     -33.153  25.530   4.004  0.00  0.00    -0.069 OA
ATOM     29  O   UNL     1     -33.944  26.499   6.207  0.00  0.00    -0.069 OA
ENDBRANCH  19  26
ENDBRANCH   3  19
TORSDOF 6
ENDMDL
MODEL 7
REMARK VINA RESULT:      -6.3      4.440      5.528
REMARK  Name = 20055036
REMARK  6 active torsions:
REMARK  status: ('A' for Active; 'I' for Inactive)
REMARK    1  A    between atoms: N_2  and  CA_11
REMARK    2  A    between atoms: C_3  and  C_19
REMARK    3  A    between atoms: CA_10  and  C_16
REMARK    4  A    between atoms: C_16  and  O_17
REMARK    5  A    between atoms: C_19  and  C_20
REMARK    6  A    between atoms: C_19  and  S_26
REMARK                            x       y       z     vdW  Elec       q    Type
REMARK                         _______ _______ _______ _____ _____    ______ ____
ROOT
ATOM      1  O   UNL     1     -38.291  23.423   1.316  0.00  0.00    -0.273 OA
ATOM      2  N   UNL     1     -36.078  22.856   0.913  0.00  0.00    -0.295 N 
ATOM      3  C   UNL     1     -37.100  23.499   1.614  0.00  0.00    +0.249 C 
ATOM      4  H   UNL     1     -35.150  22.971   1.224  0.00  0.00    +0.150 HD
ENDROOT
BRANCH   2  11
ATOM      5  S   UNL     1     -33.637  21.115   0.203  0.00  0.00    -0.118 S 
ATOM      6  O   UNL     1     -37.937  20.265   0.648  0.00  0.00    -0.273 OA
ATOM      7  N   UNL     1     -35.879  20.001  -0.477  0.00  0.00    -0.260 N 
ATOM      8  C   UNL     1     -35.143  21.218  -0.831  0.00  0.00    +0.151 C 
ATOM      9  C   UNL     1     -33.664  19.255   0.122  0.00  0.00    +0.068 C 
ATOM     10  CA  UNL     1     -35.168  18.910   0.156  0.00  0.00    +0.184 C 
ATOM     11  CA  UNL     1     -36.322  22.020  -0.260  0.00  0.00    +0.178 C 
ATOM     12  C   UNL     1     -36.957  20.651   0.053  0.00  0.00    +0.247 C 
ATOM     13  C   UNL     1     -32.935  18.694   1.345  0.00  0.00    +0.013 C 
ATOM     14  C   UNL     1     -32.941  18.827  -1.162  0.00  0.00    +0.013 C 
BRANCH  10  16
ATOM     15  OXT UNL     1     -36.050  17.612  -1.679  0.00  0.00    -0.248 OA
ATOM     16  C   UNL     1     -35.553  17.656  -0.563  0.00  0.00    +0.333 C 
BRANCH  16  17
ATOM     17  O   UNL     1     -35.278  16.566   0.194  0.00  0.00    -0.479 OA
ATOM     18  H   UNL     1     -35.483  16.567   1.108  0.00  0.00    +0.295 HD
ENDBRANCH  16  17
ENDBRANCH  10  16
ENDBRANCH   2  11
BRANCH   3  19
ATOM     19  C   UNL     1     -36.585  24.309   2.788  0.00  0.00    +0.233 C 
BRANCH  19  20
ATOM     20  C   UNL     1     -36.038  23.459   3.907  0.00  0.00    +0.009 C 
ATOM     21  C   UNL     1     -35.751  22.112   3.683  0.00  0.00    -0.002 C 
ATOM     22  C   UNL     1     -35.816  24.019   5.166  0.00  0.00    -0.002 C 
ATOM     23  C   UNL     1     -35.245  21.325   4.718  0.00  0.00    -0.000 C 
ATOM     24  C   UNL     1     -35.308  23.232   6.199  0.00  0.00    -0.000 C 
ATOM     25  C   UNL     1     -35.023  21.885   5.976  0.00  0.00    -0.000 C 
ENDBRANCH  19  20
BRANCH  19  26
ATOM     26  S   UNL     1     -35.299  25.420   2.299  0.00  0.00    +0.033 S 
ATOM     27  O   UNL     1     -35.847  25.724   0.794  0.00  0.00    -0.069 OA
ATOM     28  O   UNL     1     -34.055  24.681   2.204  0.00  0.00    -0.069 OA
ATOM     29  O   UNL     1     -35.406  26.632   3.089  0.00  0.00    -0.069 OA
ENDBRANCH  19  26
ENDBRANCH   3  19
TORSDOF 6
ENDMDL
MODEL 8
REMARK VINA RESULT:      -6.3      1.817      2.582
REMARK  Name = 20055036
REMARK  6 active torsions:
REMARK  status: ('A' for Active; 'I' for Inactive)
REMARK    1  A    between atoms: N_2  and  CA_11
REMARK    2  A    between atoms: C_3  and  C_19
REMARK    3  A    between atoms: CA_10  and  C_16
REMARK    4  A    between atoms: C_16  and  O_17
REMARK    5  A    between atoms: C_19  and  C_20
REMARK    6  A    between atoms: C_19  and  S_26
REMARK                            x       y       z     vdW  Elec       q    Type
REMARK                         _______ _______ _______ _____ _____    ______ ____
ROOT
ATOM      1  O   UNL     1     -35.195  25.577   1.795  0.00  0.00    -0.273 OA
ATOM      2  N   UNL     1     -37.431  25.507   2.407  0.00  0.00    -0.295 N 
ATOM      3  C   UNL     1     -36.058  25.490   2.665  0.00  0.00    +0.249 C 
ATOM      4  H   UNL     1     -38.053  25.432   3.167  0.00  0.00    +0.150 HD
ENDROOT
BRANCH   2  11
ATOM      5  S   UNL     1     -40.437  24.836   2.325  0.00  0.00    -0.118 S 
ATOM      6  O   UNL     1     -38.030  28.161   0.722  0.00  0.00    -0.273 OA
ATOM      7  N   UNL     1     -39.759  26.566   0.515  0.00  0.00    -0.260 N 
ATOM      8  C   UNL     1     -39.433  25.173   0.833  0.00  0.00    +0.151 C 
ATOM      9  C   UNL     1     -41.759  26.014   1.748  0.00  0.00    +0.068 C 
ATOM     10  CA  UNL     1     -40.964  27.149   1.068  0.00  0.00    +0.184 C 
ATOM     11  CA  UNL     1     -37.985  25.632   1.061  0.00  0.00    +0.178 C 
ATOM     12  C   UNL     1     -38.494  27.043   0.708  0.00  0.00    +0.247 C 
ATOM     13  C   UNL     1     -42.534  26.525   2.963  0.00  0.00    +0.013 C 
ATOM     14  C   UNL     1     -42.700  25.245   0.810  0.00  0.00    +0.013 C 
BRANCH  10  16
ATOM     15  OXT UNL     1     -42.574  28.657   0.086  0.00  0.00    -0.248 OA
ATOM     16  C   UNL     1     -41.671  27.844  -0.052  0.00  0.00    +0.333 C 
BRANCH  16  17
ATOM     17  O   UNL     1     -41.175  27.450  -1.250  0.00  0.00    -0.479 OA
ATOM     18  H   UNL     1     -40.652  28.040  -1.757  0.00  0.00    +0.295 HD
ENDBRANCH  16  17
ENDBRANCH  10  16
ENDBRANCH   2  11
BRANCH   3  19
ATOM     19  C   UNL     1     -35.742  25.346   4.142  0.00  0.00    +0.233 C 
BRANCH  19  20
ATOM     20  C   UNL     1     -35.548  23.914   4.575  0.00  0.00    +0.009 C 
ATOM     21  C   UNL     1     -35.424  23.606   5.930  0.00  0.00    -0.002 C 
ATOM     22  C   UNL     1     -35.494  22.897   3.620  0.00  0.00    -0.002 C 
ATOM     23  C   UNL     1     -35.244  22.282   6.330  0.00  0.00    -0.000 C 
ATOM     24  C   UNL     1     -35.316  21.574   4.021  0.00  0.00    -0.000 C 
ATOM     25  C   UNL     1     -35.190  21.265   5.376  0.00  0.00    -0.000 C 
ENDBRANCH  19  20
BRANCH  19  26
ATOM     26  S   UNL     1     -34.274  26.229   4.583  0.00  0.00    +0.033 S 
ATOM     27  O   UNL     1     -34.627  27.620   3.809  0.00  0.00    -0.069 OA
ATOM     28  O   UNL     1     -33.140  25.604   3.929  0.00  0.00    -0.069 OA
ATOM     29  O   UNL     1     -34.290  26.472   6.012  0.00  0.00    -0.069 OA
ENDBRANCH  19  26
ENDBRANCH   3  19
TORSDOF 6
ENDMDL
MODEL 9
REMARK VINA RESULT:      -6.2      3.928      6.808
REMARK  Name = 20055036
REMARK  6 active torsions:
REMARK  status: ('A' for Active; 'I' for Inactive)
REMARK    1  A    between atoms: N_2  and  CA_11
REMARK    2  A    between atoms: C_3  and  C_19
REMARK    3  A    between atoms: CA_10  and  C_16
REMARK    4  A    between atoms: C_16  and  O_17
REMARK    5  A    between atoms: C_19  and  C_20
REMARK    6  A    between atoms: C_19  and  S_26
REMARK                            x       y       z     vdW  Elec       q    Type
REMARK                         _______ _______ _______ _____ _____    ______ ____
ROOT
ATOM      1  O   UNL     1     -32.962  25.135   3.854  0.00  0.00    -0.273 OA
ATOM      2  N   UNL     1     -34.042  26.774   2.616  0.00  0.00    -0.295 N 
ATOM      3  C   UNL     1     -33.978  25.562   3.307  0.00  0.00    +0.249 C 
ATOM      4  H   UNL     1     -34.899  27.039   2.209  0.00  0.00    +0.150 HD
ENDROOT
BRANCH   2  11
ATOM      5  S   UNL     1     -34.461  28.840   0.370  0.00  0.00    -0.118 S 
ATOM      6  O   UNL     1     -33.085  29.141   4.545  0.00  0.00    -0.273 OA
ATOM      7  N   UNL     1     -32.932  29.734   2.266  0.00  0.00    -0.260 N 
ATOM      8  C   UNL     1     -32.889  28.645   1.287  0.00  0.00    +0.151 C 
ATOM      9  C   UNL     1     -34.421  30.685   0.622  0.00  0.00    +0.068 C 
ATOM     10  CA  UNL     1     -33.830  30.847   2.039  0.00  0.00    +0.184 C 
ATOM     11  CA  UNL     1     -32.895  27.667   2.471  0.00  0.00    +0.178 C 
ATOM     12  C   UNL     1     -32.946  28.923   3.363  0.00  0.00    +0.247 C 
ATOM     13  C   UNL     1     -35.850  31.227   0.548  0.00  0.00    +0.013 C 
ATOM     14  C   UNL     1     -33.568  31.297  -0.497  0.00  0.00    +0.013 C 
BRANCH  10  16
ATOM     15  OXT UNL     1     -31.829  32.160   2.353  0.00  0.00    -0.248 OA
ATOM     16  C   UNL     1     -33.046  32.101   2.266  0.00  0.00    +0.333 C 
BRANCH  16  17
ATOM     17  O   UNL     1     -33.872  33.171   2.364  0.00  0.00    -0.479 OA
ATOM     18  H   UNL     1     -34.443  33.256   3.103  0.00  0.00    +0.295 HD
ENDBRANCH  16  17
ENDBRANCH  10  16
ENDBRANCH   2  11
BRANCH   3  19
ATOM     19  C   UNL     1     -35.300  24.819   3.310  0.00  0.00    +0.233 C 
BRANCH  19  20
ATOM     20  C   UNL     1     -35.265  23.540   4.109  0.00  0.00    +0.009 C 
ATOM     21  C   UNL     1     -35.335  22.308   3.457  0.00  0.00    -0.002 C 
ATOM     22  C   UNL     1     -35.162  23.588   5.500  0.00  0.00    -0.002 C 
ATOM     23  C   UNL     1     -35.303  21.125   4.195  0.00  0.00    -0.000 C 
ATOM     24  C   UNL     1     -35.129  22.405   6.238  0.00  0.00    -0.000 C 
ATOM     25  C   UNL     1     -35.199  21.174   5.586  0.00  0.00    -0.000 C 
ENDBRANCH  19  20
BRANCH  19  26
ATOM     26  S   UNL     1     -36.605  25.813   3.972  0.00  0.00    +0.033 S 
ATOM     27  O   UNL     1     -36.893  26.698   2.634  0.00  0.00    -0.069 OA
ATOM     28  O   UNL     1     -36.057  26.680   4.998  0.00  0.00    -0.069 OA
ATOM     29  O   UNL     1     -37.753  24.964   4.227  0.00  0.00    -0.069 OA
ENDBRANCH  19  26
ENDBRANCH   3  19
TORSDOF 6
ENDMDL
