MODEL 1
REMARK VINA RESULT:      -6.2      0.000      0.000
REMARK  Name = 54672084
REMARK  7 active torsions:
REMARK  status: ('A' for Active; 'I' for Inactive)
REMARK    1  A    between atoms: C_5  and  C_12
REMARK    2  A    between atoms: C_6  and  O_24
REMARK    3  A    between atoms: C_8  and  O_26
REMARK    4  A    between atoms: C_10  and  O_28
REMARK    5  A    between atoms: C_13  and  O_18
REMARK    6  A    between atoms: C_15  and  O_22
REMARK    7  A    between atoms: C_17  and  O_20
REMARK                            x       y       z     vdW  Elec       q    Type
REMARK                         _______ _______ _______ _____ _____    ______ ____
ROOT
ATOM      1  O   UNL     1     -36.484  22.296   2.054  0.00  0.00    -0.447 OA
ATOM      2  O   UNL     1     -40.522  22.334   1.528  0.00  0.00    -0.283 OA
ATOM      3  C   UNL     1     -38.442  21.397   0.940  0.00  0.00    +0.080 A 
ATOM      4  C   UNL     1     -37.068  21.431   1.166  0.00  0.00    +0.185 A 
ATOM      5  C   UNL     1     -37.293  23.178   2.751  0.00  0.00    +0.185 A 
ATOM      6  C   UNL     1     -38.635  23.242   2.635  0.00  0.00    +0.212 A 
ATOM      7  C   UNL     1     -39.308  22.323   1.684  0.00  0.00    +0.235 A 
ATOM      8  C   UNL     1     -36.225  20.562   0.474  0.00  0.00    +0.207 C 
ATOM      9  C   UNL     1     -38.983  20.495   0.021  0.00  0.00    +0.010 C 
ATOM     10  C   UNL     1     -36.761  19.658  -0.444  0.00  0.00    +0.175 C 
ATOM     11  C   UNL     1     -38.138  19.626  -0.671  0.00  0.00    +0.040 C 
ENDROOT
BRANCH   5  12
ATOM     12  C   UNL     1     -36.524  24.047   3.655  0.00  0.00    +0.075 C 
ATOM     13  C   UNL     1     -35.960  23.544   4.829  0.00  0.00    +0.140 C 
ATOM     14  C   UNL     1     -36.360  25.391   3.325  0.00  0.00    +0.046 C 
ATOM     15  C   UNL     1     -35.633  26.234   4.166  0.00  0.00    +0.168 C 
ATOM     16  C   UNL     1     -35.234  24.386   5.669  0.00  0.00    +0.077 C 
ATOM     17  C   UNL     1     -35.069  25.731   5.338  0.00  0.00    +0.175 C 
BRANCH  13  18
ATOM     18  O   UNL     1     -36.105  22.233   5.176  0.00  0.00    -0.505 OA
ATOM     19  H   UNL     1     -35.916  21.559   4.553  0.00  0.00    +0.292 HD
ENDBRANCH  13  18
BRANCH  17  20
ATOM     20  O   UNL     1     -34.358  26.544   6.169  0.00  0.00    -0.468 OA
ATOM     21  C   UNL     1     -33.007  26.819   5.805  0.00  0.00    +0.253 C 
ENDBRANCH  17  20
BRANCH  15  22
ATOM     22  O   UNL     1     -35.479  27.546   3.831  0.00  0.00    -0.503 OA
ATOM     23  H   UNL     1     -35.066  27.779   3.023  0.00  0.00    +0.292 HD
ENDBRANCH  15  22
ENDBRANCH   5  12
BRANCH   6  24
ATOM     24  O   UNL     1     -39.458  24.091   3.341  0.00  0.00    -0.465 OA
ATOM     25  C   UNL     1     -39.799  25.225   2.565  0.00  0.00    +0.253 C 
ENDBRANCH   6  24
BRANCH   8  26
ATOM     26  O   UNL     1     -34.879  20.589   0.691  0.00  0.00    -0.465 OA
ATOM     27  C   UNL     1     -34.366  19.705   1.684  0.00  0.00    +0.253 C 
ENDBRANCH   8  26
BRANCH  10  28
ATOM     28  O   UNL     1     -35.952  18.803  -1.130  0.00  0.00    -0.468 OA
ATOM     29  C   UNL     1     -36.035  17.420  -0.791  0.00  0.00    +0.253 C 
ENDBRANCH  10  28
TORSDOF 7
ENDMDL
MODEL 2
REMARK VINA RESULT:      -6.1      1.236      1.443
REMARK  Name = 54672084
REMARK  7 active torsions:
REMARK  status: ('A' for Active; 'I' for Inactive)
REMARK    1  A    between atoms: C_5  and  C_12
REMARK    2  A    between atoms: C_6  and  O_24
REMARK    3  A    between atoms: C_8  and  O_26
REMARK    4  A    between atoms: C_10  and  O_28
REMARK    5  A    between atoms: C_13  and  O_18
REMARK    6  A    between atoms: C_15  and  O_22
REMARK    7  A    between atoms: C_17  and  O_20
REMARK                            x       y       z     vdW  Elec       q    Type
REMARK                         _______ _______ _______ _____ _____    ______ ____
ROOT
ATOM      1  O   UNL     1     -35.833  21.410   1.988  0.00  0.00    -0.447 OA
ATOM      2  O   UNL     1     -39.657  20.839   0.709  0.00  0.00    -0.283 OA
ATOM      3  C   UNL     1     -37.407  20.147   0.641  0.00  0.00    +0.080 A 
ATOM      4  C   UNL     1     -36.121  20.393   1.117  0.00  0.00    +0.185 A 
ATOM      5  C   UNL     1     -36.865  22.234   2.408  0.00  0.00    +0.185 A 
ATOM      6  C   UNL     1     -38.154  22.101   2.034  0.00  0.00    +0.212 A 
ATOM      7  C   UNL     1     -38.508  21.011   1.092  0.00  0.00    +0.235 A 
ATOM      8  C   UNL     1     -35.059  19.586   0.706  0.00  0.00    +0.207 C 
ATOM      9  C   UNL     1     -37.641  19.095  -0.247  0.00  0.00    +0.010 C 
ATOM     10  C   UNL     1     -35.289  18.534  -0.180  0.00  0.00    +0.175 C 
ATOM     11  C   UNL     1     -36.578  18.289  -0.656  0.00  0.00    +0.040 C 
ENDROOT
BRANCH   5  12
ATOM     12  C   UNL     1     -36.401  23.284   3.330  0.00  0.00    +0.075 C 
ATOM     13  C   UNL     1     -36.005  22.974   4.631  0.00  0.00    +0.140 C 
ATOM     14  C   UNL     1     -36.361  24.605   2.885  0.00  0.00    +0.046 C 
ATOM     15  C   UNL     1     -35.923  25.616   3.740  0.00  0.00    +0.168 C 
ATOM     16  C   UNL     1     -35.569  23.985   5.486  0.00  0.00    +0.077 C 
ATOM     17  C   UNL     1     -35.526  25.306   5.041  0.00  0.00    +0.175 C 
BRANCH  13  18
ATOM     18  O   UNL     1     -36.036  21.691   5.092  0.00  0.00    -0.505 OA
ATOM     19  H   UNL     1     -35.283  21.141   4.999  0.00  0.00    +0.292 HD
ENDBRANCH  13  18
BRANCH  17  20
ATOM     20  O   UNL     1     -35.099  26.285   5.886  0.00  0.00    -0.468 OA
ATOM     21  C   UNL     1     -33.690  26.486   5.986  0.00  0.00    +0.253 C 
ENDBRANCH  17  20
BRANCH  15  22
ATOM     22  O   UNL     1     -35.887  26.903   3.293  0.00  0.00    -0.503 OA
ATOM     23  H   UNL     1     -35.182  27.467   3.544  0.00  0.00    +0.292 HD
ENDBRANCH  15  22
ENDBRANCH   5  12
BRANCH   6  24
ATOM     24  O   UNL     1     -39.196  22.891   2.464  0.00  0.00    -0.465 OA
ATOM     25  C   UNL     1     -39.533  23.859   1.487  0.00  0.00    +0.253 C 
ENDBRANCH   6  24
BRANCH   8  26
ATOM     26  O   UNL     1     -33.797  19.820   1.168  0.00  0.00    -0.465 OA
ATOM     27  C   UNL     1     -32.919  20.546   0.310  0.00  0.00    +0.253 C 
ENDBRANCH   8  26
BRANCH  10  28
ATOM     28  O   UNL     1     -34.263  17.737  -0.592  0.00  0.00    -0.468 OA
ATOM     29  C   UNL     1     -34.221  16.412  -0.069  0.00  0.00    +0.253 C 
ENDBRANCH  10  28
TORSDOF 7
ENDMDL
MODEL 3
REMARK VINA RESULT:      -5.9      2.379      5.976
REMARK  Name = 54672084
REMARK  7 active torsions:
REMARK  status: ('A' for Active; 'I' for Inactive)
REMARK    1  A    between atoms: C_5  and  C_12
REMARK    2  A    between atoms: C_6  and  O_24
REMARK    3  A    between atoms: C_8  and  O_26
REMARK    4  A    between atoms: C_10  and  O_28
REMARK    5  A    between atoms: C_13  and  O_18
REMARK    6  A    between atoms: C_15  and  O_22
REMARK    7  A    between atoms: C_17  and  O_20
REMARK                            x       y       z     vdW  Elec       q    Type
REMARK                         _______ _______ _______ _____ _____    ______ ____
ROOT
ATOM      1  O   UNL     1     -37.602  22.574   1.394  0.00  0.00    -0.447 OA
ATOM      2  O   UNL     1     -37.252  25.035   4.619  0.00  0.00    -0.283 OA
ATOM      3  C   UNL     1     -38.581  24.262   2.835  0.00  0.00    +0.080 A 
ATOM      4  C   UNL     1     -38.640  23.397   1.745  0.00  0.00    +0.185 A 
ATOM      5  C   UNL     1     -36.443  22.610   2.151  0.00  0.00    +0.185 A 
ATOM      6  C   UNL     1     -36.258  23.391   3.234  0.00  0.00    +0.212 A 
ATOM      7  C   UNL     1     -37.357  24.297   3.649  0.00  0.00    +0.235 A 
ATOM      8  C   UNL     1     -39.791  23.343   0.958  0.00  0.00    +0.207 C 
ATOM      9  C   UNL     1     -39.670  25.079   3.146  0.00  0.00    +0.010 C 
ATOM     10  C   UNL     1     -40.881  24.157   1.266  0.00  0.00    +0.175 C 
ATOM     11  C   UNL     1     -40.820  25.024   2.358  0.00  0.00    +0.040 C 
ENDROOT
BRANCH   5  12
ATOM     12  C   UNL     1     -35.417  21.683   1.646  0.00  0.00    +0.075 C 
ATOM     13  C   UNL     1     -35.483  20.317   1.926  0.00  0.00    +0.140 C 
ATOM     14  C   UNL     1     -34.369  22.186   0.876  0.00  0.00    +0.046 C 
ATOM     15  C   UNL     1     -33.387  21.326   0.385  0.00  0.00    +0.168 C 
ATOM     16  C   UNL     1     -34.501  19.457   1.435  0.00  0.00    +0.077 C 
ATOM     17  C   UNL     1     -33.453  19.961   0.665  0.00  0.00    +0.175 C 
BRANCH  13  18
ATOM     18  O   UNL     1     -36.497  19.798   2.676  0.00  0.00    -0.505 OA
ATOM     19  H   UNL     1     -36.311  19.161   3.338  0.00  0.00    +0.292 HD
ENDBRANCH  13  18
BRANCH  17  20
ATOM     20  O   UNL     1     -32.499  19.111   0.193  0.00  0.00    -0.468 OA
ATOM     21  C   UNL     1     -31.981  18.147   1.108  0.00  0.00    +0.253 C 
ENDBRANCH  17  20
BRANCH  15  22
ATOM     22  O   UNL     1     -32.369  21.830  -0.366  0.00  0.00    -0.503 OA
ATOM     23  H   UNL     1     -31.999  21.320  -1.059  0.00  0.00    +0.292 HD
ENDBRANCH  15  22
ENDBRANCH   5  12
BRANCH   6  24
ATOM     24  O   UNL     1     -35.124  23.419   4.015  0.00  0.00    -0.465 OA
ATOM     25  C   UNL     1     -35.242  22.526   5.107  0.00  0.00    +0.253 C 
ENDBRANCH   6  24
BRANCH   8  26
ATOM     26  O   UNL     1     -39.856  22.498  -0.110  0.00  0.00    -0.465 OA
ATOM     27  C   UNL     1     -40.323  21.174   0.140  0.00  0.00    +0.253 C 
ENDBRANCH   8  26
BRANCH  10  28
ATOM     28  O   UNL     1     -42.012  24.118   0.507  0.00  0.00    -0.468 OA
ATOM     29  C   UNL     1     -43.067  25.005   0.871  0.00  0.00    +0.253 C 
ENDBRANCH  10  28
TORSDOF 7
ENDMDL
MODEL 4
REMARK VINA RESULT:      -5.8      2.504      7.704
REMARK  Name = 54672084
REMARK  7 active torsions:
REMARK  status: ('A' for Active; 'I' for Inactive)
REMARK    1  A    between atoms: C_5  and  C_12
REMARK    2  A    between atoms: C_6  and  O_24
REMARK    3  A    between atoms: C_8  and  O_26
REMARK    4  A    between atoms: C_10  and  O_28
REMARK    5  A    between atoms: C_13  and  O_18
REMARK    6  A    between atoms: C_15  and  O_22
REMARK    7  A    between atoms: C_17  and  O_20
REMARK                            x       y       z     vdW  Elec       q    Type
REMARK                         _______ _______ _______ _____ _____    ______ ____
ROOT
ATOM      1  O   UNL     1     -35.806  26.226   2.784  0.00  0.00    -0.447 OA
ATOM      2  O   UNL     1     -33.910  25.767   6.359  0.00  0.00    -0.283 OA
ATOM      3  C   UNL     1     -34.073  26.942   4.323  0.00  0.00    +0.080 A 
ATOM      4  C   UNL     1     -34.763  27.049   3.118  0.00  0.00    +0.185 A 
ATOM      5  C   UNL     1     -36.186  25.240   3.680  0.00  0.00    +0.185 A 
ATOM      6  C   UNL     1     -35.611  25.034   4.882  0.00  0.00    +0.212 A 
ATOM      7  C   UNL     1     -34.478  25.905   5.283  0.00  0.00    +0.235 A 
ATOM      8  C   UNL     1     -34.400  28.027   2.191  0.00  0.00    +0.207 C 
ATOM      9  C   UNL     1     -33.016  27.808   4.611  0.00  0.00    +0.010 C 
ATOM     10  C   UNL     1     -33.346  28.895   2.474  0.00  0.00    +0.175 C 
ATOM     11  C   UNL     1     -32.654  28.785   3.682  0.00  0.00    +0.040 C 
ENDROOT
BRANCH   5  12
ATOM     12  C   UNL     1     -37.308  24.432   3.178  0.00  0.00    +0.075 C 
ATOM     13  C   UNL     1     -38.570  24.996   2.984  0.00  0.00    +0.140 C 
ATOM     14  C   UNL     1     -37.097  23.083   2.895  0.00  0.00    +0.046 C 
ATOM     15  C   UNL     1     -38.146  22.298   2.416  0.00  0.00    +0.168 C 
ATOM     16  C   UNL     1     -39.618  24.210   2.506  0.00  0.00    +0.077 C 
ATOM     17  C   UNL     1     -39.406  22.861   2.222  0.00  0.00    +0.175 C 
BRANCH  13  18
ATOM     18  O   UNL     1     -38.804  26.312   3.253  0.00  0.00    -0.505 OA
ATOM     19  H   UNL     1     -38.689  26.955   2.583  0.00  0.00    +0.292 HD
ENDBRANCH  13  18
BRANCH  17  20
ATOM     20  O   UNL     1     -40.439  22.104   1.757  0.00  0.00    -0.468 OA
ATOM     21  C   UNL     1     -40.572  21.989   0.342  0.00  0.00    +0.253 C 
ENDBRANCH  17  20
BRANCH  15  22
ATOM     22  O   UNL     1     -37.926  20.981   2.142  0.00  0.00    -0.503 OA
ATOM     23  H   UNL     1     -38.445  20.322   2.559  0.00  0.00    +0.292 HD
ENDBRANCH  15  22
ENDBRANCH   5  12
BRANCH   6  24
ATOM     24  O   UNL     1     -35.994  24.079   5.798  0.00  0.00    -0.465 OA
ATOM     25  C   UNL     1     -35.149  22.946   5.729  0.00  0.00    +0.253 C 
ENDBRANCH   6  24
BRANCH   8  26
ATOM     26  O   UNL     1     -35.071  28.138   1.009  0.00  0.00    -0.465 OA
ATOM     27  C   UNL     1     -36.210  28.996   0.990  0.00  0.00    +0.253 C 
ENDBRANCH   8  26
BRANCH  10  28
ATOM     28  O   UNL     1     -32.977  29.854   1.579  0.00  0.00    -0.468 OA
ATOM     29  C   UNL     1     -33.264  31.207   1.924  0.00  0.00    +0.253 C 
ENDBRANCH  10  28
TORSDOF 7
ENDMDL
MODEL 5
REMARK VINA RESULT:      -5.7      2.179      3.799
REMARK  Name = 54672084
REMARK  7 active torsions:
REMARK  status: ('A' for Active; 'I' for Inactive)
REMARK    1  A    between atoms: C_5  and  C_12
REMARK    2  A    between atoms: C_6  and  O_24
REMARK    3  A    between atoms: C_8  and  O_26
REMARK    4  A    between atoms: C_10  and  O_28
REMARK    5  A    between atoms: C_13  and  O_18
REMARK    6  A    between atoms: C_15  and  O_22
REMARK    7  A    between atoms: C_17  and  O_20
REMARK                            x       y       z     vdW  Elec       q    Type
REMARK                         _______ _______ _______ _____ _____    ______ ____
ROOT
ATOM      1  O   UNL     1     -34.481  19.988   1.543  0.00  0.00    -0.447 OA
ATOM      2  O   UNL     1     -37.987  18.958  -0.255  0.00  0.00    -0.283 OA
ATOM      3  C   UNL     1     -35.682  18.548   0.003  0.00  0.00    +0.080 A 
ATOM      4  C   UNL     1     -34.515  18.948   0.652  0.00  0.00    +0.185 A 
ATOM      5  C   UNL     1     -35.654  20.676   1.803  0.00  0.00    +0.185 A 
ATOM      6  C   UNL     1     -36.851  20.388   1.253  0.00  0.00    +0.212 A 
ATOM      7  C   UNL     1     -36.932  19.268   0.283  0.00  0.00    +0.235 A 
ATOM      8  C   UNL     1     -33.316  18.280   0.405  0.00  0.00    +0.207 C 
ATOM      9  C   UNL     1     -35.658  17.480  -0.897  0.00  0.00    +0.010 C 
ATOM     10  C   UNL     1     -33.287  17.212  -0.492  0.00  0.00    +0.175 C 
ATOM     11  C   UNL     1     -34.456  16.813  -1.143  0.00  0.00    +0.040 C 
ENDROOT
BRANCH   5  12
ATOM     12  C   UNL     1     -35.458  21.770   2.768  0.00  0.00    +0.075 C 
ATOM     13  C   UNL     1     -35.013  23.025   2.350  0.00  0.00    +0.140 C 
ATOM     14  C   UNL     1     -35.724  21.539   4.117  0.00  0.00    +0.046 C 
ATOM     15  C   UNL     1     -35.547  22.561   5.049  0.00  0.00    +0.168 C 
ATOM     16  C   UNL     1     -34.835  24.047   3.283  0.00  0.00    +0.077 C 
ATOM     17  C   UNL     1     -35.103  23.816   4.632  0.00  0.00    +0.175 C 
BRANCH  13  18
ATOM     18  O   UNL     1     -34.744  23.279   1.038  0.00  0.00    -0.505 OA
ATOM     19  H   UNL     1     -35.447  23.396   0.430  0.00  0.00    +0.292 HD
ENDBRANCH  13  18
BRANCH  17  20
ATOM     20  O   UNL     1     -34.924  24.822   5.532  0.00  0.00    -0.468 OA
ATOM     21  C   UNL     1     -35.860  25.897   5.498  0.00  0.00    +0.253 C 
ENDBRANCH  17  20
BRANCH  15  22
ATOM     22  O   UNL     1     -35.812  22.323   6.364  0.00  0.00    -0.503 OA
ATOM     23  H   UNL     1     -36.300  22.946   6.865  0.00  0.00    +0.292 HD
ENDBRANCH  15  22
ENDBRANCH   5  12
BRANCH   6  24
ATOM     24  O   UNL     1     -38.033  21.042   1.522  0.00  0.00    -0.465 OA
ATOM     25  C   UNL     1     -38.222  22.129   0.635  0.00  0.00    +0.253 C 
ENDBRANCH   6  24
BRANCH   8  26
ATOM     26  O   UNL     1     -32.170  18.665   1.037  0.00  0.00    -0.465 OA
ATOM     27  C   UNL     1     -31.291  19.524   0.315  0.00  0.00    +0.253 C 
ENDBRANCH   8  26
BRANCH  10  28
ATOM     28  O   UNL     1     -32.124  16.550  -0.746  0.00  0.00    -0.468 OA
ATOM     29  C   UNL     1     -32.095  15.155  -0.452  0.00  0.00    +0.253 C 
ENDBRANCH  10  28
TORSDOF 7
ENDMDL
MODEL 6
REMARK VINA RESULT:      -5.7      3.498      7.867
REMARK  Name = 54672084
REMARK  7 active torsions:
REMARK  status: ('A' for Active; 'I' for Inactive)
REMARK    1  A    between atoms: C_5  and  C_12
REMARK    2  A    between atoms: C_6  and  O_24
REMARK    3  A    between atoms: C_8  and  O_26
REMARK    4  A    between atoms: C_10  and  O_28
REMARK    5  A    between atoms: C_13  and  O_18
REMARK    6  A    between atoms: C_15  and  O_22
REMARK    7  A    between atoms: C_17  and  O_20
REMARK                            x       y       z     vdW  Elec       q    Type
REMARK                         _______ _______ _______ _____ _____    ______ ____
ROOT
ATOM      1  O   UNL     1     -34.911  27.893   3.084  0.00  0.00    -0.447 OA
ATOM      2  O   UNL     1     -37.642  29.070   0.300  0.00  0.00    -0.283 OA
ATOM      3  C   UNL     1     -35.805  29.642   1.660  0.00  0.00    +0.080 A 
ATOM      4  C   UNL     1     -34.898  29.179   2.609  0.00  0.00    +0.185 A 
ATOM      5  C   UNL     1     -35.874  27.020   2.603  0.00  0.00    +0.185 A 
ATOM      6  C   UNL     1     -36.803  27.336   1.678  0.00  0.00    +0.212 A 
ATOM      7  C   UNL     1     -36.822  28.717   1.138  0.00  0.00    +0.235 A 
ATOM      8  C   UNL     1     -33.922  30.036   3.118  0.00  0.00    +0.207 C 
ATOM      9  C   UNL     1     -35.745  30.964   1.213  0.00  0.00    +0.010 C 
ATOM     10  C   UNL     1     -33.857  31.356   2.674  0.00  0.00    +0.175 C 
ATOM     11  C   UNL     1     -34.768  31.820   1.723  0.00  0.00    +0.040 C 
ENDROOT
BRANCH   5  12
ATOM     12  C   UNL     1     -35.770  25.684   3.212  0.00  0.00    +0.075 C 
ATOM     13  C   UNL     1     -36.070  25.484   4.560  0.00  0.00    +0.140 C 
ATOM     14  C   UNL     1     -35.365  24.610   2.422  0.00  0.00    +0.046 C 
ATOM     15  C   UNL     1     -35.261  23.334   2.977  0.00  0.00    +0.168 C 
ATOM     16  C   UNL     1     -35.965  24.209   5.115  0.00  0.00    +0.077 C 
ATOM     17  C   UNL     1     -35.562  23.134   4.324  0.00  0.00    +0.175 C 
BRANCH  13  18
ATOM     18  O   UNL     1     -36.468  26.517   5.357  0.00  0.00    -0.505 OA
ATOM     19  H   UNL     1     -35.836  26.990   5.861  0.00  0.00    +0.292 HD
ENDBRANCH  13  18
BRANCH  17  20
ATOM     20  O   UNL     1     -35.462  21.893   4.878  0.00  0.00    -0.468 OA
ATOM     21  C   UNL     1     -35.198  21.829   6.278  0.00  0.00    +0.253 C 
ENDBRANCH  17  20
BRANCH  15  22
ATOM     22  O   UNL     1     -34.865  22.293   2.193  0.00  0.00    -0.503 OA
ATOM     23  H   UNL     1     -33.980  22.244   1.888  0.00  0.00    +0.292 HD
ENDBRANCH  15  22
ENDBRANCH   5  12
BRANCH   6  24
ATOM     24  O   UNL     1     -37.747  26.473   1.168  0.00  0.00    -0.465 OA
ATOM     25  C   UNL     1     -38.833  26.325   2.064  0.00  0.00    +0.253 C 
ENDBRANCH   6  24
BRANCH   8  26
ATOM     26  O   UNL     1     -33.030  29.588   4.048  0.00  0.00    -0.465 OA
ATOM     27  C   UNL     1     -31.800  29.055   3.561  0.00  0.00    +0.253 C 
ENDBRANCH   8  26
BRANCH  10  28
ATOM     28  O   UNL     1     -32.911  32.207   3.162  0.00  0.00    -0.468 OA
ATOM     29  C   UNL     1     -31.985  32.753   2.225  0.00  0.00    +0.253 C 
ENDBRANCH  10  28
TORSDOF 7
ENDMDL
MODEL 7
REMARK VINA RESULT:      -5.6      4.109      7.856
REMARK  Name = 54672084
REMARK  7 active torsions:
REMARK  status: ('A' for Active; 'I' for Inactive)
REMARK    1  A    between atoms: C_5  and  C_12
REMARK    2  A    between atoms: C_6  and  O_24
REMARK    3  A    between atoms: C_8  and  O_26
REMARK    4  A    between atoms: C_10  and  O_28
REMARK    5  A    between atoms: C_13  and  O_18
REMARK    6  A    between atoms: C_15  and  O_22
REMARK    7  A    between atoms: C_17  and  O_20
REMARK                            x       y       z     vdW  Elec       q    Type
REMARK                         _______ _______ _______ _____ _____    ______ ____
ROOT
ATOM      1  O   UNL     1     -34.710  27.957   3.310  0.00  0.00    -0.447 OA
ATOM      2  O   UNL     1     -32.194  26.907   6.336  0.00  0.00    -0.283 OA
ATOM      3  C   UNL     1     -34.114  26.396   5.069  0.00  0.00    +0.080 A 
ATOM      4  C   UNL     1     -34.936  26.808   4.023  0.00  0.00    +0.185 A 
ATOM      5  C   UNL     1     -33.623  28.745   3.650  0.00  0.00    +0.185 A 
ATOM      6  C   UNL     1     -32.745  28.458   4.632  0.00  0.00    +0.212 A 
ATOM      7  C   UNL     1     -32.952  27.223   5.428  0.00  0.00    +0.235 A 
ATOM      8  C   UNL     1     -36.043  26.041   3.662  0.00  0.00    +0.207 C 
ATOM      9  C   UNL     1     -34.392  25.216   5.762  0.00  0.00    +0.010 C 
ATOM     10  C   UNL     1     -36.324  24.861   4.350  0.00  0.00    +0.175 C 
ATOM     11  C   UNL     1     -35.500  24.449   5.399  0.00  0.00    +0.040 C 
ENDROOT
BRANCH   5  12
ATOM     12  C   UNL     1     -33.519  29.947   2.807  0.00  0.00    +0.075 C 
ATOM     13  C   UNL     1     -34.452  30.979   2.909  0.00  0.00    +0.140 C 
ATOM     14  C   UNL     1     -32.468  30.045   1.897  0.00  0.00    +0.046 C 
ATOM     15  C   UNL     1     -32.348  31.176   1.088  0.00  0.00    +0.168 C 
ATOM     16  C   UNL     1     -34.332  32.109   2.100  0.00  0.00    +0.077 C 
ATOM     17  C   UNL     1     -33.280  32.208   1.190  0.00  0.00    +0.175 C 
BRANCH  13  18
ATOM     18  O   UNL     1     -35.490  30.909   3.790  0.00  0.00    -0.505 OA
ATOM     19  H   UNL     1     -35.567  30.173   4.366  0.00  0.00    +0.292 HD
ENDBRANCH  13  18
BRANCH  17  20
ATOM     20  O   UNL     1     -33.175  33.316   0.405  0.00  0.00    -0.468 OA
ATOM     21  C   UNL     1     -34.158  34.333   0.584  0.00  0.00    +0.253 C 
ENDBRANCH  17  20
BRANCH  15  22
ATOM     22  O   UNL     1     -31.315  31.260   0.203  0.00  0.00    -0.503 OA
ATOM     23  H   UNL     1     -30.700  31.964   0.265  0.00  0.00    +0.292 HD
ENDBRANCH  15  22
ENDBRANCH   5  12
BRANCH   6  24
ATOM     24  O   UNL     1     -31.642  29.214   4.964  0.00  0.00    -0.465 OA
ATOM     25  C   UNL     1     -31.987  30.232   5.885  0.00  0.00    +0.253 C 
ENDBRANCH   6  24
BRANCH   8  26
ATOM     26  O   UNL     1     -36.852  26.438   2.638  0.00  0.00    -0.465 OA
ATOM     27  C   UNL     1     -36.466  26.050   1.321  0.00  0.00    +0.253 C 
ENDBRANCH   8  26
BRANCH  10  28
ATOM     28  O   UNL     1     -37.403  24.100   4.011  0.00  0.00    -0.468 OA
ATOM     29  C   UNL     1     -37.157  22.948   3.207  0.00  0.00    +0.253 C 
ENDBRANCH  10  28
TORSDOF 7
ENDMDL
MODEL 8
REMARK VINA RESULT:      -5.6      4.312      8.660
REMARK  Name = 54672084
REMARK  7 active torsions:
REMARK  status: ('A' for Active; 'I' for Inactive)
REMARK    1  A    between atoms: C_5  and  C_12
REMARK    2  A    between atoms: C_6  and  O_24
REMARK    3  A    between atoms: C_8  and  O_26
REMARK    4  A    between atoms: C_10  and  O_28
REMARK    5  A    between atoms: C_13  and  O_18
REMARK    6  A    between atoms: C_15  and  O_22
REMARK    7  A    between atoms: C_17  and  O_20
REMARK                            x       y       z     vdW  Elec       q    Type
REMARK                         _______ _______ _______ _____ _____    ______ ____
ROOT
ATOM      1  O   UNL     1     -33.771  28.371   3.762  0.00  0.00    -0.447 OA
ATOM      2  O   UNL     1     -34.979  29.864   0.170  0.00  0.00    -0.283 OA
ATOM      3  C   UNL     1     -33.670  30.143   2.108  0.00  0.00    +0.080 A 
ATOM      4  C   UNL     1     -33.294  29.579   3.325  0.00  0.00    +0.185 A 
ATOM      5  C   UNL     1     -34.672  27.686   2.962  0.00  0.00    +0.185 A 
ATOM      6  C   UNL     1     -35.110  28.113   1.760  0.00  0.00    +0.212 A 
ATOM      7  C   UNL     1     -34.617  29.416   1.250  0.00  0.00    +0.235 A 
ATOM      8  C   UNL     1     -32.396  30.248   4.157  0.00  0.00    +0.207 C 
ATOM      9  C   UNL     1     -33.152  31.379   1.714  0.00  0.00    +0.010 C 
ATOM     10  C   UNL     1     -31.875  31.481   3.767  0.00  0.00    +0.175 C 
ATOM     11  C   UNL     1     -32.253  32.046   2.548  0.00  0.00    +0.040 C 
ENDROOT
BRANCH   5  12
ATOM     12  C   UNL     1     -35.102  26.415   3.567  0.00  0.00    +0.075 C 
ATOM     13  C   UNL     1     -34.168  25.498   4.051  0.00  0.00    +0.140 C 
ATOM     14  C   UNL     1     -36.465  26.134   3.653  0.00  0.00    +0.046 C 
ATOM     15  C   UNL     1     -36.896  24.937   4.225  0.00  0.00    +0.168 C 
ATOM     16  C   UNL     1     -34.600  24.301   4.622  0.00  0.00    +0.077 C 
ATOM     17  C   UNL     1     -35.963  24.020   4.710  0.00  0.00    +0.175 C 
BRANCH  13  18
ATOM     18  O   UNL     1     -32.830  25.747   3.979  0.00  0.00    -0.505 OA
ATOM     19  H   UNL     1     -32.472  26.509   4.391  0.00  0.00    +0.292 HD
ENDBRANCH  13  18
BRANCH  17  20
ATOM     20  O   UNL     1     -36.371  22.846   5.268  0.00  0.00    -0.468 OA
ATOM     21  C   UNL     1     -35.452  22.189   6.139  0.00  0.00    +0.253 C 
ENDBRANCH  17  20
BRANCH  15  22
ATOM     22  O   UNL     1     -38.230  24.674   4.304  0.00  0.00    -0.503 OA
ATOM     23  H   UNL     1     -38.845  25.232   3.869  0.00  0.00    +0.292 HD
ENDBRANCH  15  22
ENDBRANCH   5  12
BRANCH   6  24
ATOM     24  O   UNL     1     -35.981  27.432   0.939  0.00  0.00    -0.465 OA
ATOM     25  C   UNL     1     -35.279  26.567   0.066  0.00  0.00    +0.253 C 
ENDBRANCH   6  24
BRANCH   8  26
ATOM     26  O   UNL     1     -32.023  29.700   5.349  0.00  0.00    -0.465 OA
ATOM     27  C   UNL     1     -30.907  28.812   5.332  0.00  0.00    +0.253 C 
ENDBRANCH   8  26
BRANCH  10  28
ATOM     28  O   UNL     1     -30.997  32.148   4.568  0.00  0.00    -0.468 OA
ATOM     29  C   UNL     1     -29.631  32.163   4.161  0.00  0.00    +0.253 C 
ENDBRANCH  10  28
TORSDOF 7
ENDMDL
MODEL 9
REMARK VINA RESULT:      -5.5      2.097      4.326
REMARK  Name = 54672084
REMARK  7 active torsions:
REMARK  status: ('A' for Active; 'I' for Inactive)
REMARK    1  A    between atoms: C_5  and  C_12
REMARK    2  A    between atoms: C_6  and  O_24
REMARK    3  A    between atoms: C_8  and  O_26
REMARK    4  A    between atoms: C_10  and  O_28
REMARK    5  A    between atoms: C_13  and  O_18
REMARK    6  A    between atoms: C_15  and  O_22
REMARK    7  A    between atoms: C_17  and  O_20
REMARK                            x       y       z     vdW  Elec       q    Type
REMARK                         _______ _______ _______ _____ _____    ______ ____
ROOT
ATOM      1  O   UNL     1     -36.763  22.166   0.965  0.00  0.00    -0.447 OA
ATOM      2  O   UNL     1     -34.969  20.811   4.361  0.00  0.00    -0.283 OA
ATOM      3  C   UNL     1     -35.240  20.606   2.030  0.00  0.00    +0.080 A 
ATOM      4  C   UNL     1     -35.883  21.117   0.905  0.00  0.00    +0.185 A 
ATOM      5  C   UNL     1     -37.028  22.738   2.198  0.00  0.00    +0.185 A 
ATOM      6  C   UNL     1     -36.468  22.348   3.361  0.00  0.00    +0.212 A 
ATOM      7  C   UNL     1     -35.509  21.216   3.340  0.00  0.00    +0.235 A 
ATOM      8  C   UNL     1     -35.643  20.557  -0.351  0.00  0.00    +0.207 C 
ATOM      9  C   UNL     1     -34.353  19.534   1.909  0.00  0.00    +0.010 C 
ATOM     10  C   UNL     1     -34.757  19.487  -0.476  0.00  0.00    +0.175 C 
ATOM     11  C   UNL     1     -34.114  18.976   0.653  0.00  0.00    +0.040 C 
ENDROOT
BRANCH   5  12
ATOM     12  C   UNL     1     -37.997  23.842   2.105  0.00  0.00    +0.075 C 
ATOM     13  C   UNL     1     -39.371  23.596   2.129  0.00  0.00    +0.140 C 
ATOM     14  C   UNL     1     -37.525  25.149   1.991  0.00  0.00    +0.046 C 
ATOM     15  C   UNL     1     -38.425  26.211   1.904  0.00  0.00    +0.168 C 
ATOM     16  C   UNL     1     -40.270  24.658   2.041  0.00  0.00    +0.077 C 
ATOM     17  C   UNL     1     -39.798  25.966   1.929  0.00  0.00    +0.175 C 
BRANCH  13  18
ATOM     18  O   UNL     1     -39.860  22.328   2.239  0.00  0.00    -0.505 OA
ATOM     19  H   UNL     1     -39.272  21.607   2.355  0.00  0.00    +0.292 HD
ENDBRANCH  13  18
BRANCH  17  20
ATOM     20  O   UNL     1     -40.686  26.994   1.841  0.00  0.00    -0.468 OA
ATOM     21  C   UNL     1     -41.981  26.781   2.400  0.00  0.00    +0.253 C 
ENDBRANCH  17  20
BRANCH  15  22
ATOM     22  O   UNL     1     -37.951  27.484   1.794  0.00  0.00    -0.503 OA
ATOM     23  H   UNL     1     -38.020  27.942   0.980  0.00  0.00    +0.292 HD
ENDBRANCH  15  22
ENDBRANCH   5  12
BRANCH   6  24
ATOM     24  O   UNL     1     -36.697  22.924   4.591  0.00  0.00    -0.465 OA
ATOM     25  C   UNL     1     -35.719  23.907   4.878  0.00  0.00    +0.253 C 
ENDBRANCH   6  24
BRANCH   8  26
ATOM     26  O   UNL     1     -36.270  21.052  -1.457  0.00  0.00    -0.465 OA
ATOM     27  C   UNL     1     -35.593  22.081  -2.176  0.00  0.00    +0.253 C 
ENDBRANCH   8  26
BRANCH  10  28
ATOM     28  O   UNL     1     -34.513  18.927  -1.694  0.00  0.00    -0.468 OA
ATOM     29  C   UNL     1     -33.210  19.114  -2.243  0.00  0.00    +0.253 C 
ENDBRANCH  10  28
TORSDOF 7
ENDMDL
