MODEL 1
REMARK VINA RESULT:      -5.9      0.000      0.000
REMARK  Name = 5462835
REMARK  6 active torsions:
REMARK  status: ('A' for Active; 'I' for Inactive)
REMARK    1  A    between atoms: C_1  and  N_13
REMARK    2  A    between atoms: C_2  and  N_9
REMARK    3  A    between atoms: C_5  and  N_12
REMARK    4  A    between atoms: N_13  and  N_15
REMARK    5  A    between atoms: N_15  and  C_16
REMARK    6  A    between atoms: C_16  and  C_17
REMARK                            x       y       z     vdW  Elec       q    Type
REMARK                         _______ _______ _______ _____ _____    ______ ____
ROOT
ATOM      1  C   UNL     1     -35.873  22.824   3.464  0.00  0.00    +0.082 C 
ATOM      2  C   UNL     1     -35.371  22.961   4.763  0.00  0.00    +0.159 C 
ATOM      3  C   UNL     1     -35.746  23.888   2.563  0.00  0.00    +0.019 C 
ATOM      4  C   UNL     1     -34.749  24.146   5.157  0.00  0.00    +0.049 C 
ATOM      5  C   UNL     1     -34.626  25.202   4.253  0.00  0.00    +0.145 C 
ATOM      6  C   UNL     1     -35.124  25.073   2.957  0.00  0.00    +0.025 C 
ENDROOT
BRANCH   2   9
ATOM      7  O   UNL     1     -34.965  20.792   5.432  0.00  0.00    -0.126 OA
ATOM      8  O   UNL     1     -36.102  22.104   6.775  0.00  0.00    -0.126 OA
ATOM      9  N   UNL     1     -35.485  21.899   5.703  0.00  0.00    +0.059 N 
ENDBRANCH   2   9
BRANCH   5  12
ATOM     10  O   UNL     1     -34.364  27.490   4.135  0.00  0.00    -0.126 OA
ATOM     11  O   UNL     1     -33.081  26.361   5.514  0.00  0.00    -0.126 OA
ATOM     12  N   UNL     1     -33.993  26.409   4.653  0.00  0.00    +0.058 N 
ENDBRANCH   5  12
BRANCH   1  13
ATOM     13  N   UNL     1     -36.503  21.642   3.043  0.00  0.00    -0.260 N 
ATOM     14  H   UNL     1     -37.253  21.278   3.565  0.00  0.00    +0.168 HD
BRANCH  13  15
ATOM     15  N   UNL     1     -36.091  21.001   1.932  0.00  0.00    -0.133 NA
BRANCH  15  16
ATOM     16  C   UNL     1     -35.077  20.222   2.129  0.00  0.00    +0.111 C 
BRANCH  16  17
ATOM     17  C   UNL     1     -34.183  19.755   0.987  0.00  0.00    +0.018 C 
ATOM     18  C   UNL     1     -33.149  18.720   1.449  0.00  0.00    +0.001 C 
ATOM     19  C   UNL     1     -35.087  19.138  -0.087  0.00  0.00    +0.001 C 
ATOM     20  C   UNL     1     -33.467  20.987   0.424  0.00  0.00    +0.001 C 
ENDBRANCH  16  17
ENDBRANCH  15  16
ENDBRANCH  13  15
ENDBRANCH   1  13
TORSDOF 6
ENDMDL
MODEL 2
REMARK VINA RESULT:      -5.6      3.441      4.764
REMARK  Name = 5462835
REMARK  6 active torsions:
REMARK  status: ('A' for Active; 'I' for Inactive)
REMARK    1  A    between atoms: C_1  and  N_13
REMARK    2  A    between atoms: C_2  and  N_9
REMARK    3  A    between atoms: C_5  and  N_12
REMARK    4  A    between atoms: N_13  and  N_15
REMARK    5  A    between atoms: N_15  and  C_16
REMARK    6  A    between atoms: C_16  and  C_17
REMARK                            x       y       z     vdW  Elec       q    Type
REMARK                         _______ _______ _______ _____ _____    ______ ____
ROOT
ATOM      1  C   UNL     1     -36.587  24.539   4.123  0.00  0.00    +0.082 C 
ATOM      2  C   UNL     1     -35.593  23.923   4.890  0.00  0.00    +0.159 C 
ATOM      3  C   UNL     1     -36.473  25.900   3.817  0.00  0.00    +0.019 C 
ATOM      4  C   UNL     1     -34.498  24.657   5.347  0.00  0.00    +0.049 C 
ATOM      5  C   UNL     1     -34.391  26.014   5.039  0.00  0.00    +0.145 C 
ATOM      6  C   UNL     1     -35.378  26.635   4.275  0.00  0.00    +0.025 C 
ENDROOT
BRANCH   2   9
ATOM      7  O   UNL     1     -35.471  21.691   4.323  0.00  0.00    -0.126 OA
ATOM      8  O   UNL     1     -35.959  22.216   6.397  0.00  0.00    -0.126 OA
ATOM      9  N   UNL     1     -35.679  22.541   5.220  0.00  0.00    +0.059 N 
ENDBRANCH   2   9
BRANCH   5  12
ATOM     10  O   UNL     1     -33.171  26.997   6.731  0.00  0.00    -0.126 OA
ATOM     11  O   UNL     1     -32.428  27.168   4.672  0.00  0.00    -0.126 OA
ATOM     12  N   UNL     1     -33.277  26.762   5.503  0.00  0.00    +0.058 N 
ENDBRANCH   5  12
BRANCH   1  13
ATOM     13  N   UNL     1     -37.698  23.822   3.652  0.00  0.00    -0.260 N 
ATOM     14  H   UNL     1     -37.579  22.905   3.317  0.00  0.00    +0.168 HD
BRANCH  13  15
ATOM     15  N   UNL     1     -38.925  24.378   3.653  0.00  0.00    -0.133 NA
BRANCH  15  16
ATOM     16  C   UNL     1     -39.577  24.200   2.550  0.00  0.00    +0.111 C 
BRANCH  16  17
ATOM     17  C   UNL     1     -40.407  25.307   1.913  0.00  0.00    +0.018 C 
ATOM     18  C   UNL     1     -41.526  24.752   1.024  0.00  0.00    +0.001 C 
ATOM     19  C   UNL     1     -41.014  26.143   3.047  0.00  0.00    +0.001 C 
ATOM     20  C   UNL     1     -39.460  26.173   1.075  0.00  0.00    +0.001 C 
ENDBRANCH  16  17
ENDBRANCH  15  16
ENDBRANCH  13  15
ENDBRANCH   1  13
TORSDOF 6
ENDMDL
MODEL 3
REMARK VINA RESULT:      -5.6      2.135      2.665
REMARK  Name = 5462835
REMARK  6 active torsions:
REMARK  status: ('A' for Active; 'I' for Inactive)
REMARK    1  A    between atoms: C_1  and  N_13
REMARK    2  A    between atoms: C_2  and  N_9
REMARK    3  A    between atoms: C_5  and  N_12
REMARK    4  A    between atoms: N_13  and  N_15
REMARK    5  A    between atoms: N_15  and  C_16
REMARK    6  A    between atoms: C_16  and  C_17
REMARK                            x       y       z     vdW  Elec       q    Type
REMARK                         _______ _______ _______ _____ _____    ______ ____
ROOT
ATOM      1  C   UNL     1     -36.280  23.573   4.079  0.00  0.00    +0.082 C 
ATOM      2  C   UNL     1     -36.713  24.901   3.981  0.00  0.00    +0.159 C 
ATOM      3  C   UNL     1     -35.026  23.300   4.637  0.00  0.00    +0.019 C 
ATOM      4  C   UNL     1     -35.902  25.941   4.435  0.00  0.00    +0.049 C 
ATOM      5  C   UNL     1     -34.653  25.661   4.989  0.00  0.00    +0.145 C 
ATOM      6  C   UNL     1     -34.215  24.341   5.090  0.00  0.00    +0.025 C 
ENDROOT
BRANCH   2   9
ATOM      7  O   UNL     1     -38.985  24.559   3.787  0.00  0.00    -0.126 OA
ATOM      8  O   UNL     1     -38.057  26.134   2.572  0.00  0.00    -0.126 OA
ATOM      9  N   UNL     1     -37.982  25.214   3.418  0.00  0.00    +0.059 N 
ENDBRANCH   2   9
BRANCH   5  12
ATOM     10  O   UNL     1     -33.506  27.633   4.654  0.00  0.00    -0.126 OA
ATOM     11  O   UNL     1     -33.441  26.712   6.647  0.00  0.00    -0.126 OA
ATOM     12  N   UNL     1     -33.827  26.719   5.452  0.00  0.00    +0.058 N 
ENDBRANCH   5  12
BRANCH   1  13
ATOM     13  N   UNL     1     -37.077  22.508   3.629  0.00  0.00    -0.260 N 
ATOM     14  H   UNL     1     -37.727  22.095   4.242  0.00  0.00    +0.168 HD
BRANCH  13  15
ATOM     15  N   UNL     1     -36.961  22.048   2.369  0.00  0.00    -0.133 NA
BRANCH  15  16
ATOM     16  C   UNL     1     -36.297  20.942   2.279  0.00  0.00    +0.111 C 
BRANCH  16  17
ATOM     17  C   UNL     1     -35.219  20.728   1.224  0.00  0.00    +0.018 C 
ATOM     18  C   UNL     1     -34.213  19.647   1.636  0.00  0.00    +0.001 C 
ATOM     19  C   UNL     1     -35.919  20.315  -0.076  0.00  0.00    +0.001 C 
ATOM     20  C   UNL     1     -34.493  22.063   1.026  0.00  0.00    +0.001 C 
ENDBRANCH  16  17
ENDBRANCH  15  16
ENDBRANCH  13  15
ENDBRANCH   1  13
TORSDOF 6
ENDMDL
MODEL 4
REMARK VINA RESULT:      -5.5      2.344      3.498
REMARK  Name = 5462835
REMARK  6 active torsions:
REMARK  status: ('A' for Active; 'I' for Inactive)
REMARK    1  A    between atoms: C_1  and  N_13
REMARK    2  A    between atoms: C_2  and  N_9
REMARK    3  A    between atoms: C_5  and  N_12
REMARK    4  A    between atoms: N_13  and  N_15
REMARK    5  A    between atoms: N_15  and  C_16
REMARK    6  A    between atoms: C_16  and  C_17
REMARK                            x       y       z     vdW  Elec       q    Type
REMARK                         _______ _______ _______ _____ _____    ______ ____
ROOT
ATOM      1  C   UNL     1     -35.187  23.149   3.323  0.00  0.00    +0.082 C 
ATOM      2  C   UNL     1     -35.040  23.180   4.714  0.00  0.00    +0.159 C 
ATOM      3  C   UNL     1     -34.816  24.268   2.569  0.00  0.00    +0.019 C 
ATOM      4  C   UNL     1     -34.529  24.315   5.344  0.00  0.00    +0.049 C 
ATOM      5  C   UNL     1     -34.162  25.427   4.585  0.00  0.00    +0.145 C 
ATOM      6  C   UNL     1     -34.306  25.403   3.198  0.00  0.00    +0.025 C 
ENDROOT
BRANCH   2   9
ATOM      7  O   UNL     1     -36.095  22.250   6.542  0.00  0.00    -0.126 OA
ATOM      8  O   UNL     1     -35.034  20.917   5.158  0.00  0.00    -0.126 OA
ATOM      9  N   UNL     1     -35.408  22.060   5.511  0.00  0.00    +0.059 N 
ENDBRANCH   2   9
BRANCH   5  12
ATOM     10  O   UNL     1     -33.146  26.473   6.372  0.00  0.00    -0.126 OA
ATOM     11  O   UNL     1     -33.691  27.685   4.624  0.00  0.00    -0.126 OA
ATOM     12  N   UNL     1     -33.642  26.583   5.225  0.00  0.00    +0.058 N 
ENDBRANCH   5  12
BRANCH   1  13
ATOM     13  N   UNL     1     -35.698  22.018   2.666  0.00  0.00    -0.260 N 
ATOM     14  H   UNL     1     -35.272  21.142   2.802  0.00  0.00    +0.168 HD
BRANCH  13  15
ATOM     15  N   UNL     1     -36.766  22.122   1.851  0.00  0.00    -0.133 NA
BRANCH  15  16
ATOM     16  C   UNL     1     -37.857  22.446   2.464  0.00  0.00    +0.111 C 
BRANCH  16  17
ATOM     17  C   UNL     1     -38.625  23.719   2.132  0.00  0.00    +0.018 C 
ATOM     18  C   UNL     1     -38.521  24.766   3.248  0.00  0.00    +0.001 C 
ATOM     19  C   UNL     1     -38.039  24.288   0.833  0.00  0.00    +0.001 C 
ATOM     20  C   UNL     1     -40.093  23.334   1.918  0.00  0.00    +0.001 C 
ENDBRANCH  16  17
ENDBRANCH  15  16
ENDBRANCH  13  15
ENDBRANCH   1  13
TORSDOF 6
ENDMDL
MODEL 5
REMARK VINA RESULT:      -5.5      3.361      4.480
REMARK  Name = 5462835
REMARK  6 active torsions:
REMARK  status: ('A' for Active; 'I' for Inactive)
REMARK    1  A    between atoms: C_1  and  N_13
REMARK    2  A    between atoms: C_2  and  N_9
REMARK    3  A    between atoms: C_5  and  N_12
REMARK    4  A    between atoms: N_13  and  N_15
REMARK    5  A    between atoms: N_15  and  C_16
REMARK    6  A    between atoms: C_16  and  C_17
REMARK                            x       y       z     vdW  Elec       q    Type
REMARK                         _______ _______ _______ _____ _____    ______ ____
ROOT
ATOM      1  C   UNL     1     -36.635  24.337   4.136  0.00  0.00    +0.082 C 
ATOM      2  C   UNL     1     -35.627  23.816   4.955  0.00  0.00    +0.159 C 
ATOM      3  C   UNL     1     -36.601  25.690   3.782  0.00  0.00    +0.019 C 
ATOM      4  C   UNL     1     -34.597  24.638   5.413  0.00  0.00    +0.049 C 
ATOM      5  C   UNL     1     -34.570  25.986   5.057  0.00  0.00    +0.145 C 
ATOM      6  C   UNL     1     -35.571  26.512   4.241  0.00  0.00    +0.025 C 
ENDROOT
BRANCH   2   9
ATOM      7  O   UNL     1     -35.889  22.148   6.525  0.00  0.00    -0.126 OA
ATOM      8  O   UNL     1     -35.381  21.576   4.468  0.00  0.00    -0.126 OA
ATOM      9  N   UNL     1     -35.632  22.445   5.334  0.00  0.00    +0.059 N 
ENDBRANCH   2   9
BRANCH   5  12
ATOM     10  O   UNL     1     -33.167  27.801   4.821  0.00  0.00    -0.126 OA
ATOM     11  O   UNL     1     -32.981  26.564   6.626  0.00  0.00    -0.126 OA
ATOM     12  N   UNL     1     -33.522  26.824   5.523  0.00  0.00    +0.058 N 
ENDBRANCH   5  12
BRANCH   1  13
ATOM     13  N   UNL     1     -37.682  23.531   3.661  0.00  0.00    -0.260 N 
ATOM     14  H   UNL     1     -38.095  22.868   4.260  0.00  0.00    +0.168 HD
BRANCH  13  15
ATOM     15  N   UNL     1     -38.125  23.655   2.396  0.00  0.00    -0.133 NA
BRANCH  15  16
ATOM     16  C   UNL     1     -39.412  23.748   2.302  0.00  0.00    +0.111 C 
BRANCH  16  17
ATOM     17  C   UNL     1     -40.102  25.037   1.874  0.00  0.00    +0.018 C 
ATOM     18  C   UNL     1     -39.202  25.908   0.990  0.00  0.00    +0.001 C 
ATOM     19  C   UNL     1     -41.368  24.649   1.100  0.00  0.00    +0.001 C 
ATOM     20  C   UNL     1     -40.481  25.805   3.145  0.00  0.00    +0.001 C 
ENDBRANCH  16  17
ENDBRANCH  15  16
ENDBRANCH  13  15
ENDBRANCH   1  13
TORSDOF 6
ENDMDL
MODEL 6
REMARK VINA RESULT:      -5.5      2.327      2.905
REMARK  Name = 5462835
REMARK  6 active torsions:
REMARK  status: ('A' for Active; 'I' for Inactive)
REMARK    1  A    between atoms: C_1  and  N_13
REMARK    2  A    between atoms: C_2  and  N_9
REMARK    3  A    between atoms: C_5  and  N_12
REMARK    4  A    between atoms: N_13  and  N_15
REMARK    5  A    between atoms: N_15  and  C_16
REMARK    6  A    between atoms: C_16  and  C_17
REMARK                            x       y       z     vdW  Elec       q    Type
REMARK                         _______ _______ _______ _____ _____    ______ ____
ROOT
ATOM      1  C   UNL     1     -36.592  22.484   3.330  0.00  0.00    +0.082 C 
ATOM      2  C   UNL     1     -36.425  23.555   4.216  0.00  0.00    +0.159 C 
ATOM      3  C   UNL     1     -37.350  22.667   2.168  0.00  0.00    +0.019 C 
ATOM      4  C   UNL     1     -37.009  24.792   3.944  0.00  0.00    +0.049 C 
ATOM      5  C   UNL     1     -37.765  24.966   2.784  0.00  0.00    +0.145 C 
ATOM      6  C   UNL     1     -37.935  23.904   1.896  0.00  0.00    +0.025 C 
ENDROOT
BRANCH   2   9
ATOM      7  O   UNL     1     -34.702  24.183   5.613  0.00  0.00    -0.126 OA
ATOM      8  O   UNL     1     -35.970  22.495   6.212  0.00  0.00    -0.126 OA
ATOM      9  N   UNL     1     -35.661  23.403   5.407  0.00  0.00    +0.059 N 
ENDBRANCH   2   9
BRANCH   5  12
ATOM     10  O   UNL     1     -37.706  27.076   1.855  0.00  0.00    -0.126 OA
ATOM     11  O   UNL     1     -39.524  26.451   2.916  0.00  0.00    -0.126 OA
ATOM     12  N   UNL     1     -38.360  26.225   2.505  0.00  0.00    +0.058 N 
ENDBRANCH   5  12
BRANCH   1  13
ATOM     13  N   UNL     1     -36.014  21.229   3.582  0.00  0.00    -0.260 N 
ATOM     14  H   UNL     1     -35.777  20.979   4.503  0.00  0.00    +0.168 HD
BRANCH  13  15
ATOM     15  N   UNL     1     -35.780  20.366   2.575  0.00  0.00    -0.133 NA
BRANCH  15  16
ATOM     16  C   UNL     1     -34.524  20.143   2.363  0.00  0.00    +0.111 C 
BRANCH  16  17
ATOM     17  C   UNL     1     -34.016  19.557   1.052  0.00  0.00    +0.018 C 
ATOM     18  C   UNL     1     -35.154  19.009   0.183  0.00  0.00    +0.001 C 
ATOM     19  C   UNL     1     -33.282  20.674   0.299  0.00  0.00    +0.001 C 
ATOM     20  C   UNL     1     -33.037  18.429   1.397  0.00  0.00    +0.001 C 
ENDBRANCH  16  17
ENDBRANCH  15  16
ENDBRANCH  13  15
ENDBRANCH   1  13
TORSDOF 6
ENDMDL
MODEL 7
REMARK VINA RESULT:      -5.4      2.965      3.763
REMARK  Name = 5462835
REMARK  6 active torsions:
REMARK  status: ('A' for Active; 'I' for Inactive)
REMARK    1  A    between atoms: C_1  and  N_13
REMARK    2  A    between atoms: C_2  and  N_9
REMARK    3  A    between atoms: C_5  and  N_12
REMARK    4  A    between atoms: N_13  and  N_15
REMARK    5  A    between atoms: N_15  and  C_16
REMARK    6  A    between atoms: C_16  and  C_17
REMARK                            x       y       z     vdW  Elec       q    Type
REMARK                         _______ _______ _______ _____ _____    ______ ____
ROOT
ATOM      1  C   UNL     1     -36.654  25.012   4.114  0.00  0.00    +0.082 C 
ATOM      2  C   UNL     1     -36.186  26.117   3.394  0.00  0.00    +0.159 C 
ATOM      3  C   UNL     1     -35.946  24.578   5.241  0.00  0.00    +0.019 C 
ATOM      4  C   UNL     1     -35.027  26.780   3.795  0.00  0.00    +0.049 C 
ATOM      5  C   UNL     1     -34.326  26.341   4.919  0.00  0.00    +0.145 C 
ATOM      6  C   UNL     1     -34.785  25.240   5.641  0.00  0.00    +0.025 C 
ENDROOT
BRANCH   2   9
ATOM      7  O   UNL     1     -38.122  26.750   2.312  0.00  0.00    -0.126 OA
ATOM      8  O   UNL     1     -36.232  26.814   1.196  0.00  0.00    -0.126 OA
ATOM      9  N   UNL     1     -36.881  26.584   2.243  0.00  0.00    +0.059 N 
ENDBRANCH   2   9
BRANCH   5  12
ATOM     10  O   UNL     1     -32.991  27.289   6.544  0.00  0.00    -0.126 OA
ATOM     11  O   UNL     1     -32.287  27.318   4.464  0.00  0.00    -0.126 OA
ATOM     12  N   UNL     1     -33.145  27.016   5.328  0.00  0.00    +0.058 N 
ENDBRANCH   5  12
BRANCH   1  13
ATOM     13  N   UNL     1     -37.818  24.327   3.730  0.00  0.00    -0.260 N 
ATOM     14  H   UNL     1     -38.689  24.782   3.782  0.00  0.00    +0.168 HD
BRANCH  13  15
ATOM     15  N   UNL     1     -37.755  23.055   3.294  0.00  0.00    -0.133 NA
BRANCH  15  16
ATOM     16  C   UNL     1     -37.180  22.929   2.142  0.00  0.00    +0.111 C 
BRANCH  16  17
ATOM     17  C   UNL     1     -35.899  22.124   1.960  0.00  0.00    +0.018 C 
ATOM     18  C   UNL     1     -35.516  21.352   3.228  0.00  0.00    +0.001 C 
ATOM     19  C   UNL     1     -36.129  21.141   0.806  0.00  0.00    +0.001 C 
ATOM     20  C   UNL     1     -34.781  23.107   1.595  0.00  0.00    +0.001 C 
ENDBRANCH  16  17
ENDBRANCH  15  16
ENDBRANCH  13  15
ENDBRANCH   1  13
TORSDOF 6
ENDMDL
MODEL 8
REMARK VINA RESULT:      -5.4      2.081      2.886
REMARK  Name = 5462835
REMARK  6 active torsions:
REMARK  status: ('A' for Active; 'I' for Inactive)
REMARK    1  A    between atoms: C_1  and  N_13
REMARK    2  A    between atoms: C_2  and  N_9
REMARK    3  A    between atoms: C_5  and  N_12
REMARK    4  A    between atoms: N_13  and  N_15
REMARK    5  A    between atoms: N_15  and  C_16
REMARK    6  A    between atoms: C_16  and  C_17
REMARK                            x       y       z     vdW  Elec       q    Type
REMARK                         _______ _______ _______ _____ _____    ______ ____
ROOT
ATOM      1  C   UNL     1     -35.686  21.973   3.677  0.00  0.00    +0.082 C 
ATOM      2  C   UNL     1     -35.879  23.169   2.975  0.00  0.00    +0.159 C 
ATOM      3  C   UNL     1     -35.313  22.021   5.025  0.00  0.00    +0.019 C 
ATOM      4  C   UNL     1     -35.701  24.397   3.613  0.00  0.00    +0.049 C 
ATOM      5  C   UNL     1     -35.328  24.436   4.957  0.00  0.00    +0.145 C 
ATOM      6  C   UNL     1     -35.134  23.249   5.662  0.00  0.00    +0.025 C 
ENDROOT
BRANCH   2   9
ATOM      7  O   UNL     1     -37.372  22.675   1.289  0.00  0.00    -0.126 OA
ATOM      8  O   UNL     1     -35.467  23.625   0.753  0.00  0.00    -0.126 OA
ATOM      9  N   UNL     1     -36.258  23.155   1.604  0.00  0.00    +0.059 N 
ENDBRANCH   2   9
BRANCH   5  12
ATOM     10  O   UNL     1     -34.034  25.944   6.128  0.00  0.00    -0.126 OA
ATOM     11  O   UNL     1     -36.103  26.498   5.642  0.00  0.00    -0.126 OA
ATOM     12  N   UNL     1     -35.146  25.686   5.607  0.00  0.00    +0.058 N 
ENDBRANCH   5  12
BRANCH   1  13
ATOM     13  N   UNL     1     -35.859  20.725   3.057  0.00  0.00    -0.260 N 
ATOM     14  H   UNL     1     -36.764  20.352   2.959  0.00  0.00    +0.168 HD
BRANCH  13  15
ATOM     15  N   UNL     1     -34.799  20.033   2.598  0.00  0.00    -0.133 NA
BRANCH  15  16
ATOM     16  C   UNL     1     -34.777  19.909   1.311  0.00  0.00    +0.111 C 
BRANCH  16  17
ATOM     17  C   UNL     1     -33.560  19.372   0.570  0.00  0.00    +0.018 C 
ATOM     18  C   UNL     1     -32.567  20.483   0.207  0.00  0.00    +0.001 C 
ATOM     19  C   UNL     1     -32.877  18.346   1.482  0.00  0.00    +0.001 C 
ATOM     20  C   UNL     1     -34.059  18.686  -0.707  0.00  0.00    +0.001 C 
ENDBRANCH  16  17
ENDBRANCH  15  16
ENDBRANCH  13  15
ENDBRANCH   1  13
TORSDOF 6
ENDMDL
MODEL 9
REMARK VINA RESULT:      -5.3      3.681      7.609
REMARK  Name = 5462835
REMARK  6 active torsions:
REMARK  status: ('A' for Active; 'I' for Inactive)
REMARK    1  A    between atoms: C_1  and  N_13
REMARK    2  A    between atoms: C_2  and  N_9
REMARK    3  A    between atoms: C_5  and  N_12
REMARK    4  A    between atoms: N_13  and  N_15
REMARK    5  A    between atoms: N_15  and  C_16
REMARK    6  A    between atoms: C_16  and  C_17
REMARK                            x       y       z     vdW  Elec       q    Type
REMARK                         _______ _______ _______ _____ _____    ______ ____
ROOT
ATOM      1  C   UNL     1     -33.925  26.409   4.693  0.00  0.00    +0.082 C 
ATOM      2  C   UNL     1     -33.753  25.647   3.532  0.00  0.00    +0.159 C 
ATOM      3  C   UNL     1     -34.797  25.955   5.689  0.00  0.00    +0.019 C 
ATOM      4  C   UNL     1     -34.444  24.446   3.369  0.00  0.00    +0.049 C 
ATOM      5  C   UNL     1     -35.313  24.001   4.366  0.00  0.00    +0.145 C 
ATOM      6  C   UNL     1     -35.489  24.755   5.525  0.00  0.00    +0.025 C 
ENDROOT
BRANCH   2   9
ATOM      7  O   UNL     1     -33.367  26.518   1.432  0.00  0.00    -0.126 OA
ATOM      8  O   UNL     1     -31.639  26.011   2.688  0.00  0.00    -0.126 OA
ATOM      9  N   UNL     1     -32.876  26.080   2.499  0.00  0.00    +0.059 N 
ENDBRANCH   2   9
BRANCH   5  12
ATOM     10  O   UNL     1     -37.148  22.797   3.659  0.00  0.00    -0.126 OA
ATOM     11  O   UNL     1     -35.487  21.713   4.602  0.00  0.00    -0.126 OA
ATOM     12  N   UNL     1     -36.017  22.778   4.201  0.00  0.00    +0.058 N 
ENDBRANCH   5  12
BRANCH   1  13
ATOM     13  N   UNL     1     -33.241  27.621   4.881  0.00  0.00    -0.260 N 
ATOM     14  H   UNL     1     -33.587  28.444   4.467  0.00  0.00    +0.168 HD
BRANCH  13  15
ATOM     15  N   UNL     1     -32.117  27.668   5.621  0.00  0.00    -0.133 NA
BRANCH  15  16
ATOM     16  C   UNL     1     -31.255  28.536   5.202  0.00  0.00    +0.111 C 
BRANCH  16  17
ATOM     17  C   UNL     1     -30.907  29.784   6.004  0.00  0.00    +0.018 C 
ATOM     18  C   UNL     1     -31.318  31.071   5.278  0.00  0.00    +0.001 C 
ATOM     19  C   UNL     1     -31.642  29.691   7.347  0.00  0.00    +0.001 C 
ATOM     20  C   UNL     1     -29.392  29.779   6.235  0.00  0.00    +0.001 C 
ENDBRANCH  16  17
ENDBRANCH  15  16
ENDBRANCH  13  15
ENDBRANCH   1  13
TORSDOF 6
ENDMDL
