MODEL 1
REMARK VINA RESULT:      -5.6      0.000      0.000
REMARK  Name = 191722
REMARK  13 active torsions:
REMARK  status: ('A' for Active; 'I' for Inactive)
REMARK    1  A    between atoms: CA_1  and  C_4
REMARK    2  A    between atoms: CA_1  and  N_15
REMARK    3  A    between atoms: CA_1  and  C_19
REMARK    4  A    between atoms: N_3  and  CA_6
REMARK    5  A    between atoms: CA_6  and  C_8
REMARK    6  A    between atoms: CA_6  and  CB_11
REMARK    7  A    between atoms: C_8  and  O_9
REMARK    8  A    between atoms: CB_11  and  CG_12
REMARK    9  A    between atoms: C_19  and  C_20
REMARK   10  A    between atoms: C_20  and  C_22
REMARK   11  A    between atoms: C_20  and  C_26
REMARK   12  A    between atoms: C_22  and  O_23
REMARK   13  A    between atoms: C_26  and  O_27
REMARK                            x       y       z     vdW  Elec       q    Type
REMARK                         _______ _______ _______ _____ _____    ______ ____
ROOT
ATOM      1  CA  UNL     1     -35.512  22.496   5.231  0.00  0.00    +0.014 C 
ENDROOT
BRANCH   1   4
ATOM      2  O   UNL     1     -35.438  20.777   3.534  0.00  0.00    -0.277 OA
ATOM      3  N   UNL     1     -37.113  22.380   3.415  0.00  0.00    -0.298 N 
ATOM      4  C   ACE A   1     -35.995  21.782   3.975  0.00  0.00    +0.202 C 
ATOM      5  H   UNL     1     -37.482  23.184   3.847  0.00  0.00    +0.150 HD
BRANCH   3   6
ATOM      6  CA  UNL     1     -37.759  21.875   2.227  0.00  0.00    +0.171 C 
BRANCH   6   8
ATOM      7  OXT UNL     1     -39.750  23.250   2.263  0.00  0.00    -0.248 OA
ATOM      8  C   UNL     1     -39.258  22.129   2.194  0.00  0.00    +0.332 C 
BRANCH   8   9
ATOM      9  O   UNL     1     -40.016  21.008   2.137  0.00  0.00    -0.479 OA
ATOM     10  H   UNL     1     -40.637  20.828   2.816  0.00  0.00    +0.295 HD
ENDBRANCH   8   9
ENDBRANCH   6   8
BRANCH   6  11
ATOM     11  CB  UNL     1     -37.041  22.351   0.955  0.00  0.00    +0.031 C 
BRANCH  11  12
ATOM     12  CG  UNL     1     -36.447  23.779   0.958  0.00  0.00    +0.002 C 
ATOM     13  CD1 UNL     1     -36.968  24.665  -0.172  0.00  0.00    +0.000 C 
ATOM     14  CD2 UNL     1     -34.919  23.690   0.873  0.00  0.00    +0.000 C 
ENDBRANCH  11  12
ENDBRANCH   6  11
ENDBRANCH   3   6
ENDBRANCH   1   4
BRANCH   1  15
ATOM     15  N   UNL     1     -34.748  21.495   5.981  0.00  0.00    +0.387 N 
ATOM     16  H1  UNL     1     -35.203  20.586   5.896  0.00  0.00    -0.089 HD
ATOM     17  H2  UNL     1     -34.708  21.764   6.964  0.00  0.00    -0.089 HD
ATOM     18  H3  UNL     1     -33.801  21.438   5.605  0.00  0.00    -0.089 HD
ENDBRANCH   1  15
BRANCH   1  19
ATOM     19  C   UNL     1     -34.602  23.694   4.903  0.00  0.00    +0.009 C 
BRANCH  19  20
ATOM     20  C   UNL     1     -35.027  25.036   5.537  0.00  0.00    +0.195 C 
BRANCH  20  22
ATOM     21  O   UNL     1     -33.616  26.713   6.629  0.00  0.00    -0.250 OA
ATOM     22  C   UNL     1     -33.866  26.008   5.662  0.00  0.00    +0.324 C 
BRANCH  22  23
ATOM     23  O   UNL     1     -33.092  25.978   4.546  0.00  0.00    -0.480 OA
ATOM     24  H   UNL     1     -33.204  26.630   3.881  0.00  0.00    +0.295 HD
ENDBRANCH  22  23
ENDBRANCH  20  22
BRANCH  20  26
ATOM     25  O   UNL     1     -37.275  24.977   4.584  0.00  0.00    -0.250 OA
ATOM     26  C   UNL     1     -36.253  25.602   4.836  0.00  0.00    +0.324 C 
BRANCH  26  27
ATOM     27  O   UNL     1     -36.102  26.914   4.517  0.00  0.00    -0.480 OA
ATOM     28  H   UNL     1     -36.129  27.186   3.621  0.00  0.00    +0.295 HD
ENDBRANCH  26  27
ENDBRANCH  20  26
ENDBRANCH  19  20
ENDBRANCH   1  19
TORSDOF 13
ENDMDL
MODEL 2
REMARK VINA RESULT:      -5.5      2.452      6.247
REMARK  Name = 191722
REMARK  13 active torsions:
REMARK  status: ('A' for Active; 'I' for Inactive)
REMARK    1  A    between atoms: CA_1  and  C_4
REMARK    2  A    between atoms: CA_1  and  N_15
REMARK    3  A    between atoms: CA_1  and  C_19
REMARK    4  A    between atoms: N_3  and  CA_6
REMARK    5  A    between atoms: CA_6  and  C_8
REMARK    6  A    between atoms: CA_6  and  CB_11
REMARK    7  A    between atoms: C_8  and  O_9
REMARK    8  A    between atoms: CB_11  and  CG_12
REMARK    9  A    between atoms: C_19  and  C_20
REMARK   10  A    between atoms: C_20  and  C_22
REMARK   11  A    between atoms: C_20  and  C_26
REMARK   12  A    between atoms: C_22  and  O_23
REMARK   13  A    between atoms: C_26  and  O_27
REMARK                            x       y       z     vdW  Elec       q    Type
REMARK                         _______ _______ _______ _____ _____    ______ ____
ROOT
ATOM      1  CA  UNL     1     -38.238  23.022   1.713  0.00  0.00    +0.014 C 
ENDROOT
BRANCH   1   4
ATOM      2  O   UNL     1     -38.370  24.356   3.723  0.00  0.00    -0.277 OA
ATOM      3  N   UNL     1     -36.512  22.999   3.415  0.00  0.00    -0.298 N 
ATOM      4  C   ACE A   1     -37.734  23.545   3.052  0.00  0.00    +0.202 C 
ATOM      5  H   UNL     1     -36.084  22.356   2.804  0.00  0.00    +0.150 HD
BRANCH   3   6
ATOM      6  CA  UNL     1     -35.841  23.332   4.649  0.00  0.00    +0.171 C 
BRANCH   6   8
ATOM      7  OXT UNL     1     -35.244  22.180   6.691  0.00  0.00    -0.248 OA
ATOM      8  C   UNL     1     -35.469  22.120   5.487  0.00  0.00    +0.332 C 
BRANCH   8   9
ATOM      9  O   UNL     1     -35.350  20.967   4.786  0.00  0.00    -0.479 OA
ATOM     10  H   UNL     1     -34.542  20.758   4.361  0.00  0.00    +0.295 HD
ENDBRANCH   8   9
ENDBRANCH   6   8
BRANCH   6  11
ATOM     11  CB  UNL     1     -34.655  24.278   4.402  0.00  0.00    +0.031 C 
BRANCH  11  12
ATOM     12  CG  UNL     1     -34.806  25.750   4.850  0.00  0.00    +0.002 C 
ATOM     13  CD1 UNL     1     -33.640  26.260   5.693  0.00  0.00    +0.000 C 
ATOM     14  CD2 UNL     1     -36.112  25.906   5.638  0.00  0.00    +0.000 C 
ENDBRANCH  11  12
ENDBRANCH   6  11
ENDBRANCH   3   6
ENDBRANCH   1   4
BRANCH   1  15
ATOM     15  N   UNL     1     -37.194  23.360   0.742  0.00  0.00    +0.387 N 
ATOM     16  H1  UNL     1     -37.600  23.904  -0.020  0.00  0.00    -0.089 HD
ATOM     17  H2  UNL     1     -36.787  22.502   0.368  0.00  0.00    -0.089 HD
ATOM     18  H3  UNL     1     -36.467  23.909   1.201  0.00  0.00    -0.089 HD
ENDBRANCH   1  15
BRANCH   1  19
ATOM     19  C   UNL     1     -38.449  21.497   1.729  0.00  0.00    +0.009 C 
BRANCH  19  20
ATOM     20  C   UNL     1     -37.636  20.709   0.680  0.00  0.00    +0.195 C 
BRANCH  20  22
ATOM     21  O   UNL     1     -35.647  19.281   0.723  0.00  0.00    -0.250 OA
ATOM     22  C   UNL     1     -36.547  19.860   1.314  0.00  0.00    +0.324 C 
BRANCH  22  23
ATOM     23  O   UNL     1     -36.675  19.844   2.666  0.00  0.00    -0.480 OA
ATOM     24  H   UNL     1     -36.883  20.634   3.127  0.00  0.00    +0.295 HD
ENDBRANCH  22  23
ENDBRANCH  20  22
BRANCH  20  26
ATOM     25  O   UNL     1     -39.348  20.469  -1.044  0.00  0.00    -0.250 OA
ATOM     26  C   UNL     1     -38.558  19.953  -0.265  0.00  0.00    +0.324 C 
BRANCH  26  27
ATOM     27  O   UNL     1     -38.405  18.607  -0.162  0.00  0.00    -0.480 OA
ATOM     28  H   UNL     1     -38.986  18.108   0.378  0.00  0.00    +0.295 HD
ENDBRANCH  26  27
ENDBRANCH  20  26
ENDBRANCH  19  20
ENDBRANCH   1  19
TORSDOF 13
ENDMDL
MODEL 3
REMARK VINA RESULT:      -5.4      2.280      3.349
REMARK  Name = 191722
REMARK  13 active torsions:
REMARK  status: ('A' for Active; 'I' for Inactive)
REMARK    1  A    between atoms: CA_1  and  C_4
REMARK    2  A    between atoms: CA_1  and  N_15
REMARK    3  A    between atoms: CA_1  and  C_19
REMARK    4  A    between atoms: N_3  and  CA_6
REMARK    5  A    between atoms: CA_6  and  C_8
REMARK    6  A    between atoms: CA_6  and  CB_11
REMARK    7  A    between atoms: C_8  and  O_9
REMARK    8  A    between atoms: CB_11  and  CG_12
REMARK    9  A    between atoms: C_19  and  C_20
REMARK   10  A    between atoms: C_20  and  C_22
REMARK   11  A    between atoms: C_20  and  C_26
REMARK   12  A    between atoms: C_22  and  O_23
REMARK   13  A    between atoms: C_26  and  O_27
REMARK                            x       y       z     vdW  Elec       q    Type
REMARK                         _______ _______ _______ _____ _____    ______ ____
ROOT
ATOM      1  CA  UNL     1     -35.650  22.852   5.177  0.00  0.00    +0.014 C 
ENDROOT
BRANCH   1   4
ATOM      2  O   UNL     1     -34.934  20.558   4.922  0.00  0.00    -0.277 OA
ATOM      3  N   UNL     1     -35.624  21.719   3.034  0.00  0.00    -0.298 N 
ATOM      4  C   ACE A   1     -35.355  21.583   4.387  0.00  0.00    +0.202 C 
ATOM      5  H   UNL     1     -35.959  22.585   2.705  0.00  0.00    +0.150 HD
BRANCH   3   6
ATOM      6  CA  UNL     1     -35.435  20.647   2.086  0.00  0.00    +0.171 C 
BRANCH   6   8
ATOM      7  OXT UNL     1     -36.775  19.355   0.540  0.00  0.00    -0.248 OA
ATOM      8  C   UNL     1     -36.734  20.114   1.502  0.00  0.00    +0.332 C 
BRANCH   8   9
ATOM      9  O   UNL     1     -37.854  20.590   2.096  0.00  0.00    -0.479 OA
ATOM     10  H   UNL     1     -38.063  20.335   2.973  0.00  0.00    +0.295 HD
ENDBRANCH   8   9
ENDBRANCH   6   8
BRANCH   6  11
ATOM     11  CB  UNL     1     -34.404  21.025   1.012  0.00  0.00    +0.031 C 
BRANCH  11  12
ATOM     12  CG  UNL     1     -33.479  19.907   0.480  0.00  0.00    +0.002 C 
ATOM     13  CD1 UNL     1     -33.241  18.776   1.478  0.00  0.00    +0.000 C 
ATOM     14  CD2 UNL     1     -32.134  20.517   0.070  0.00  0.00    +0.000 C 
ENDBRANCH  11  12
ENDBRANCH   6  11
ENDBRANCH   3   6
ENDBRANCH   1   4
BRANCH   1  15
ATOM     15  N   UNL     1     -35.705  22.436   6.581  0.00  0.00    +0.387 N 
ATOM     16  H1  UNL     1     -36.679  22.365   6.877  0.00  0.00    -0.089 HD
ATOM     17  H2  UNL     1     -35.223  23.125   7.159  0.00  0.00    -0.089 HD
ATOM     18  H3  UNL     1     -35.251  21.528   6.685  0.00  0.00    -0.089 HD
ENDBRANCH   1  15
BRANCH   1  19
ATOM     19  C   UNL     1     -34.548  23.914   5.000  0.00  0.00    +0.009 C 
BRANCH  19  20
ATOM     20  C   UNL     1     -35.026  25.270   4.439  0.00  0.00    +0.195 C 
BRANCH  20  22
ATOM     21  O   UNL     1     -37.437  24.876   4.271  0.00  0.00    -0.250 OA
ATOM     22  C   UNL     1     -36.499  25.521   4.716  0.00  0.00    +0.324 C 
BRANCH  22  23
ATOM     23  O   UNL     1     -36.657  26.565   5.571  0.00  0.00    -0.480 OA
ATOM     24  H   UNL     1     -37.393  27.137   5.481  0.00  0.00    +0.295 HD
ENDBRANCH  22  23
ENDBRANCH  20  22
BRANCH  20  26
ATOM     25  O   UNL     1     -33.338  26.350   5.835  0.00  0.00    -0.250 OA
ATOM     26  C   UNL     1     -34.100  26.395   4.878  0.00  0.00    +0.324 C 
BRANCH  26  27
ATOM     27  O   UNL     1     -34.198  27.484   4.071  0.00  0.00    -0.480 OA
ATOM     28  H   UNL     1     -33.423  27.918   3.773  0.00  0.00    +0.295 HD
ENDBRANCH  26  27
ENDBRANCH  20  26
ENDBRANCH  19  20
ENDBRANCH   1  19
TORSDOF 13
ENDMDL
MODEL 4
REMARK VINA RESULT:      -5.4      2.218      6.150
REMARK  Name = 191722
REMARK  13 active torsions:
REMARK  status: ('A' for Active; 'I' for Inactive)
REMARK    1  A    between atoms: CA_1  and  C_4
REMARK    2  A    between atoms: CA_1  and  N_15
REMARK    3  A    between atoms: CA_1  and  C_19
REMARK    4  A    between atoms: N_3  and  CA_6
REMARK    5  A    between atoms: CA_6  and  C_8
REMARK    6  A    between atoms: CA_6  and  CB_11
REMARK    7  A    between atoms: C_8  and  O_9
REMARK    8  A    between atoms: CB_11  and  CG_12
REMARK    9  A    between atoms: C_19  and  C_20
REMARK   10  A    between atoms: C_20  and  C_22
REMARK   11  A    between atoms: C_20  and  C_26
REMARK   12  A    between atoms: C_22  and  O_23
REMARK   13  A    between atoms: C_26  and  O_27
REMARK                            x       y       z     vdW  Elec       q    Type
REMARK                         _______ _______ _______ _____ _____    ______ ____
ROOT
ATOM      1  CA  UNL     1     -36.097  23.265   0.920  0.00  0.00    +0.014 C 
ENDROOT
BRANCH   1   4
ATOM      2  O   UNL     1     -37.343  24.297   2.714  0.00  0.00    -0.277 OA
ATOM      3  N   UNL     1     -35.408  23.127   3.240  0.00  0.00    -0.298 N 
ATOM      4  C   ACE A   1     -36.366  23.632   2.374  0.00  0.00    +0.202 C 
ATOM      5  H   UNL     1     -34.662  22.605   2.864  0.00  0.00    +0.150 HD
BRANCH   3   6
ATOM      6  CA  UNL     1     -35.457  23.332   4.668  0.00  0.00    +0.171 C 
BRANCH   6   8
ATOM      7  OXT UNL     1     -35.999  22.016   6.625  0.00  0.00    -0.248 OA
ATOM      8  C   UNL     1     -35.605  22.045   5.464  0.00  0.00    +0.332 C 
BRANCH   8   9
ATOM      9  O   UNL     1     -35.211  20.929   4.805  0.00  0.00    -0.479 OA
ATOM     10  H   UNL     1     -35.723  20.601   4.092  0.00  0.00    +0.295 HD
ENDBRANCH   8   9
ENDBRANCH   6   8
BRANCH   6  11
ATOM     11  CB  UNL     1     -34.287  24.205   5.147  0.00  0.00    +0.031 C 
BRANCH  11  12
ATOM     12  CG  UNL     1     -34.513  25.733   5.218  0.00  0.00    +0.002 C 
ATOM     13  CD1 UNL     1     -33.626  26.440   6.240  0.00  0.00    +0.000 C 
ATOM     14  CD2 UNL     1     -35.986  26.010   5.541  0.00  0.00    +0.000 C 
ENDBRANCH  11  12
ENDBRANCH   6  11
ENDBRANCH   3   6
ENDBRANCH   1   4
BRANCH   1  15
ATOM     15  N   UNL     1     -34.740  22.713   0.899  0.00  0.00    +0.387 N 
ATOM     16  H1  UNL     1     -34.085  23.431   0.589  0.00  0.00    -0.089 HD
ATOM     17  H2  UNL     1     -34.705  21.920   0.258  0.00  0.00    -0.089 HD
ATOM     18  H3  UNL     1     -34.485  22.403   1.837  0.00  0.00    -0.089 HD
ENDBRANCH   1  15
BRANCH   1  19
ATOM     19  C   UNL     1     -37.089  22.209   0.396  0.00  0.00    +0.009 C 
BRANCH  19  20
ATOM     20  C   UNL     1     -37.647  21.245   1.465  0.00  0.00    +0.195 C 
BRANCH  20  22
ATOM     21  O   UNL     1     -39.579  20.486   0.167  0.00  0.00    -0.250 OA
ATOM     22  C   UNL     1     -39.104  20.892   1.217  0.00  0.00    +0.324 C 
BRANCH  22  23
ATOM     23  O   UNL     1     -39.838  21.057   2.348  0.00  0.00    -0.480 OA
ATOM     24  H   UNL     1     -40.578  21.632   2.347  0.00  0.00    +0.295 HD
ENDBRANCH  22  23
ENDBRANCH  20  22
BRANCH  20  26
ATOM     25  O   UNL     1     -35.692  20.044   2.301  0.00  0.00    -0.250 OA
ATOM     26  C   UNL     1     -36.728  20.047   1.649  0.00  0.00    +0.324 C 
BRANCH  26  27
ATOM     27  O   UNL     1     -37.190  18.943   1.005  0.00  0.00    -0.480 OA
ATOM     28  H   UNL     1     -37.818  18.386   1.420  0.00  0.00    +0.295 HD
ENDBRANCH  26  27
ENDBRANCH  20  26
ENDBRANCH  19  20
ENDBRANCH   1  19
TORSDOF 13
ENDMDL
MODEL 5
REMARK VINA RESULT:      -5.4      2.170      2.643
REMARK  Name = 191722
REMARK  13 active torsions:
REMARK  status: ('A' for Active; 'I' for Inactive)
REMARK    1  A    between atoms: CA_1  and  C_4
REMARK    2  A    between atoms: CA_1  and  N_15
REMARK    3  A    between atoms: CA_1  and  C_19
REMARK    4  A    between atoms: N_3  and  CA_6
REMARK    5  A    between atoms: CA_6  and  C_8
REMARK    6  A    between atoms: CA_6  and  CB_11
REMARK    7  A    between atoms: C_8  and  O_9
REMARK    8  A    between atoms: CB_11  and  CG_12
REMARK    9  A    between atoms: C_19  and  C_20
REMARK   10  A    between atoms: C_20  and  C_22
REMARK   11  A    between atoms: C_20  and  C_26
REMARK   12  A    between atoms: C_22  and  O_23
REMARK   13  A    between atoms: C_26  and  O_27
REMARK                            x       y       z     vdW  Elec       q    Type
REMARK                         _______ _______ _______ _____ _____    ______ ____
ROOT
ATOM      1  CA  UNL     1     -35.886  22.750   5.175  0.00  0.00    +0.014 C 
ENDROOT
BRANCH   1   4
ATOM      2  O   UNL     1     -34.995  20.604   4.513  0.00  0.00    -0.277 OA
ATOM      3  N   UNL     1     -35.974  21.945   2.890  0.00  0.00    -0.298 N 
ATOM      4  C   ACE A   1     -35.558  21.645   4.178  0.00  0.00    +0.202 C 
ATOM      5  H   UNL     1     -36.416  22.810   2.728  0.00  0.00    +0.150 HD
BRANCH   3   6
ATOM      6  CA  UNL     1     -35.785  21.045   1.777  0.00  0.00    +0.171 C 
BRANCH   6   8
ATOM      7  OXT UNL     1     -36.956  21.123  -0.339  0.00  0.00    -0.248 OA
ATOM      8  C   UNL     1     -37.002  20.933   0.872  0.00  0.00    +0.332 C 
BRANCH   8   9
ATOM      9  O   UNL     1     -38.160  20.657   1.518  0.00  0.00    -0.479 OA
ATOM     10  H   UNL     1     -38.721  21.357   1.791  0.00  0.00    +0.295 HD
ENDBRANCH   8   9
ENDBRANCH   6   8
BRANCH   6  11
ATOM     11  CB  UNL     1     -34.493  21.367   1.011  0.00  0.00    +0.031 C 
BRANCH  11  12
ATOM     12  CG  UNL     1     -33.664  20.179   0.470  0.00  0.00    +0.002 C 
ATOM     13  CD1 UNL     1     -33.490  19.042   1.474  0.00  0.00    +0.000 C 
ATOM     14  CD2 UNL     1     -32.287  20.685   0.028  0.00  0.00    +0.000 C 
ENDBRANCH  11  12
ENDBRANCH   6  11
ENDBRANCH   3   6
ENDBRANCH   1   4
BRANCH   1  15
ATOM     15  N   UNL     1     -35.930  22.095   6.486  0.00  0.00    +0.387 N 
ATOM     16  H1  UNL     1     -36.728  21.462   6.522  0.00  0.00    -0.089 HD
ATOM     17  H2  UNL     1     -36.022  22.802   7.216  0.00  0.00    -0.089 HD
ATOM     18  H3  UNL     1     -35.069  21.566   6.631  0.00  0.00    -0.089 HD
ENDBRANCH   1  15
BRANCH   1  19
ATOM     19  C   UNL     1     -34.811  23.854   5.189  0.00  0.00    +0.009 C 
BRANCH  19  20
ATOM     20  C   UNL     1     -35.351  25.298   5.115  0.00  0.00    +0.195 C 
BRANCH  20  22
ATOM     21  O   UNL     1     -33.265  26.284   5.934  0.00  0.00    -0.250 OA
ATOM     22  C   UNL     1     -34.243  26.333   5.202  0.00  0.00    +0.324 C 
BRANCH  22  23
ATOM     23  O   UNL     1     -34.456  27.341   4.317  0.00  0.00    -0.480 OA
ATOM     24  H   UNL     1     -35.209  27.324   3.759  0.00  0.00    +0.295 HD
ENDBRANCH  22  23
ENDBRANCH  20  22
BRANCH  20  26
ATOM     25  O   UNL     1     -36.044  25.098   2.781  0.00  0.00    -0.250 OA
ATOM     26  C   UNL     1     -36.283  25.467   3.924  0.00  0.00    +0.324 C 
BRANCH  26  27
ATOM     27  O   UNL     1     -37.447  26.079   4.266  0.00  0.00    -0.480 OA
ATOM     28  H   UNL     1     -37.860  25.878   5.083  0.00  0.00    +0.295 HD
ENDBRANCH  26  27
ENDBRANCH  20  26
ENDBRANCH  19  20
ENDBRANCH   1  19
TORSDOF 13
ENDMDL
MODEL 6
REMARK VINA RESULT:      -5.4      3.401      7.101
REMARK  Name = 191722
REMARK  13 active torsions:
REMARK  status: ('A' for Active; 'I' for Inactive)
REMARK    1  A    between atoms: CA_1  and  C_4
REMARK    2  A    between atoms: CA_1  and  N_15
REMARK    3  A    between atoms: CA_1  and  C_19
REMARK    4  A    between atoms: N_3  and  CA_6
REMARK    5  A    between atoms: CA_6  and  C_8
REMARK    6  A    between atoms: CA_6  and  CB_11
REMARK    7  A    between atoms: C_8  and  O_9
REMARK    8  A    between atoms: CB_11  and  CG_12
REMARK    9  A    between atoms: C_19  and  C_20
REMARK   10  A    between atoms: C_20  and  C_22
REMARK   11  A    between atoms: C_20  and  C_26
REMARK   12  A    between atoms: C_22  and  O_23
REMARK   13  A    between atoms: C_26  and  O_27
REMARK                            x       y       z     vdW  Elec       q    Type
REMARK                         _______ _______ _______ _____ _____    ______ ____
ROOT
ATOM      1  CA  UNL     1     -34.880  25.813   5.640  0.00  0.00    +0.014 C 
ENDROOT
BRANCH   1   4
ATOM      2  O   UNL     1     -32.849  26.606   6.682  0.00  0.00    -0.277 OA
ATOM      3  N   UNL     1     -33.377  27.378   4.558  0.00  0.00    -0.298 N 
ATOM      4  C   ACE A   1     -33.597  26.632   5.706  0.00  0.00    +0.202 C 
ATOM      5  H   UNL     1     -34.040  27.329   3.831  0.00  0.00    +0.150 HD
BRANCH   3   6
ATOM      6  CA  UNL     1     -32.220  28.222   4.381  0.00  0.00    +0.171 C 
BRANCH   6   8
ATOM      7  OXT UNL     1     -30.787  28.629   2.474  0.00  0.00    -0.248 OA
ATOM      8  C   UNL     1     -31.343  27.818   3.207  0.00  0.00    +0.332 C 
BRANCH   8   9
ATOM      9  O   UNL     1     -31.267  26.482   2.996  0.00  0.00    -0.479 OA
ATOM     10  H   UNL     1     -30.445  26.088   2.779  0.00  0.00    +0.295 HD
ENDBRANCH   8   9
ENDBRANCH   6   8
BRANCH   6  11
ATOM     11  CB  UNL     1     -32.611  29.708   4.356  0.00  0.00    +0.031 C 
BRANCH  11  12
ATOM     12  CG  UNL     1     -31.981  30.634   5.422  0.00  0.00    +0.002 C 
ATOM     13  CD1 UNL     1     -30.764  31.409   4.923  0.00  0.00    +0.000 C 
ATOM     14  CD2 UNL     1     -31.588  29.799   6.646  0.00  0.00    +0.000 C 
ENDBRANCH  11  12
ENDBRANCH   6  11
ENDBRANCH   3   6
ENDBRANCH   1   4
BRANCH   1  15
ATOM     15  N   UNL     1     -35.826  26.628   4.872  0.00  0.00    +0.387 N 
ATOM     16  H1  UNL     1     -36.727  26.643   5.350  0.00  0.00    -0.089 HD
ATOM     17  H2  UNL     1     -35.941  26.228   3.940  0.00  0.00    -0.089 HD
ATOM     18  H3  UNL     1     -35.468  27.580   4.792  0.00  0.00    -0.089 HD
ENDBRANCH   1  15
BRANCH   1  19
ATOM     19  C   UNL     1     -34.669  24.464   4.928  0.00  0.00    +0.009 C 
BRANCH  19  20
ATOM     20  C   UNL     1     -35.907  23.544   4.884  0.00  0.00    +0.195 C 
BRANCH  20  22
ATOM     21  O   UNL     1     -36.405  24.357   2.629  0.00  0.00    -0.250 OA
ATOM     22  C   UNL     1     -36.571  23.535   3.518  0.00  0.00    +0.324 C 
BRANCH  22  23
ATOM     23  O   UNL     1     -37.377  22.450   3.382  0.00  0.00    -0.480 OA
ATOM     24  H   UNL     1     -38.304  22.562   3.300  0.00  0.00    +0.295 HD
ENDBRANCH  22  23
ENDBRANCH  20  22
BRANCH  20  26
ATOM     25  O   UNL     1     -35.111  21.237   4.788  0.00  0.00    -0.250 OA
ATOM     26  C   UNL     1     -35.577  22.165   5.436  0.00  0.00    +0.324 C 
BRANCH  26  27
ATOM     27  O   UNL     1     -35.850  22.065   6.764  0.00  0.00    -0.480 OA
ATOM     28  H   UNL     1     -35.256  22.425   7.393  0.00  0.00    +0.295 HD
ENDBRANCH  26  27
ENDBRANCH  20  26
ENDBRANCH  19  20
ENDBRANCH   1  19
TORSDOF 13
ENDMDL
MODEL 7
REMARK VINA RESULT:      -5.3      1.009      2.314
REMARK  Name = 191722
REMARK  13 active torsions:
REMARK  status: ('A' for Active; 'I' for Inactive)
REMARK    1  A    between atoms: CA_1  and  C_4
REMARK    2  A    between atoms: CA_1  and  N_15
REMARK    3  A    between atoms: CA_1  and  C_19
REMARK    4  A    between atoms: N_3  and  CA_6
REMARK    5  A    between atoms: CA_6  and  C_8
REMARK    6  A    between atoms: CA_6  and  CB_11
REMARK    7  A    between atoms: C_8  and  O_9
REMARK    8  A    between atoms: CB_11  and  CG_12
REMARK    9  A    between atoms: C_19  and  C_20
REMARK   10  A    between atoms: C_20  and  C_22
REMARK   11  A    between atoms: C_20  and  C_26
REMARK   12  A    between atoms: C_22  and  O_23
REMARK   13  A    between atoms: C_26  and  O_27
REMARK                            x       y       z     vdW  Elec       q    Type
REMARK                         _______ _______ _______ _____ _____    ______ ____
ROOT
ATOM      1  CA  UNL     1     -36.025  23.069   5.269  0.00  0.00    +0.014 C 
ENDROOT
BRANCH   1   4
ATOM      2  O   UNL     1     -35.377  21.392   3.654  0.00  0.00    -0.277 OA
ATOM      3  N   UNL     1     -37.317  22.607   3.270  0.00  0.00    -0.298 N 
ATOM      4  C   ACE A   1     -36.182  22.261   3.987  0.00  0.00    +0.202 C 
ATOM      5  H   UNL     1     -37.898  23.319   3.624  0.00  0.00    +0.150 HD
BRANCH   3   6
ATOM      6  CA  UNL     1     -37.684  21.969   2.028  0.00  0.00    +0.171 C 
BRANCH   6   8
ATOM      7  OXT UNL     1     -40.016  22.519   2.369  0.00  0.00    -0.248 OA
ATOM      8  C   UNL     1     -39.183  21.775   1.863  0.00  0.00    +0.332 C 
BRANCH   8   9
ATOM      9  O   UNL     1     -39.533  20.675   1.153  0.00  0.00    -0.479 OA
ATOM     10  H   UNL     1     -39.996  20.768   0.343  0.00  0.00    +0.295 HD
ENDBRANCH   8   9
ENDBRANCH   6   8
BRANCH   6  11
ATOM     11  CB  UNL     1     -37.033  22.670   0.826  0.00  0.00    +0.031 C 
BRANCH  11  12
ATOM     12  CG  UNL     1     -35.927  21.905   0.063  0.00  0.00    +0.002 C 
ATOM     13  CD1 UNL     1     -35.932  20.400   0.316  0.00  0.00    +0.000 C 
ATOM     14  CD2 UNL     1     -34.559  22.483   0.445  0.00  0.00    +0.000 C 
ENDBRANCH  11  12
ENDBRANCH   6  11
ENDBRANCH   3   6
ENDBRANCH   1   4
BRANCH   1  15
ATOM     15  N   UNL     1     -35.941  22.080   6.347  0.00  0.00    +0.387 N 
ATOM     16  H1  UNL     1     -36.370  22.460   7.191  0.00  0.00    -0.089 HD
ATOM     17  H2  UNL     1     -34.962  21.862   6.533  0.00  0.00    -0.089 HD
ATOM     18  H3  UNL     1     -36.432  21.230   6.069  0.00  0.00    -0.089 HD
ENDBRANCH   1  15
BRANCH   1  19
ATOM     19  C   UNL     1     -34.747  23.928   5.259  0.00  0.00    +0.009 C 
BRANCH  19  20
ATOM     20  C   UNL     1     -34.839  25.234   4.442  0.00  0.00    +0.195 C 
BRANCH  20  22
ATOM     21  O   UNL     1     -37.079  25.655   3.549  0.00  0.00    -0.250 OA
ATOM     22  C   UNL     1     -36.246  25.808   4.429  0.00  0.00    +0.324 C 
BRANCH  22  23
ATOM     23  O   UNL     1     -36.488  26.511   5.565  0.00  0.00    -0.480 OA
ATOM     24  H   UNL     1     -37.288  26.992   5.657  0.00  0.00    +0.295 HD
ENDBRANCH  22  23
ENDBRANCH  20  22
BRANCH  20  26
ATOM     25  O   UNL     1     -32.897  26.682   4.134  0.00  0.00    -0.250 OA
ATOM     26  C   UNL     1     -33.759  26.217   4.868  0.00  0.00    +0.324 C 
BRANCH  26  27
ATOM     27  O   UNL     1     -33.855  26.546   6.183  0.00  0.00    -0.480 OA
ATOM     28  H   UNL     1     -33.308  26.121   6.814  0.00  0.00    +0.295 HD
ENDBRANCH  26  27
ENDBRANCH  20  26
ENDBRANCH  19  20
ENDBRANCH   1  19
TORSDOF 13
ENDMDL
MODEL 8
REMARK VINA RESULT:      -5.2      3.273      6.093
REMARK  Name = 191722
REMARK  13 active torsions:
REMARK  status: ('A' for Active; 'I' for Inactive)
REMARK    1  A    between atoms: CA_1  and  C_4
REMARK    2  A    between atoms: CA_1  and  N_15
REMARK    3  A    between atoms: CA_1  and  C_19
REMARK    4  A    between atoms: N_3  and  CA_6
REMARK    5  A    between atoms: CA_6  and  C_8
REMARK    6  A    between atoms: CA_6  and  CB_11
REMARK    7  A    between atoms: C_8  and  O_9
REMARK    8  A    between atoms: CB_11  and  CG_12
REMARK    9  A    between atoms: C_19  and  C_20
REMARK   10  A    between atoms: C_20  and  C_22
REMARK   11  A    between atoms: C_20  and  C_26
REMARK   12  A    between atoms: C_22  and  O_23
REMARK   13  A    between atoms: C_26  and  O_27
REMARK                            x       y       z     vdW  Elec       q    Type
REMARK                         _______ _______ _______ _____ _____    ______ ____
ROOT
ATOM      1  CA  UNL     1     -35.538  20.202   2.277  0.00  0.00    +0.014 C 
ENDROOT
BRANCH   1   4
ATOM      2  O   UNL     1     -35.116  22.428   1.435  0.00  0.00    -0.277 OA
ATOM      3  N   UNL     1     -36.073  22.202   3.538  0.00  0.00    -0.298 N 
ATOM      4  C   ACE A   1     -35.539  21.724   2.352  0.00  0.00    +0.202 C 
ATOM      5  H   UNL     1     -36.384  21.553   4.210  0.00  0.00    +0.150 HD
BRANCH   3   6
ATOM      6  CA  UNL     1     -36.192  23.611   3.832  0.00  0.00    +0.171 C 
BRANCH   6   8
ATOM      7  OXT UNL     1     -38.484  23.609   3.057  0.00  0.00    -0.248 OA
ATOM      8  C   UNL     1     -37.617  24.132   3.749  0.00  0.00    +0.332 C 
BRANCH   8   9
ATOM      9  O   UNL     1     -37.845  25.262   4.461  0.00  0.00    -0.479 OA
ATOM     10  H   UNL     1     -37.691  25.272   5.386  0.00  0.00    +0.295 HD
ENDBRANCH   8   9
ENDBRANCH   6   8
BRANCH   6  11
ATOM     11  CB  UNL     1     -35.498  23.965   5.157  0.00  0.00    +0.031 C 
BRANCH  11  12
ATOM     12  CG  UNL     1     -34.205  24.810   5.086  0.00  0.00    +0.002 C 
ATOM     13  CD1 UNL     1     -34.249  26.076   5.937  0.00  0.00    +0.000 C 
ATOM     14  CD2 UNL     1     -33.928  25.187   3.626  0.00  0.00    +0.000 C 
ENDBRANCH  11  12
ENDBRANCH   6  11
ENDBRANCH   3   6
ENDBRANCH   1   4
BRANCH   1  15
ATOM     15  N   UNL     1     -36.950  19.811   2.228  0.00  0.00    +0.387 N 
ATOM     16  H1  UNL     1     -37.397  20.252   1.424  0.00  0.00    -0.089 HD
ATOM     17  H2  UNL     1     -37.416  20.113   3.084  0.00  0.00    -0.089 HD
ATOM     18  H3  UNL     1     -37.019  18.797   2.142  0.00  0.00    -0.089 HD
ENDBRANCH   1  15
BRANCH   1  19
ATOM     19  C   UNL     1     -34.818  19.685   1.017  0.00  0.00    +0.009 C 
BRANCH  19  20
ATOM     20  C   UNL     1     -33.295  19.486   1.165  0.00  0.00    +0.195 C 
BRANCH  20  22
ATOM     21  O   UNL     1     -31.849  17.553   1.576  0.00  0.00    -0.250 OA
ATOM     22  C   UNL     1     -32.903  18.018   1.169  0.00  0.00    +0.324 C 
BRANCH  22  23
ATOM     23  O   UNL     1     -33.910  17.251   0.676  0.00  0.00    -0.480 OA
ATOM     24  H   UNL     1     -34.767  17.615   0.566  0.00  0.00    +0.295 HD
ENDBRANCH  22  23
ENDBRANCH  20  22
BRANCH  20  26
ATOM     25  O   UNL     1     -31.324  20.328  -0.005  0.00  0.00    -0.250 OA
ATOM     26  C   UNL     1     -32.536  20.341   0.161  0.00  0.00    +0.324 C 
BRANCH  26  27
ATOM     27  O   UNL     1     -33.365  21.137  -0.564  0.00  0.00    -0.480 OA
ATOM     28  H   UNL     1     -34.285  20.963  -0.582  0.00  0.00    +0.295 HD
ENDBRANCH  26  27
ENDBRANCH  20  26
ENDBRANCH  19  20
ENDBRANCH   1  19
TORSDOF 13
ENDMDL
MODEL 9
REMARK VINA RESULT:      -5.2      3.009      6.373
REMARK  Name = 191722
REMARK  13 active torsions:
REMARK  status: ('A' for Active; 'I' for Inactive)
REMARK    1  A    between atoms: CA_1  and  C_4
REMARK    2  A    between atoms: CA_1  and  N_15
REMARK    3  A    between atoms: CA_1  and  C_19
REMARK    4  A    between atoms: N_3  and  CA_6
REMARK    5  A    between atoms: CA_6  and  C_8
REMARK    6  A    between atoms: CA_6  and  CB_11
REMARK    7  A    between atoms: C_8  and  O_9
REMARK    8  A    between atoms: CB_11  and  CG_12
REMARK    9  A    between atoms: C_19  and  C_20
REMARK   10  A    between atoms: C_20  and  C_22
REMARK   11  A    between atoms: C_20  and  C_26
REMARK   12  A    between atoms: C_22  and  O_23
REMARK   13  A    between atoms: C_26  and  O_27
REMARK                            x       y       z     vdW  Elec       q    Type
REMARK                         _______ _______ _______ _____ _____    ______ ____
ROOT
ATOM      1  CA  UNL     1     -35.424  25.185   5.311  0.00  0.00    +0.014 C 
ENDROOT
BRANCH   1   4
ATOM      2  O   UNL     1     -33.345  25.071   4.085  0.00  0.00    -0.277 OA
ATOM      3  N   UNL     1     -34.450  27.109   4.204  0.00  0.00    -0.298 N 
ATOM      4  C   ACE A   1     -34.287  25.759   4.475  0.00  0.00    +0.202 C 
ATOM      5  H   UNL     1     -35.243  27.569   4.565  0.00  0.00    +0.150 HD
BRANCH   3   6
ATOM      6  CA  UNL     1     -33.508  27.869   3.417  0.00  0.00    +0.171 C 
BRANCH   6   8
ATOM      7  OXT UNL     1     -33.536  29.799   1.958  0.00  0.00    -0.248 OA
ATOM      8  C   UNL     1     -34.092  29.148   2.836  0.00  0.00    +0.332 C 
BRANCH   8   9
ATOM      9  O   UNL     1     -35.255  29.544   3.406  0.00  0.00    -0.479 OA
ATOM     10  H   UNL     1     -35.524  30.440   3.345  0.00  0.00    +0.295 HD
ENDBRANCH   8   9
ENDBRANCH   6   8
BRANCH   6  11
ATOM     11  CB  UNL     1     -32.198  28.102   4.185  0.00  0.00    +0.031 C 
BRANCH  11  12
ATOM     12  CG  UNL     1     -32.274  28.891   5.513  0.00  0.00    +0.002 C 
ATOM     13  CD1 UNL     1     -31.242  30.010   5.625  0.00  0.00    +0.000 C 
ATOM     14  CD2 UNL     1     -32.104  27.920   6.687  0.00  0.00    +0.000 C 
ENDBRANCH  11  12
ENDBRANCH   6  11
ENDBRANCH   3   6
ENDBRANCH   1   4
BRANCH   1  15
ATOM     15  N   UNL     1     -36.316  26.314   5.588  0.00  0.00    +0.387 N 
ATOM     16  H1  UNL     1     -36.978  26.420   4.819  0.00  0.00    -0.089 HD
ATOM     17  H2  UNL     1     -35.765  27.168   5.683  0.00  0.00    -0.089 HD
ATOM     18  H3  UNL     1     -36.827  26.140   6.454  0.00  0.00    -0.089 HD
ENDBRANCH   1  15
BRANCH   1  19
ATOM     19  C   UNL     1     -36.201  24.089   4.558  0.00  0.00    +0.009 C 
BRANCH  19  20
ATOM     20  C   UNL     1     -35.463  22.742   4.411  0.00  0.00    +0.195 C 
BRANCH  20  22
ATOM     21  O   UNL     1     -35.885  22.307   6.784  0.00  0.00    -0.250 OA
ATOM     22  C   UNL     1     -35.504  21.920   5.689  0.00  0.00    +0.324 C 
BRANCH  22  23
ATOM     23  O   UNL     1     -35.081  20.651   5.457  0.00  0.00    -0.480 OA
ATOM     24  H   UNL     1     -35.650  20.036   5.038  0.00  0.00    +0.295 HD
ENDBRANCH  22  23
ENDBRANCH  20  22
BRANCH  20  26
ATOM     25  O   UNL     1     -35.209  21.353   2.419  0.00  0.00    -0.250 OA
ATOM     26  C   UNL     1     -35.929  22.001   3.167  0.00  0.00    +0.324 C 
BRANCH  26  27
ATOM     27  O   UNL     1     -37.267  22.125   2.968  0.00  0.00    -0.480 OA
ATOM     28  H   UNL     1     -37.631  21.975   2.117  0.00  0.00    +0.295 HD
ENDBRANCH  26  27
ENDBRANCH  20  26
ENDBRANCH  19  20
ENDBRANCH   1  19
TORSDOF 13
ENDMDL
