MODEL 1
REMARK VINA RESULT:      -6.7      0.000      0.000
REMARK  Name = 57928403
REMARK  4 active torsions:
REMARK  status: ('A' for Active; 'I' for Inactive)
REMARK    1  A    between atoms: C_3  and  N_16
REMARK    2  A    between atoms: C_5  and  C_13
REMARK    3  A    between atoms: N_16  and  C_22
REMARK    4  A    between atoms: C_20  and  O_28
REMARK                            x       y       z     vdW  Elec       q    Type
REMARK                         _______ _______ _______ _____ _____    ______ ____
ROOT
ATOM      1  N   UNL     1     -39.071  21.182   0.849  0.00  0.00    -0.229 NA
ATOM      2  N   UNL     1     -37.069  19.848   0.979  0.00  0.00    -0.297 N 
ATOM      3  C   UNL     1     -37.707  22.880   2.697  0.00  0.00    +0.053 C 
ATOM      4  C   UNL     1     -37.104  21.707   2.215  0.00  0.00    +0.046 C 
ATOM      5  C   UNL     1     -38.989  23.186   2.242  0.00  0.00    +0.085 C 
ATOM      6  C   UNL     1     -37.834  20.932   1.318  0.00  0.00    +0.133 C 
ATOM      7  C   UNL     1     -35.862  21.047   2.411  0.00  0.00    +0.020 C 
ATOM      8  C   UNL     1     -39.603  22.323   1.344  0.00  0.00    +0.106 C 
ATOM      9  C   UNL     1     -35.868  19.907   1.638  0.00  0.00    +0.063 C 
ATOM     10  H   UNL     1     -37.341  19.134   0.358  0.00  0.00    +0.154 HD
ENDROOT
BRANCH   5  13
ATOM     11  O   UNL     1     -39.739  24.696   3.885  0.00  0.00    -0.270 OA
ATOM     12  N   UNL     1     -40.316  25.161   1.715  0.00  0.00    -0.325 N 
ATOM     13  C   UNL     1     -39.699  24.378   2.686  0.00  0.00    +0.245 C 
ATOM     14  H   UNL     1     -40.805  25.974   1.977  0.00  0.00    +0.145 HD
ATOM     15  H   UNL     1     -40.263  24.902   0.767  0.00  0.00    +0.145 HD
ENDBRANCH   5  13
BRANCH   3  16
ATOM     16  N   UNL     1     -37.057  23.710   3.591  0.00  0.00    -0.334 N 
ATOM     17  H   UNL     1     -37.268  23.620   4.548  0.00  0.00    +0.147 HD
BRANCH  16  22
ATOM     18  C   UNL     1     -36.342  26.045   3.914  0.00  0.00    +0.020 C 
ATOM     19  C   UNL     1     -34.647  24.219   3.498  0.00  0.00    +0.020 C 
ATOM     20  C   UNL     1     -33.880  26.599   3.851  0.00  0.00    +0.088 C 
ATOM     21  C   UNL     1     -34.815  25.287   5.784  0.00  0.00    +0.002 C 
ATOM     22  C   UNL     1     -36.080  24.705   3.194  0.00  0.00    +0.069 C 
ATOM     23  C   UNL     1     -35.294  27.103   3.517  0.00  0.00    +0.029 C 
ATOM     24  C   UNL     1     -33.613  25.288   3.091  0.00  0.00    +0.029 C 
ATOM     25  C   UNL     1     -36.226  25.798   5.434  0.00  0.00    +0.002 C 
ATOM     26  C   UNL     1     -34.535  23.980   5.017  0.00  0.00    +0.002 C 
ATOM     27  C   UNL     1     -33.781  26.343   5.364  0.00  0.00    +0.027 C 
BRANCH  20  28
ATOM     28  O   UNL     1     -32.918  27.577   3.483  0.00  0.00    -0.387 OA
ATOM     29  H   UNL     1     -32.132  27.485   4.045  0.00  0.00    +0.210 HD
ENDBRANCH  20  28
ENDBRANCH  16  22
ENDBRANCH   3  16
TORSDOF 4
ENDMDL
MODEL 2
REMARK VINA RESULT:      -6.6      1.399      3.199
REMARK  Name = 57928403
REMARK  4 active torsions:
REMARK  status: ('A' for Active; 'I' for Inactive)
REMARK    1  A    between atoms: C_3  and  N_16
REMARK    2  A    between atoms: C_5  and  C_13
REMARK    3  A    between atoms: N_16  and  C_22
REMARK    4  A    between atoms: C_20  and  O_28
REMARK                            x       y       z     vdW  Elec       q    Type
REMARK                         _______ _______ _______ _____ _____    ______ ____
ROOT
ATOM      1  N   UNL     1     -40.100  22.282   0.726  0.00  0.00    -0.229 NA
ATOM      2  N   UNL     1     -41.242  24.289   1.414  0.00  0.00    -0.297 N 
ATOM      3  C   UNL     1     -38.089  23.148   2.561  0.00  0.00    +0.053 C 
ATOM      4  C   UNL     1     -39.258  23.901   2.364  0.00  0.00    +0.046 C 
ATOM      5  C   UNL     1     -37.946  21.967   1.833  0.00  0.00    +0.085 C 
ATOM      6  C   UNL     1     -40.190  23.412   1.453  0.00  0.00    +0.133 C 
ATOM      7  C   UNL     1     -39.785  25.114   2.879  0.00  0.00    +0.020 C 
ATOM      8  C   UNL     1     -38.955  21.597   0.956  0.00  0.00    +0.106 C 
ATOM      9  C   UNL     1     -41.006  25.328   2.277  0.00  0.00    +0.063 C 
ATOM     10  H   UNL     1     -42.043  24.189   0.851  0.00  0.00    +0.154 HD
ENDROOT
BRANCH   5  13
ATOM     11  O   UNL     1     -35.640  21.529   1.643  0.00  0.00    -0.270 OA
ATOM     12  N   UNL     1     -36.947  19.842   2.482  0.00  0.00    -0.325 N 
ATOM     13  C   UNL     1     -36.768  21.120   1.965  0.00  0.00    +0.245 C 
ATOM     14  H   UNL     1     -36.175  19.241   2.587  0.00  0.00    +0.145 HD
ATOM     15  H   UNL     1     -37.846  19.538   2.745  0.00  0.00    +0.145 HD
ENDBRANCH   5  13
BRANCH   3  16
ATOM     16  N   UNL     1     -37.110  23.557   3.447  0.00  0.00    -0.334 N 
ATOM     17  H   UNL     1     -37.078  23.131   4.334  0.00  0.00    +0.147 HD
BRANCH  16  22
ATOM     18  C   UNL     1     -36.415  25.869   3.935  0.00  0.00    +0.020 C 
ATOM     19  C   UNL     1     -34.701  24.078   3.451  0.00  0.00    +0.020 C 
ATOM     20  C   UNL     1     -33.955  26.433   3.973  0.00  0.00    +0.088 C 
ATOM     21  C   UNL     1     -34.935  25.000   5.794  0.00  0.00    +0.002 C 
ATOM     22  C   UNL     1     -36.128  24.577   3.139  0.00  0.00    +0.069 C 
ATOM     23  C   UNL     1     -35.361  26.952   3.633  0.00  0.00    +0.029 C 
ATOM     24  C   UNL     1     -33.662  25.173   3.140  0.00  0.00    +0.029 C 
ATOM     25  C   UNL     1     -36.339  25.528   5.439  0.00  0.00    +0.002 C 
ATOM     26  C   UNL     1     -34.629  23.744   4.955  0.00  0.00    +0.002 C 
ATOM     27  C   UNL     1     -33.895  26.083   5.469  0.00  0.00    +0.027 C 
BRANCH  20  28
ATOM     28  O   UNL     1     -32.987  27.435   3.693  0.00  0.00    -0.387 OA
ATOM     29  H   UNL     1     -33.398  28.147   3.177  0.00  0.00    +0.210 HD
ENDBRANCH  20  28
ENDBRANCH  16  22
ENDBRANCH   3  16
TORSDOF 4
ENDMDL
MODEL 3
REMARK VINA RESULT:      -6.5      1.714      3.323
REMARK  Name = 57928403
REMARK  4 active torsions:
REMARK  status: ('A' for Active; 'I' for Inactive)
REMARK    1  A    between atoms: C_3  and  N_16
REMARK    2  A    between atoms: C_5  and  C_13
REMARK    3  A    between atoms: N_16  and  C_22
REMARK    4  A    between atoms: C_20  and  O_28
REMARK                            x       y       z     vdW  Elec       q    Type
REMARK                         _______ _______ _______ _____ _____    ______ ____
ROOT
ATOM      1  N   UNL     1     -38.345  20.623   0.294  0.00  0.00    -0.229 NA
ATOM      2  N   UNL     1     -40.216  22.140   0.356  0.00  0.00    -0.297 N 
ATOM      3  C   UNL     1     -37.446  22.105   2.565  0.00  0.00    +0.053 C 
ATOM      4  C   UNL     1     -38.653  22.429   1.924  0.00  0.00    +0.046 C 
ATOM      5  C   UNL     1     -36.706  21.038   2.057  0.00  0.00    +0.085 C 
ATOM      6  C   UNL     1     -39.021  21.660   0.824  0.00  0.00    +0.133 C 
ATOM      7  C   UNL     1     -39.672  23.401   2.106  0.00  0.00    +0.020 C 
ATOM      8  C   UNL     1     -37.193  20.354   0.951  0.00  0.00    +0.106 C 
ATOM      9  C   UNL     1     -40.621  23.198   1.127  0.00  0.00    +0.063 C 
ATOM     10  H   UNL     1     -40.708  21.780  -0.418  0.00  0.00    +0.154 HD
ENDROOT
BRANCH   5  13
ATOM     11  O   UNL     1     -35.270  20.641   3.880  0.00  0.00    -0.270 OA
ATOM     12  N   UNL     1     -34.433  20.201   1.791  0.00  0.00    -0.325 N 
ATOM     13  C   UNL     1     -35.441  20.627   2.650  0.00  0.00    +0.245 C 
ATOM     14  H   UNL     1     -33.564  19.915   2.155  0.00  0.00    +0.145 HD
ATOM     15  H   UNL     1     -34.589  20.183   0.819  0.00  0.00    +0.145 HD
ENDBRANCH   5  13
BRANCH   3  16
ATOM     16  N   UNL     1     -37.001  22.814   3.665  0.00  0.00    -0.334 N 
ATOM     17  H   UNL     1     -36.771  22.313   4.480  0.00  0.00    +0.147 HD
BRANCH  16  22
ATOM     18  C   UNL     1     -36.242  24.728   5.018  0.00  0.00    +0.020 C 
ATOM     19  C   UNL     1     -35.978  24.733   2.505  0.00  0.00    +0.020 C 
ATOM     20  C   UNL     1     -35.166  26.700   3.866  0.00  0.00    +0.088 C 
ATOM     21  C   UNL     1     -33.941  24.505   3.988  0.00  0.00    +0.002 C 
ATOM     22  C   UNL     1     -36.856  24.256   3.682  0.00  0.00    +0.069 C 
ATOM     23  C   UNL     1     -36.061  26.259   5.035  0.00  0.00    +0.029 C 
ATOM     24  C   UNL     1     -35.811  26.265   2.538  0.00  0.00    +0.029 C 
ATOM     25  C   UNL     1     -34.849  24.076   5.157  0.00  0.00    +0.002 C 
ATOM     26  C   UNL     1     -34.586  24.084   2.652  0.00  0.00    +0.002 C 
ATOM     27  C   UNL     1     -33.787  26.033   4.007  0.00  0.00    +0.027 C 
BRANCH  20  28
ATOM     28  O   UNL     1     -35.002  28.111   3.886  0.00  0.00    -0.387 OA
ATOM     29  H   UNL     1     -35.863  28.539   3.753  0.00  0.00    +0.210 HD
ENDBRANCH  20  28
ENDBRANCH  16  22
ENDBRANCH   3  16
TORSDOF 4
ENDMDL
MODEL 4
REMARK VINA RESULT:      -6.2      1.556      2.063
REMARK  Name = 57928403
REMARK  4 active torsions:
REMARK  status: ('A' for Active; 'I' for Inactive)
REMARK    1  A    between atoms: C_3  and  N_16
REMARK    2  A    between atoms: C_5  and  C_13
REMARK    3  A    between atoms: N_16  and  C_22
REMARK    4  A    between atoms: C_20  and  O_28
REMARK                            x       y       z     vdW  Elec       q    Type
REMARK                         _______ _______ _______ _____ _____    ______ ____
ROOT
ATOM      1  N   UNL     1     -37.127  19.359   0.038  0.00  0.00    -0.229 NA
ATOM      2  N   UNL     1     -34.870  18.746   0.617  0.00  0.00    -0.297 N 
ATOM      3  C   UNL     1     -36.791  21.350   2.059  0.00  0.00    +0.053 C 
ATOM      4  C   UNL     1     -35.755  20.453   1.752  0.00  0.00    +0.046 C 
ATOM      5  C   UNL     1     -37.983  21.237   1.345  0.00  0.00    +0.085 C 
ATOM      6  C   UNL     1     -35.997  19.512   0.755  0.00  0.00    +0.133 C 
ATOM      7  C   UNL     1     -34.433  20.228   2.217  0.00  0.00    +0.020 C 
ATOM      8  C   UNL     1     -38.089  20.250   0.375  0.00  0.00    +0.106 C 
ATOM      9  C   UNL     1     -33.912  19.172   1.500  0.00  0.00    +0.063 C 
ATOM     10  H   UNL     1     -34.764  18.002  -0.020  0.00  0.00    +0.154 HD
ENDROOT
BRANCH   5  13
ATOM     11  O   UNL     1     -39.106  23.302   1.218  0.00  0.00    -0.270 OA
ATOM     12  N   UNL     1     -40.219  21.583   2.250  0.00  0.00    -0.325 N 
ATOM     13  C   UNL     1     -39.115  22.118   1.593  0.00  0.00    +0.245 C 
ATOM     14  H   UNL     1     -41.003  22.148   2.435  0.00  0.00    +0.145 HD
ATOM     15  H   UNL     1     -40.216  20.639   2.528  0.00  0.00    +0.145 HD
ENDBRANCH   5  13
BRANCH   3  16
ATOM     16  N   UNL     1     -36.639  22.319   3.034  0.00  0.00    -0.334 N 
ATOM     17  H   UNL     1     -37.176  22.241   3.855  0.00  0.00    +0.147 HD
BRANCH  16  22
ATOM     18  C   UNL     1     -36.516  24.761   2.735  0.00  0.00    +0.020 C 
ATOM     19  C   UNL     1     -34.813  23.543   4.147  0.00  0.00    +0.020 C 
ATOM     20  C   UNL     1     -34.673  26.050   3.881  0.00  0.00    +0.088 C 
ATOM     21  C   UNL     1     -36.527  25.040   5.250  0.00  0.00    +0.002 C 
ATOM     22  C   UNL     1     -35.732  23.443   2.911  0.00  0.00    +0.069 C 
ATOM     23  C   UNL     1     -35.560  25.965   2.628  0.00  0.00    +0.029 C 
ATOM     24  C   UNL     1     -33.862  24.750   4.021  0.00  0.00    +0.029 C 
ATOM     25  C   UNL     1     -37.402  24.958   3.984  0.00  0.00    +0.002 C 
ATOM     26  C   UNL     1     -35.702  23.745   5.391  0.00  0.00    +0.002 C 
ATOM     27  C   UNL     1     -35.567  26.232   5.120  0.00  0.00    +0.027 C 
BRANCH  20  28
ATOM     28  O   UNL     1     -33.794  27.161   3.779  0.00  0.00    -0.387 OA
ATOM     29  H   UNL     1     -34.186  27.831   3.196  0.00  0.00    +0.210 HD
ENDBRANCH  20  28
ENDBRANCH  16  22
ENDBRANCH   3  16
TORSDOF 4
ENDMDL
MODEL 5
REMARK VINA RESULT:      -6.2      1.622      2.069
REMARK  Name = 57928403
REMARK  4 active torsions:
REMARK  status: ('A' for Active; 'I' for Inactive)
REMARK    1  A    between atoms: C_3  and  N_16
REMARK    2  A    between atoms: C_5  and  C_13
REMARK    3  A    between atoms: N_16  and  C_22
REMARK    4  A    between atoms: C_20  and  O_28
REMARK                            x       y       z     vdW  Elec       q    Type
REMARK                         _______ _______ _______ _____ _____    ______ ____
ROOT
ATOM      1  N   UNL     1     -41.223  23.235   0.397  0.00  0.00    -0.229 NA
ATOM      2  N   UNL     1     -40.053  21.183  -0.078  0.00  0.00    -0.297 N 
ATOM      3  C   UNL     1     -39.116  23.656   2.279  0.00  0.00    +0.053 C 
ATOM      4  C   UNL     1     -39.151  22.500   1.483  0.00  0.00    +0.046 C 
ATOM      5  C   UNL     1     -40.140  24.588   2.118  0.00  0.00    +0.085 C 
ATOM      6  C   UNL     1     -40.211  22.368   0.590  0.00  0.00    +0.133 C 
ATOM      7  C   UNL     1     -38.341  21.344   1.332  0.00  0.00    +0.020 C 
ATOM      8  C   UNL     1     -41.138  24.329   1.189  0.00  0.00    +0.106 C 
ATOM      9  C   UNL     1     -38.920  20.552   0.364  0.00  0.00    +0.063 C 
ATOM     10  H   UNL     1     -40.663  20.836  -0.770  0.00  0.00    +0.154 HD
ENDROOT
BRANCH   5  13
ATOM     11  O   UNL     1     -39.495  26.800   2.603  0.00  0.00    -0.270 OA
ATOM     12  N   UNL     1     -41.068  25.856   3.980  0.00  0.00    -0.325 N 
ATOM     13  C   UNL     1     -40.193  25.816   2.899  0.00  0.00    +0.245 C 
ATOM     14  H   UNL     1     -41.132  26.670   4.531  0.00  0.00    +0.145 HD
ATOM     15  H   UNL     1     -41.624  25.073   4.193  0.00  0.00    +0.145 HD
ENDBRANCH   5  13
BRANCH   3  16
ATOM     16  N   UNL     1     -38.100  23.872   3.192  0.00  0.00    -0.334 N 
ATOM     17  H   UNL     1     -38.244  23.589   4.124  0.00  0.00    +0.147 HD
BRANCH  16  22
ATOM     18  C   UNL     1     -36.487  25.612   3.852  0.00  0.00    +0.020 C 
ATOM     19  C   UNL     1     -35.701  23.443   2.823  0.00  0.00    +0.020 C 
ATOM     20  C   UNL     1     -34.020  25.197   3.513  0.00  0.00    +0.088 C 
ATOM     21  C   UNL     1     -35.273  23.906   5.273  0.00  0.00    +0.002 C 
ATOM     22  C   UNL     1     -36.835  24.490   2.850  0.00  0.00    +0.069 C 
ATOM     23  C   UNL     1     -35.130  26.260   3.511  0.00  0.00    +0.029 C 
ATOM     24  C   UNL     1     -34.354  24.108   2.478  0.00  0.00    +0.029 C 
ATOM     25  C   UNL     1     -36.379  24.978   5.256  0.00  0.00    +0.002 C 
ATOM     26  C   UNL     1     -35.594  22.817   4.229  0.00  0.00    +0.002 C 
ATOM     27  C   UNL     1     -33.932  24.563   4.912  0.00  0.00    +0.027 C 
BRANCH  20  28
ATOM     28  O   UNL     1     -32.772  25.798   3.199  0.00  0.00    -0.387 OA
ATOM     29  H   UNL     1     -32.061  25.333   3.668  0.00  0.00    +0.210 HD
ENDBRANCH  20  28
ENDBRANCH  16  22
ENDBRANCH   3  16
TORSDOF 4
ENDMDL
MODEL 6
REMARK VINA RESULT:      -6.0      2.825      4.078
REMARK  Name = 57928403
REMARK  4 active torsions:
REMARK  status: ('A' for Active; 'I' for Inactive)
REMARK    1  A    between atoms: C_3  and  N_16
REMARK    2  A    between atoms: C_5  and  C_13
REMARK    3  A    between atoms: N_16  and  C_22
REMARK    4  A    between atoms: C_20  and  O_28
REMARK                            x       y       z     vdW  Elec       q    Type
REMARK                         _______ _______ _______ _____ _____    ______ ____
ROOT
ATOM      1  N   UNL     1     -33.434  20.355  -0.557  0.00  0.00    -0.229 NA
ATOM      2  N   UNL     1     -32.581  22.291  -1.711  0.00  0.00    -0.297 N 
ATOM      3  C   UNL     1     -34.681  22.283   1.143  0.00  0.00    +0.053 C 
ATOM      4  C   UNL     1     -33.883  22.686   0.059  0.00  0.00    +0.046 C 
ATOM      5  C   UNL     1     -34.844  20.916   1.358  0.00  0.00    +0.085 C 
ATOM      6  C   UNL     1     -33.311  21.686  -0.721  0.00  0.00    +0.133 C 
ATOM      7  C   UNL     1     -33.472  23.927  -0.495  0.00  0.00    +0.020 C 
ATOM      8  C   UNL     1     -34.214  20.025   0.500  0.00  0.00    +0.106 C 
ATOM      9  C   UNL     1     -32.672  23.652  -1.583  0.00  0.00    +0.063 C 
ATOM     10  H   UNL     1     -32.069  21.818  -2.407  0.00  0.00    +0.154 HD
ENDROOT
BRANCH   5  13
ATOM     11  O   UNL     1     -35.258  20.474   3.633  0.00  0.00    -0.270 OA
ATOM     12  N   UNL     1     -36.882  19.836   2.145  0.00  0.00    -0.325 N 
ATOM     13  C   UNL     1     -35.649  20.400   2.457  0.00  0.00    +0.245 C 
ATOM     14  H   UNL     1     -37.454  19.478   2.861  0.00  0.00    +0.145 HD
ATOM     15  H   UNL     1     -37.182  19.797   1.209  0.00  0.00    +0.145 HD
ENDBRANCH   5  13
BRANCH   3  16
ATOM     16  N   UNL     1     -35.290  23.208   1.971  0.00  0.00    -0.334 N 
ATOM     17  H   UNL     1     -36.269  23.304   1.921  0.00  0.00    +0.147 HD
BRANCH  16  22
ATOM     18  C   UNL     1     -34.959  25.525   2.737  0.00  0.00    +0.020 C 
ATOM     19  C   UNL     1     -34.833  23.595   4.361  0.00  0.00    +0.020 C 
ATOM     20  C   UNL     1     -34.514  25.961   5.184  0.00  0.00    +0.088 C 
ATOM     21  C   UNL     1     -36.794  25.191   4.448  0.00  0.00    +0.002 C 
ATOM     22  C   UNL     1     -34.566  24.042   2.909  0.00  0.00    +0.069 C 
ATOM     23  C   UNL     1     -34.211  26.418   3.747  0.00  0.00    +0.029 C 
ATOM     24  C   UNL     1     -34.076  24.496   5.356  0.00  0.00    +0.029 C 
ATOM     25  C   UNL     1     -36.473  25.650   3.012  0.00  0.00    +0.002 C 
ATOM     26  C   UNL     1     -36.346  23.727   4.633  0.00  0.00    +0.002 C 
ATOM     27  C   UNL     1     -36.026  26.077   5.441  0.00  0.00    +0.027 C 
BRANCH  20  28
ATOM     28  O   UNL     1     -33.823  26.787   6.111  0.00  0.00    -0.387 OA
ATOM     29  H   UNL     1     -33.266  26.235   6.682  0.00  0.00    +0.210 HD
ENDBRANCH  20  28
ENDBRANCH  16  22
ENDBRANCH   3  16
TORSDOF 4
ENDMDL
MODEL 7
REMARK VINA RESULT:      -6.0      3.484      6.787
REMARK  Name = 57928403
REMARK  4 active torsions:
REMARK  status: ('A' for Active; 'I' for Inactive)
REMARK    1  A    between atoms: C_3  and  N_16
REMARK    2  A    between atoms: C_5  and  C_13
REMARK    3  A    between atoms: N_16  and  C_22
REMARK    4  A    between atoms: C_20  and  O_28
REMARK                            x       y       z     vdW  Elec       q    Type
REMARK                         _______ _______ _______ _____ _____    ______ ____
ROOT
ATOM      1  N   UNL     1     -33.442  30.274   1.071  0.00  0.00    -0.229 NA
ATOM      2  N   UNL     1     -35.557  30.086  -0.070  0.00  0.00    -0.297 N 
ATOM      3  C   UNL     1     -34.560  28.335   2.845  0.00  0.00    +0.053 C 
ATOM      4  C   UNL     1     -35.292  28.814   1.746  0.00  0.00    +0.046 C 
ATOM      5  C   UNL     1     -33.273  28.836   3.037  0.00  0.00    +0.085 C 
ATOM      6  C   UNL     1     -34.678  29.758   0.929  0.00  0.00    +0.133 C 
ATOM      7  C   UNL     1     -36.584  28.580   1.205  0.00  0.00    +0.020 C 
ATOM      8  C   UNL     1     -32.783  29.777   2.143  0.00  0.00    +0.106 C 
ATOM      9  C   UNL     1     -36.718  29.376   0.088  0.00  0.00    +0.063 C 
ATOM     10  H   UNL     1     -35.380  30.734  -0.790  0.00  0.00    +0.154 HD
ENDROOT
BRANCH   5  13
ATOM     11  O   UNL     1     -31.750  27.372   4.076  0.00  0.00    -0.270 OA
ATOM     12  N   UNL     1     -32.421  29.198   5.291  0.00  0.00    -0.325 N 
ATOM     13  C   UNL     1     -32.438  28.404   4.149  0.00  0.00    +0.245 C 
ATOM     14  H   UNL     1     -31.867  28.938   6.062  0.00  0.00    +0.145 HD
ATOM     15  H   UNL     1     -32.960  30.020   5.327  0.00  0.00    +0.145 HD
ENDBRANCH   5  13
BRANCH   3  16
ATOM     16  N   UNL     1     -35.091  27.395   3.709  0.00  0.00    -0.334 N 
ATOM     17  H   UNL     1     -35.095  27.599   4.673  0.00  0.00    +0.147 HD
BRANCH  16  22
ATOM     18  C   UNL     1     -34.535  25.053   3.186  0.00  0.00    +0.020 C 
ATOM     19  C   UNL     1     -36.754  25.654   4.232  0.00  0.00    +0.020 C 
ATOM     20  C   UNL     1     -36.205  23.240   3.731  0.00  0.00    +0.088 C 
ATOM     21  C   UNL     1     -35.006  24.434   5.594  0.00  0.00    +0.002 C 
ATOM     22  C   UNL     1     -35.641  26.127   3.274  0.00  0.00    +0.069 C 
ATOM     23  C   UNL     1     -35.116  23.694   2.747  0.00  0.00    +0.029 C 
ATOM     24  C   UNL     1     -37.324  24.296   3.776  0.00  0.00    +0.029 C 
ATOM     25  C   UNL     1     -33.923  24.884   4.594  0.00  0.00    +0.002 C 
ATOM     26  C   UNL     1     -36.137  25.482   5.636  0.00  0.00    +0.002 C 
ATOM     27  C   UNL     1     -35.588  23.090   5.132  0.00  0.00    +0.027 C 
BRANCH  20  28
ATOM     28  O   UNL     1     -36.737  21.988   3.323  0.00  0.00    -0.387 OA
ATOM     29  H   UNL     1     -36.020  21.426   2.988  0.00  0.00    +0.210 HD
ENDBRANCH  20  28
ENDBRANCH  16  22
ENDBRANCH   3  16
TORSDOF 4
ENDMDL
MODEL 8
REMARK VINA RESULT:      -5.9      2.931      4.214
REMARK  Name = 57928403
REMARK  4 active torsions:
REMARK  status: ('A' for Active; 'I' for Inactive)
REMARK    1  A    between atoms: C_3  and  N_16
REMARK    2  A    between atoms: C_5  and  C_13
REMARK    3  A    between atoms: N_16  and  C_22
REMARK    4  A    between atoms: C_20  and  O_28
REMARK                            x       y       z     vdW  Elec       q    Type
REMARK                         _______ _______ _______ _____ _____    ______ ____
ROOT
ATOM      1  N   UNL     1     -35.377  20.635   3.353  0.00  0.00    -0.229 NA
ATOM      2  N   UNL     1     -35.449  21.111   5.713  0.00  0.00    -0.297 N 
ATOM      3  C   UNL     1     -35.087  23.464   3.090  0.00  0.00    +0.053 C 
ATOM      4  C   UNL     1     -35.209  22.867   4.355  0.00  0.00    +0.046 C 
ATOM      5  C   UNL     1     -35.111  22.632   1.972  0.00  0.00    +0.085 C 
ATOM      6  C   UNL     1     -35.347  21.482   4.399  0.00  0.00    +0.133 C 
ATOM      7  C   UNL     1     -35.233  23.325   5.698  0.00  0.00    +0.020 C 
ATOM      8  C   UNL     1     -35.254  21.265   2.161  0.00  0.00    +0.106 C 
ATOM      9  C   UNL     1     -35.381  22.223   6.512  0.00  0.00    +0.063 C 
ATOM     10  H   UNL     1     -35.557  20.186   6.035  0.00  0.00    +0.154 HD
ENDROOT
BRANCH   5  13
ATOM     11  O   UNL     1     -35.865  23.902   0.138  0.00  0.00    -0.270 OA
ATOM     12  N   UNL     1     -33.864  22.812  -0.114  0.00  0.00    -0.325 N 
ATOM     13  C   UNL     1     -34.995  23.157   0.618  0.00  0.00    +0.245 C 
ATOM     14  H   UNL     1     -33.750  23.149  -1.032  0.00  0.00    +0.145 HD
ATOM     15  H   UNL     1     -33.177  22.232   0.286  0.00  0.00    +0.145 HD
ENDBRANCH   5  13
BRANCH   3  16
ATOM     16  N   UNL     1     -34.945  24.833   2.951  0.00  0.00    -0.334 N 
ATOM     17  H   UNL     1     -35.710  25.348   2.607  0.00  0.00    +0.147 HD
BRANCH  16  22
ATOM     18  C   UNL     1     -32.894  25.826   2.015  0.00  0.00    +0.020 C 
ATOM     19  C   UNL     1     -34.055  26.879   3.996  0.00  0.00    +0.020 C 
ATOM     20  C   UNL     1     -31.968  27.937   3.045  0.00  0.00    +0.088 C 
ATOM     21  C   UNL     1     -34.119  28.024   1.741  0.00  0.00    +0.002 C 
ATOM     22  C   UNL     1     -33.730  25.549   3.284  0.00  0.00    +0.069 C 
ATOM     23  C   UNL     1     -31.611  26.610   2.357  0.00  0.00    +0.029 C 
ATOM     24  C   UNL     1     -32.761  27.647   4.332  0.00  0.00    +0.029 C 
ATOM     25  C   UNL     1     -33.748  26.690   1.062  0.00  0.00    +0.002 C 
ATOM     26  C   UNL     1     -34.903  27.741   3.038  0.00  0.00    +0.002 C 
ATOM     27  C   UNL     1     -32.831  28.783   2.093  0.00  0.00    +0.027 C 
BRANCH  20  28
ATOM     28  O   UNL     1     -30.784  28.656   3.358  0.00  0.00    -0.387 OA
ATOM     29  H   UNL     1     -30.395  28.301   4.174  0.00  0.00    +0.210 HD
ENDBRANCH  20  28
ENDBRANCH  16  22
ENDBRANCH   3  16
TORSDOF 4
ENDMDL
MODEL 9
REMARK VINA RESULT:      -5.8      3.845      6.715
REMARK  Name = 57928403
REMARK  4 active torsions:
REMARK  status: ('A' for Active; 'I' for Inactive)
REMARK    1  A    between atoms: C_3  and  N_16
REMARK    2  A    between atoms: C_5  and  C_13
REMARK    3  A    between atoms: N_16  and  C_22
REMARK    4  A    between atoms: C_20  and  O_28
REMARK                            x       y       z     vdW  Elec       q    Type
REMARK                         _______ _______ _______ _____ _____    ______ ____
ROOT
ATOM      1  N   UNL     1     -35.424  14.961  -0.465  0.00  0.00    -0.229 NA
ATOM      2  N   UNL     1     -37.820  15.048  -0.704  0.00  0.00    -0.297 N 
ATOM      3  C   UNL     1     -35.644  17.796  -0.188  0.00  0.00    +0.053 C 
ATOM      4  C   UNL     1     -36.784  17.001  -0.390  0.00  0.00    +0.046 C 
ATOM      5  C   UNL     1     -34.407  17.156  -0.125  0.00  0.00    +0.085 C 
ATOM      6  C   UNL     1     -36.593  15.628  -0.516  0.00  0.00    +0.133 C 
ATOM      7  C   UNL     1     -38.179  17.235  -0.511  0.00  0.00    +0.020 C 
ATOM      8  C   UNL     1     -34.361  15.776  -0.267  0.00  0.00    +0.106 C 
ATOM      9  C   UNL     1     -38.791  16.015  -0.703  0.00  0.00    +0.063 C 
ATOM     10  H   UNL     1     -37.979  14.083  -0.823  0.00  0.00    +0.154 HD
ENDROOT
BRANCH   5  13
ATOM     11  O   UNL     1     -32.791  18.757  -0.732  0.00  0.00    -0.270 OA
ATOM     12  N   UNL     1     -32.429  17.613   1.222  0.00  0.00    -0.325 N 
ATOM     13  C   UNL     1     -33.168  17.894   0.078  0.00  0.00    +0.245 C 
ATOM     14  H   UNL     1     -31.586  18.092   1.393  0.00  0.00    +0.145 HD
ATOM     15  H   UNL     1     -32.749  16.936   1.861  0.00  0.00    +0.145 HD
ENDBRANCH   5  13
BRANCH   3  16
ATOM     16  N   UNL     1     -35.738  19.168  -0.051  0.00  0.00    -0.334 N 
ATOM     17  H   UNL     1     -35.468  19.731  -0.812  0.00  0.00    +0.147 HD
BRANCH  16  22
ATOM     18  C   UNL     1     -35.035  20.409   1.958  0.00  0.00    +0.020 C 
ATOM     19  C   UNL     1     -37.220  20.941   0.807  0.00  0.00    +0.020 C 
ATOM     20  C   UNL     1     -36.517  22.249   2.849  0.00  0.00    +0.088 C 
ATOM     21  C   UNL     1     -35.294  22.575   0.674  0.00  0.00    +0.002 C 
ATOM     22  C   UNL     1     -36.214  19.822   1.152  0.00  0.00    +0.069 C 
ATOM     23  C   UNL     1     -35.535  21.128   3.226  0.00  0.00    +0.029 C 
ATOM     24  C   UNL     1     -37.710  21.646   2.087  0.00  0.00    +0.029 C 
ATOM     25  C   UNL     1     -34.320  21.446   1.065  0.00  0.00    +0.002 C 
ATOM     26  C   UNL     1     -36.499  21.977  -0.080  0.00  0.00    +0.002 C 
ATOM     27  C   UNL     1     -35.797  23.268   1.949  0.00  0.00    +0.027 C 
BRANCH  20  28
ATOM     28  O   UNL     1     -36.974  22.909   4.021  0.00  0.00    -0.387 OA
ATOM     29  H   UNL     1     -36.223  23.072   4.614  0.00  0.00    +0.210 HD
ENDBRANCH  20  28
ENDBRANCH  16  22
ENDBRANCH   3  16
TORSDOF 4
ENDMDL
