MODEL 1
REMARK VINA RESULT:      -6.2      0.000      0.000
REMARK  Name = 192813
REMARK  7 active torsions:
REMARK  status: ('A' for Active; 'I' for Inactive)
REMARK    1  A    between atoms: P_1  and  O_20
REMARK    2  A    between atoms: C_8  and  C_22
REMARK    3  A    between atoms: C_9  and  N_11
REMARK    4  A    between atoms: C_22  and  O_23
REMARK    5  A    between atoms: O_23  and  P_24
REMARK    6  A    between atoms: P_24  and  O_26
REMARK    7  A    between atoms: P_24  and  O_28
REMARK                            x       y       z     vdW  Elec       q    Type
REMARK                         _______ _______ _______ _____ _____    ______ ____
ROOT
ATOM      1  P   UNL     1     -40.681  24.884   1.231  0.00  0.00    +0.477 P 
ATOM      2  O   UNL     1     -37.644  23.084   3.309  0.00  0.00    -0.332 OA
ATOM      3  O   UNL     1     -39.306  24.454   0.474  0.00  0.00    -0.271 OA
ATOM      4  O   UNL     1     -40.073  24.972   2.738  0.00  0.00    -0.269 OA
ATOM      5  O   UNL     1     -41.866  23.988   1.040  0.00  0.00    -0.227 OA
ATOM      6  C   UNL     1     -38.239  24.366   1.416  0.00  0.00    +0.187 C 
ATOM      7  C   UNL     1     -38.651  25.141   2.653  0.00  0.00    +0.204 C 
ATOM      8  C   UNL     1     -38.085  22.952   1.950  0.00  0.00    +0.177 C 
ATOM      9  C   UNL     1     -37.954  24.405   3.781  0.00  0.00    +0.237 C 
ENDROOT
BRANCH   9  11
ATOM     10  O   UNL     1     -36.131  23.414   5.687  0.00  0.00    -0.193 OA
ATOM     11  N   UNL     1     -36.723  25.043   4.164  0.00  0.00    -0.178 N 
ATOM     12  N   UNL     1     -34.686  25.149   5.454  0.00  0.00    -0.306 NA
ATOM     13  N   UNL     1     -33.212  26.930   5.212  0.00  0.00    -0.332 N 
ATOM     14  C   UNL     1     -36.382  26.245   3.564  0.00  0.00    +0.083 C 
ATOM     15  C   UNL     1     -35.856  24.480   5.134  0.00  0.00    +0.276 C 
ATOM     16  C   UNL     1     -35.262  26.904   3.859  0.00  0.00    +0.065 C 
ATOM     17  C   UNL     1     -34.379  26.281   4.879  0.00  0.00    +0.193 C 
ATOM     18  H   UNL     1     -32.607  26.542   5.884  0.00  0.00    +0.145 HD
ATOM     19  H   UNL     1     -32.983  27.784   4.777  0.00  0.00    +0.145 HD
ENDBRANCH   9  11
BRANCH   1  20
ATOM     20  O   UNL     1     -40.875  26.431   0.809  0.00  0.00    -0.302 OA
ATOM     21  H   UNL     1     -40.954  26.497  -0.155  0.00  0.00    +0.222 HD
ENDBRANCH   1  20
BRANCH   8  22
ATOM     22  C   UNL     1     -37.080  22.127   1.166  0.00  0.00    +0.186 C 
BRANCH  22  23
ATOM     23  O   UNL     1     -35.891  22.017   1.929  0.00  0.00    -0.271 OA
BRANCH  23  24
ATOM     24  P   UNL     1     -35.521  20.582   2.582  0.00  0.00    +0.473 P 
ATOM     25  O   UNL     1     -34.294  19.927   2.018  0.00  0.00    -0.227 OA
BRANCH  24  26
ATOM     26  O   UNL     1     -36.888  19.730   2.436  0.00  0.00    -0.303 OA
ATOM     27  H   UNL     1     -37.441  19.868   3.221  0.00  0.00    +0.222 HD
ENDBRANCH  24  26
BRANCH  24  28
ATOM     28  O   UNL     1     -35.455  20.910   4.163  0.00  0.00    -0.303 OA
ATOM     29  H   UNL     1     -35.912  21.748   4.339  0.00  0.00    +0.222 HD
ENDBRANCH  24  28
ENDBRANCH  23  24
ENDBRANCH  22  23
ENDBRANCH   8  22
TORSDOF 7
ENDMDL
MODEL 2
REMARK VINA RESULT:      -6.1      4.084      5.996
REMARK  Name = 192813
REMARK  7 active torsions:
REMARK  status: ('A' for Active; 'I' for Inactive)
REMARK    1  A    between atoms: P_1  and  O_20
REMARK    2  A    between atoms: C_8  and  C_22
REMARK    3  A    between atoms: C_9  and  N_11
REMARK    4  A    between atoms: C_22  and  O_23
REMARK    5  A    between atoms: O_23  and  P_24
REMARK    6  A    between atoms: P_24  and  O_26
REMARK    7  A    between atoms: P_24  and  O_28
REMARK                            x       y       z     vdW  Elec       q    Type
REMARK                         _______ _______ _______ _____ _____    ______ ____
ROOT
ATOM      1  P   UNL     1     -39.463  22.281   1.762  0.00  0.00    +0.477 P 
ATOM      2  O   UNL     1     -35.519  22.370   0.657  0.00  0.00    -0.332 OA
ATOM      3  O   UNL     1     -38.291  22.348   2.890  0.00  0.00    -0.271 OA
ATOM      4  O   UNL     1     -38.563  21.650   0.562  0.00  0.00    -0.269 OA
ATOM      5  O   UNL     1     -40.182  23.559   1.458  0.00  0.00    -0.227 OA
ATOM      6  C   UNL     1     -37.072  21.838   2.357  0.00  0.00    +0.187 C 
ATOM      7  C   UNL     1     -37.414  21.008   1.134  0.00  0.00    +0.204 C 
ATOM      8  C   UNL     1     -36.216  22.948   1.770  0.00  0.00    +0.177 C 
ATOM      9  C   UNL     1     -36.203  21.177   0.239  0.00  0.00    +0.237 C 
ENDROOT
BRANCH   9  11
ATOM     10  O   UNL     1     -36.391  18.749  -1.179  0.00  0.00    -0.193 OA
ATOM     11  N   UNL     1     -35.287  20.075   0.354  0.00  0.00    -0.178 N 
ATOM     12  N   UNL     1     -34.528  17.860  -0.235  0.00  0.00    -0.306 NA
ATOM     13  N   UNL     1     -32.620  16.955   0.738  0.00  0.00    -0.332 N 
ATOM     14  C   UNL     1     -34.216  20.186   1.227  0.00  0.00    +0.083 C 
ATOM     15  C   UNL     1     -35.450  18.882  -0.396  0.00  0.00    +0.276 C 
ATOM     16  C   UNL     1     -33.321  19.215   1.397  0.00  0.00    +0.065 C 
ATOM     17  C   UNL     1     -33.524  17.982   0.592  0.00  0.00    +0.193 C 
ATOM     18  H   UNL     1     -32.729  16.126   0.219  0.00  0.00    +0.145 HD
ATOM     19  H   UNL     1     -31.864  17.049   1.362  0.00  0.00    +0.145 HD
ENDBRANCH   9  11
BRANCH   1  20
ATOM     20  O   UNL     1     -40.378  21.039   2.243  0.00  0.00    -0.302 OA
ATOM     21  H   UNL     1     -39.992  20.641   3.039  0.00  0.00    +0.222 HD
ENDBRANCH   1  20
BRANCH   8  22
ATOM     22  C   UNL     1     -35.213  23.512   2.761  0.00  0.00    +0.186 C 
BRANCH  22  23
ATOM     23  O   UNL     1     -35.642  24.803   3.155  0.00  0.00    -0.271 OA
BRANCH  23  24
ATOM     24  P   UNL     1     -36.377  24.969   4.589  0.00  0.00    +0.473 P 
ATOM     25  O   UNL     1     -35.982  23.957   5.624  0.00  0.00    -0.227 OA
BRANCH  24  26
ATOM     26  O   UNL     1     -37.950  24.994   4.213  0.00  0.00    -0.303 OA
ATOM     27  H   UNL     1     -38.390  25.702   4.710  0.00  0.00    +0.222 HD
ENDBRANCH  24  26
BRANCH  24  28
ATOM     28  O   UNL     1     -36.064  26.506   4.980  0.00  0.00    -0.303 OA
ATOM     29  H   UNL     1     -36.844  27.052   4.797  0.00  0.00    +0.222 HD
ENDBRANCH  24  28
ENDBRANCH  23  24
ENDBRANCH  22  23
ENDBRANCH   8  22
TORSDOF 7
ENDMDL
MODEL 3
REMARK VINA RESULT:      -6.1      4.102      6.426
REMARK  Name = 192813
REMARK  7 active torsions:
REMARK  status: ('A' for Active; 'I' for Inactive)
REMARK    1  A    between atoms: P_1  and  O_20
REMARK    2  A    between atoms: C_8  and  C_22
REMARK    3  A    between atoms: C_9  and  N_11
REMARK    4  A    between atoms: C_22  and  O_23
REMARK    5  A    between atoms: O_23  and  P_24
REMARK    6  A    between atoms: P_24  and  O_26
REMARK    7  A    between atoms: P_24  and  O_28
REMARK                            x       y       z     vdW  Elec       q    Type
REMARK                         _______ _______ _______ _____ _____    ______ ____
ROOT
ATOM      1  P   UNL     1     -35.662  22.582   5.298  0.00  0.00    +0.477 P 
ATOM      2  O   UNL     1     -35.587  26.670   5.044  0.00  0.00    -0.332 OA
ATOM      3  O   UNL     1     -34.244  23.379   5.242  0.00  0.00    -0.271 OA
ATOM      4  O   UNL     1     -36.579  23.734   4.606  0.00  0.00    -0.269 OA
ATOM      5  O   UNL     1     -36.108  22.090   6.641  0.00  0.00    -0.227 OA
ATOM      6  C   UNL     1     -34.426  24.654   4.630  0.00  0.00    +0.187 C 
ATOM      7  C   UNL     1     -35.728  24.611   3.853  0.00  0.00    +0.204 C 
ATOM      8  C   UNL     1     -34.697  25.732   5.667  0.00  0.00    +0.177 C 
ATOM      9  C   UNL     1     -36.231  26.039   3.925  0.00  0.00    +0.237 C 
ENDROOT
BRANCH   9  11
ATOM     10  O   UNL     1     -38.074  26.871   1.961  0.00  0.00    -0.193 OA
ATOM     11  N   UNL     1     -35.904  26.788   2.741  0.00  0.00    -0.178 N 
ATOM     12  N   UNL     1     -36.503  27.891   0.680  0.00  0.00    -0.306 NA
ATOM     13  N   UNL     1     -34.888  28.933  -0.628  0.00  0.00    -0.332 N 
ATOM     14  C   UNL     1     -34.581  27.142   2.522  0.00  0.00    +0.083 C 
ATOM     15  C   UNL     1     -36.890  27.170   1.797  0.00  0.00    +0.276 C 
ATOM     16  C   UNL     1     -34.189  27.833   1.453  0.00  0.00    +0.065 C 
ATOM     17  C   UNL     1     -35.252  28.217   0.489  0.00  0.00    +0.193 C 
ATOM     18  H   UNL     1     -35.570  29.201  -1.286  0.00  0.00    +0.145 HD
ATOM     19  H   UNL     1     -33.944  29.177  -0.771  0.00  0.00    +0.145 HD
ENDBRANCH   9  11
BRANCH   1  20
ATOM     20  O   UNL     1     -35.514  21.467   4.138  0.00  0.00    -0.302 OA
ATOM     21  H   UNL     1     -36.394  21.173   3.857  0.00  0.00    +0.222 HD
ENDBRANCH   1  20
BRANCH   8  22
ATOM     22  C   UNL     1     -33.439  26.449   6.121  0.00  0.00    +0.186 C 
BRANCH  22  23
ATOM     23  O   UNL     1     -33.322  27.662   5.398  0.00  0.00    -0.271 OA
BRANCH  23  24
ATOM     24  P   UNL     1     -31.891  28.420   5.388  0.00  0.00    +0.473 P 
ATOM     25  O   UNL     1     -31.189  28.431   4.062  0.00  0.00    -0.227 OA
BRANCH  24  26
ATOM     26  O   UNL     1     -31.076  27.719   6.596  0.00  0.00    -0.303 OA
ATOM     27  H   UNL     1     -31.516  26.891   6.844  0.00  0.00    +0.222 HD
ENDBRANCH  24  26
BRANCH  24  28
ATOM     28  O   UNL     1     -32.252  29.880   5.981  0.00  0.00    -0.303 OA
ATOM     29  H   UNL     1     -32.862  30.333   5.378  0.00  0.00    +0.222 HD
ENDBRANCH  24  28
ENDBRANCH  23  24
ENDBRANCH  22  23
ENDBRANCH   8  22
TORSDOF 7
ENDMDL
MODEL 4
REMARK VINA RESULT:      -6.0      3.281      6.153
REMARK  Name = 192813
REMARK  7 active torsions:
REMARK  status: ('A' for Active; 'I' for Inactive)
REMARK    1  A    between atoms: P_1  and  O_20
REMARK    2  A    between atoms: C_8  and  C_22
REMARK    3  A    between atoms: C_9  and  N_11
REMARK    4  A    between atoms: C_22  and  O_23
REMARK    5  A    between atoms: O_23  and  P_24
REMARK    6  A    between atoms: P_24  and  O_26
REMARK    7  A    between atoms: P_24  and  O_28
REMARK                            x       y       z     vdW  Elec       q    Type
REMARK                         _______ _______ _______ _____ _____    ______ ____
ROOT
ATOM      1  P   UNL     1     -33.715  26.418   3.720  0.00  0.00    +0.477 P 
ATOM      2  O   UNL     1     -37.210  24.288   3.530  0.00  0.00    -0.332 OA
ATOM      3  O   UNL     1     -34.652  26.487   2.391  0.00  0.00    -0.271 OA
ATOM      4  O   UNL     1     -34.254  24.989   4.283  0.00  0.00    -0.269 OA
ATOM      5  O   UNL     1     -33.792  27.580   4.662  0.00  0.00    -0.227 OA
ATOM      6  C   UNL     1     -35.470  25.322   2.310  0.00  0.00    +0.187 C 
ATOM      7  C   UNL     1     -34.850  24.261   3.200  0.00  0.00    +0.204 C 
ATOM      8  C   UNL     1     -36.823  25.549   2.963  0.00  0.00    +0.177 C 
ATOM      9  C   UNL     1     -36.044  23.462   3.683  0.00  0.00    +0.237 C 
ENDROOT
BRANCH   9  11
ATOM     10  O   UNL     1     -34.998  20.923   4.318  0.00  0.00    -0.193 OA
ATOM     11  N   UNL     1     -36.242  22.265   2.911  0.00  0.00    -0.178 N 
ATOM     12  N   UNL     1     -35.913  19.908   2.506  0.00  0.00    -0.306 NA
ATOM     13  N   UNL     1     -36.851  18.876   0.646  0.00  0.00    -0.332 N 
ATOM     14  C   UNL     1     -37.003  22.336   1.755  0.00  0.00    +0.083 C 
ATOM     15  C   UNL     1     -35.681  21.021   3.297  0.00  0.00    +0.276 C 
ATOM     16  C   UNL     1     -37.236  21.278   0.980  0.00  0.00    +0.065 C 
ATOM     17  C   UNL     1     -36.633  19.993   1.419  0.00  0.00    +0.193 C 
ATOM     18  H   UNL     1     -36.465  18.010   0.911  0.00  0.00    +0.145 HD
ATOM     19  H   UNL     1     -37.395  18.942  -0.173  0.00  0.00    +0.145 HD
ENDBRANCH   9  11
BRANCH   1  20
ATOM     20  O   UNL     1     -32.252  26.066   3.132  0.00  0.00    -0.302 OA
ATOM     21  H   UNL     1     -32.288  26.045   2.163  0.00  0.00    +0.222 HD
ENDBRANCH   1  20
BRANCH   8  22
ATOM     22  C   UNL     1     -37.885  26.013   1.983  0.00  0.00    +0.186 C 
BRANCH  22  23
ATOM     23  O   UNL     1     -38.897  26.697   2.702  0.00  0.00    -0.271 OA
BRANCH  23  24
ATOM     24  P   UNL     1     -40.316  25.951   2.937  0.00  0.00    +0.473 P 
ATOM     25  O   UNL     1     -40.988  25.460   1.688  0.00  0.00    -0.227 OA
BRANCH  24  26
ATOM     26  O   UNL     1     -41.168  27.013   3.808  0.00  0.00    -0.303 OA
ATOM     27  H   UNL     1     -42.022  26.622   4.050  0.00  0.00    +0.222 HD
ENDBRANCH  24  26
BRANCH  24  28
ATOM     28  O   UNL     1     -39.946  24.801   4.011  0.00  0.00    -0.303 OA
ATOM     29  H   UNL     1     -40.434  23.990   3.797  0.00  0.00    +0.222 HD
ENDBRANCH  24  28
ENDBRANCH  23  24
ENDBRANCH  22  23
ENDBRANCH   8  22
TORSDOF 7
ENDMDL
MODEL 5
REMARK VINA RESULT:      -5.9      4.844      6.533
REMARK  Name = 192813
REMARK  7 active torsions:
REMARK  status: ('A' for Active; 'I' for Inactive)
REMARK    1  A    between atoms: P_1  and  O_20
REMARK    2  A    between atoms: C_8  and  C_22
REMARK    3  A    between atoms: C_9  and  N_11
REMARK    4  A    between atoms: C_22  and  O_23
REMARK    5  A    between atoms: O_23  and  P_24
REMARK    6  A    between atoms: P_24  and  O_26
REMARK    7  A    between atoms: P_24  and  O_28
REMARK                            x       y       z     vdW  Elec       q    Type
REMARK                         _______ _______ _______ _____ _____    ______ ____
ROOT
ATOM      1  P   UNL     1     -35.233  29.773   1.660  0.00  0.00    +0.477 P 
ATOM      2  O   UNL     1     -33.199  26.304   2.443  0.00  0.00    -0.332 OA
ATOM      3  O   UNL     1     -34.386  29.607   3.040  0.00  0.00    -0.271 OA
ATOM      4  O   UNL     1     -35.446  28.190   1.352  0.00  0.00    -0.269 OA
ATOM      5  O   UNL     1     -34.600  30.586   0.572  0.00  0.00    -0.227 OA
ATOM      6  C   UNL     1     -34.232  28.225   3.353  0.00  0.00    +0.187 C 
ATOM      7  C   UNL     1     -35.281  27.455   2.573  0.00  0.00    +0.204 C 
ATOM      8  C   UNL     1     -32.933  27.671   2.791  0.00  0.00    +0.177 C 
ATOM      9  C   UNL     1     -34.618  26.118   2.311  0.00  0.00    +0.237 C 
ENDROOT
BRANCH   9  11
ATOM     10  O   UNL     1     -37.102  24.787   2.305  0.00  0.00    -0.193 OA
ATOM     11  N   UNL     1     -35.026  25.116   3.258  0.00  0.00    -0.178 N 
ATOM     12  N   UNL     1     -36.623  23.533   4.135  0.00  0.00    -0.306 NA
ATOM     13  N   UNL     1     -36.127  22.253   6.011  0.00  0.00    -0.332 N 
ATOM     14  C   UNL     1     -34.147  24.757   4.268  0.00  0.00    +0.083 C 
ATOM     15  C   UNL     1     -36.297  24.491   3.189  0.00  0.00    +0.276 C 
ATOM     16  C   UNL     1     -34.443  23.840   5.188  0.00  0.00    +0.065 C 
ATOM     17  C   UNL     1     -35.783  23.206   5.081  0.00  0.00    +0.193 C 
ATOM     18  H   UNL     1     -37.007  21.816   5.966  0.00  0.00    +0.145 HD
ATOM     19  H   UNL     1     -35.492  22.008   6.723  0.00  0.00    +0.145 HD
ENDBRANCH   9  11
BRANCH   1  20
ATOM     20  O   UNL     1     -36.687  30.261   2.166  0.00  0.00    -0.302 OA
ATOM     21  H   UNL     1     -36.887  31.131   1.788  0.00  0.00    +0.222 HD
ENDBRANCH   1  20
BRANCH   8  22
ATOM     22  C   UNL     1     -31.784  27.729   3.781  0.00  0.00    +0.186 C 
BRANCH  22  23
ATOM     23  O   UNL     1     -32.260  27.322   5.052  0.00  0.00    -0.271 OA
BRANCH  23  24
ATOM     24  P   UNL     1     -31.842  28.196   6.350  0.00  0.00    +0.473 P 
ATOM     25  O   UNL     1     -32.125  29.666   6.242  0.00  0.00    -0.227 OA
BRANCH  24  26
ATOM     26  O   UNL     1     -30.292  27.806   6.593  0.00  0.00    -0.303 OA
ATOM     27  H   UNL     1     -29.942  28.319   7.338  0.00  0.00    +0.222 HD
ENDBRANCH  24  26
BRANCH  24  28
ATOM     28  O   UNL     1     -32.609  27.440   7.557  0.00  0.00    -0.303 OA
ATOM     29  H   UNL     1     -33.567  27.501   7.420  0.00  0.00    +0.222 HD
ENDBRANCH  24  28
ENDBRANCH  23  24
ENDBRANCH  22  23
ENDBRANCH   8  22
TORSDOF 7
ENDMDL
MODEL 6
REMARK VINA RESULT:      -5.8      2.102      4.697
REMARK  Name = 192813
REMARK  7 active torsions:
REMARK  status: ('A' for Active; 'I' for Inactive)
REMARK    1  A    between atoms: P_1  and  O_20
REMARK    2  A    between atoms: C_8  and  C_22
REMARK    3  A    between atoms: C_9  and  N_11
REMARK    4  A    between atoms: C_22  and  O_23
REMARK    5  A    between atoms: O_23  and  P_24
REMARK    6  A    between atoms: P_24  and  O_26
REMARK    7  A    between atoms: P_24  and  O_28
REMARK                            x       y       z     vdW  Elec       q    Type
REMARK                         _______ _______ _______ _____ _____    ______ ____
ROOT
ATOM      1  P   UNL     1     -36.687  20.447   1.121  0.00  0.00    +0.477 P 
ATOM      2  O   UNL     1     -35.505  24.367   0.958  0.00  0.00    -0.332 OA
ATOM      3  O   UNL     1     -37.722  21.638   1.520  0.00  0.00    -0.271 OA
ATOM      4  O   UNL     1     -35.308  21.271   1.379  0.00  0.00    -0.269 OA
ATOM      5  O   UNL     1     -36.854  19.833  -0.235  0.00  0.00    -0.227 OA
ATOM      6  C   UNL     1     -36.998  22.802   1.911  0.00  0.00    +0.187 C 
ATOM      7  C   UNL     1     -35.585  22.371   2.258  0.00  0.00    +0.204 C 
ATOM      8  C   UNL     1     -36.776  23.739   0.735  0.00  0.00    +0.177 C 
ATOM      9  C   UNL     1     -34.745  23.579   1.889  0.00  0.00    +0.237 C 
ENDROOT
BRANCH   9  11
ATOM     10  O   UNL     1     -32.936  25.739   1.915  0.00  0.00    -0.193 OA
ATOM     11  N   UNL     1     -34.449  24.401   3.031  0.00  0.00    -0.178 N 
ATOM     12  N   UNL     1     -33.287  26.224   4.104  0.00  0.00    -0.306 NA
ATOM     13  N   UNL     1     -33.649  26.713   6.348  0.00  0.00    -0.332 N 
ATOM     14  C   UNL     1     -35.089  24.130   4.231  0.00  0.00    +0.083 C 
ATOM     15  C   UNL     1     -33.523  25.473   2.965  0.00  0.00    +0.276 C 
ATOM     16  C   UNL     1     -34.874  24.839   5.338  0.00  0.00    +0.065 C 
ATOM     17  C   UNL     1     -33.899  25.955   5.227  0.00  0.00    +0.193 C 
ATOM     18  H   UNL     1     -33.008  27.459   6.306  0.00  0.00    +0.145 HD
ATOM     19  H   UNL     1     -34.112  26.508   7.194  0.00  0.00    +0.145 HD
ENDBRANCH   9  11
BRANCH   1  20
ATOM     20  O   UNL     1     -36.768  19.439   2.381  0.00  0.00    -0.302 OA
ATOM     21  H   UNL     1     -35.886  19.334   2.769  0.00  0.00    +0.222 HD
ENDBRANCH   1  20
BRANCH   8  22
ATOM     22  C   UNL     1     -37.853  24.801   0.609  0.00  0.00    +0.186 C 
BRANCH  22  23
ATOM     23  O   UNL     1     -38.747  24.671   1.701  0.00  0.00    -0.271 OA
BRANCH  23  24
ATOM     24  P   UNL     1     -38.737  25.814   2.848  0.00  0.00    +0.473 P 
ATOM     25  O   UNL     1     -39.932  26.723   2.846  0.00  0.00    -0.227 OA
BRANCH  24  26
ATOM     26  O   UNL     1     -37.311  26.549   2.647  0.00  0.00    -0.303 OA
ATOM     27  H   UNL     1     -37.069  27.014   3.463  0.00  0.00    +0.222 HD
ENDBRANCH  24  26
BRANCH  24  28
ATOM     28  O   UNL     1     -38.529  24.963   4.206  0.00  0.00    -0.303 OA
ATOM     29  H   UNL     1     -39.379  24.870   4.663  0.00  0.00    +0.222 HD
ENDBRANCH  24  28
ENDBRANCH  23  24
ENDBRANCH  22  23
ENDBRANCH   8  22
TORSDOF 7
ENDMDL
MODEL 7
REMARK VINA RESULT:      -5.8      3.846      6.371
REMARK  Name = 192813
REMARK  7 active torsions:
REMARK  status: ('A' for Active; 'I' for Inactive)
REMARK    1  A    between atoms: P_1  and  O_20
REMARK    2  A    between atoms: C_8  and  C_22
REMARK    3  A    between atoms: C_9  and  N_11
REMARK    4  A    between atoms: C_22  and  O_23
REMARK    5  A    between atoms: O_23  and  P_24
REMARK    6  A    between atoms: P_24  and  O_26
REMARK    7  A    between atoms: P_24  and  O_28
REMARK                            x       y       z     vdW  Elec       q    Type
REMARK                         _______ _______ _______ _____ _____    ______ ____
ROOT
ATOM      1  P   UNL     1     -35.320  22.368   5.112  0.00  0.00    +0.477 P 
ATOM      2  O   UNL     1     -36.148  26.355   4.663  0.00  0.00    -0.332 OA
ATOM      3  O   UNL     1     -34.309  23.331   4.275  0.00  0.00    -0.271 OA
ATOM      4  O   UNL     1     -36.658  23.281   4.957  0.00  0.00    -0.269 OA
ATOM      5  O   UNL     1     -34.912  22.012   6.509  0.00  0.00    -0.227 OA
ATOM      6  C   UNL     1     -35.012  24.474   3.794  0.00  0.00    +0.187 C 
ATOM      7  C   UNL     1     -36.494  24.151   3.827  0.00  0.00    +0.204 C 
ATOM      8  C   UNL     1     -34.908  25.639   4.764  0.00  0.00    +0.177 C 
ATOM      9  C   UNL     1     -37.144  25.496   4.086  0.00  0.00    +0.237 C 
ENDROOT
BRANCH   9  11
ATOM     10  O   UNL     1     -39.804  25.431   3.156  0.00  0.00    -0.193 OA
ATOM     11  N   UNL     1     -37.617  26.111   2.875  0.00  0.00    -0.178 N 
ATOM     12  N   UNL     1     -39.359  26.650   1.295  0.00  0.00    -0.306 NA
ATOM     13  N   UNL     1     -38.896  27.898  -0.612  0.00  0.00    -0.332 N 
ATOM     14  C   UNL     1     -36.712  26.796   2.079  0.00  0.00    +0.083 C 
ATOM     15  C   UNL     1     -38.974  26.033   2.474  0.00  0.00    +0.276 C 
ATOM     16  C   UNL     1     -37.062  27.394   0.942  0.00  0.00    +0.065 C 
ATOM     17  C   UNL     1     -38.493  27.293   0.557  0.00  0.00    +0.193 C 
ATOM     18  H   UNL     1     -39.837  27.848  -0.893  0.00  0.00    +0.145 HD
ATOM     19  H   UNL     1     -38.241  28.382  -1.167  0.00  0.00    +0.145 HD
ENDBRANCH   9  11
BRANCH   1  20
ATOM     20  O   UNL     1     -35.584  21.133   4.104  0.00  0.00    -0.302 OA
ATOM     21  H   UNL     1     -35.922  20.374   4.604  0.00  0.00    +0.222 HD
ENDBRANCH   1  20
BRANCH   8  22
ATOM     22  C   UNL     1     -33.754  26.573   4.449  0.00  0.00    +0.186 C 
BRANCH  22  23
ATOM     23  O   UNL     1     -33.032  26.820   5.643  0.00  0.00    -0.271 OA
BRANCH  23  24
ATOM     24  P   UNL     1     -31.907  27.985   5.639  0.00  0.00    +0.473 P 
ATOM     25  O   UNL     1     -32.443  29.383   5.747  0.00  0.00    -0.227 OA
BRANCH  24  26
ATOM     26  O   UNL     1     -31.041  27.678   4.308  0.00  0.00    -0.303 OA
ATOM     27  H   UNL     1     -31.582  27.175   3.679  0.00  0.00    +0.222 HD
ENDBRANCH  24  26
BRANCH  24  28
ATOM     28  O   UNL     1     -30.919  27.538   6.837  0.00  0.00    -0.303 OA
ATOM     29  H   UNL     1     -31.400  26.969   7.458  0.00  0.00    +0.222 HD
ENDBRANCH  24  28
ENDBRANCH  23  24
ENDBRANCH  22  23
ENDBRANCH   8  22
TORSDOF 7
ENDMDL
MODEL 8
REMARK VINA RESULT:      -5.8      3.182      5.894
REMARK  Name = 192813
REMARK  7 active torsions:
REMARK  status: ('A' for Active; 'I' for Inactive)
REMARK    1  A    between atoms: P_1  and  O_20
REMARK    2  A    between atoms: C_8  and  C_22
REMARK    3  A    between atoms: C_9  and  N_11
REMARK    4  A    between atoms: C_22  and  O_23
REMARK    5  A    between atoms: O_23  and  P_24
REMARK    6  A    between atoms: P_24  and  O_26
REMARK    7  A    between atoms: P_24  and  O_28
REMARK                            x       y       z     vdW  Elec       q    Type
REMARK                         _______ _______ _______ _____ _____    ______ ____
ROOT
ATOM      1  P   UNL     1     -34.857  20.216   1.174  0.00  0.00    +0.477 P 
ATOM      2  O   UNL     1     -36.699  22.786   3.779  0.00  0.00    -0.332 OA
ATOM      3  O   UNL     1     -34.460  21.795   1.194  0.00  0.00    -0.271 OA
ATOM      4  O   UNL     1     -36.338  20.363   1.832  0.00  0.00    -0.269 OA
ATOM      5  O   UNL     1     -33.913  19.274   1.855  0.00  0.00    -0.227 OA
ATOM      6  C   UNL     1     -35.535  22.560   1.735  0.00  0.00    +0.187 C 
ATOM      7  C   UNL     1     -36.791  21.713   1.654  0.00  0.00    +0.204 C 
ATOM      8  C   UNL     1     -35.372  22.763   3.232  0.00  0.00    +0.177 C 
ATOM      9  C   UNL     1     -37.604  22.169   2.849  0.00  0.00    +0.237 C 
ENDROOT
BRANCH   9  11
ATOM     10  O   UNL     1     -40.106  21.578   1.695  0.00  0.00    -0.193 OA
ATOM     11  N   UNL     1     -38.602  23.138   2.487  0.00  0.00    -0.178 N 
ATOM     12  N   UNL     1     -40.755  23.750   1.585  0.00  0.00    -0.306 NA
ATOM     13  N   UNL     1     -41.413  25.977   1.473  0.00  0.00    -0.332 N 
ATOM     14  C   UNL     1     -38.338  24.481   2.710  0.00  0.00    +0.083 C 
ATOM     15  C   UNL     1     -39.840  22.761   1.908  0.00  0.00    +0.276 C 
ATOM     16  C   UNL     1     -39.204  25.446   2.405  0.00  0.00    +0.065 C 
ATOM     17  C   UNL     1     -40.491  25.011   1.803  0.00  0.00    +0.193 C 
ATOM     18  H   UNL     1     -42.274  25.720   1.072  0.00  0.00    +0.145 HD
ATOM     19  H   UNL     1     -41.211  26.927   1.638  0.00  0.00    +0.145 HD
ENDBRANCH   9  11
BRANCH   1  20
ATOM     20  O   UNL     1     -35.162  19.924  -0.386  0.00  0.00    -0.302 OA
ATOM     21  H   UNL     1     -35.867  20.514  -0.694  0.00  0.00    +0.222 HD
ENDBRANCH   1  20
BRANCH   8  22
ATOM     22  C   UNL     1     -34.655  24.055   3.582  0.00  0.00    +0.186 C 
BRANCH  22  23
ATOM     23  O   UNL     1     -35.180  24.548   4.802  0.00  0.00    -0.271 OA
BRANCH  23  24
ATOM     24  P   UNL     1     -35.079  26.137   5.100  0.00  0.00    +0.473 P 
ATOM     25  O   UNL     1     -34.043  26.527   6.113  0.00  0.00    -0.227 OA
BRANCH  24  26
ATOM     26  O   UNL     1     -36.597  26.556   5.469  0.00  0.00    -0.303 OA
ATOM     27  H   UNL     1     -36.600  27.436   5.876  0.00  0.00    +0.222 HD
ENDBRANCH  24  26
BRANCH  24  28
ATOM     28  O   UNL     1     -34.867  26.768   3.627  0.00  0.00    -0.303 OA
ATOM     29  H   UNL     1     -35.720  27.067   3.277  0.00  0.00    +0.222 HD
ENDBRANCH  24  28
ENDBRANCH  23  24
ENDBRANCH  22  23
ENDBRANCH   8  22
TORSDOF 7
ENDMDL
MODEL 9
REMARK VINA RESULT:      -5.7      4.306      7.122
REMARK  Name = 192813
REMARK  7 active torsions:
REMARK  status: ('A' for Active; 'I' for Inactive)
REMARK    1  A    between atoms: P_1  and  O_20
REMARK    2  A    between atoms: C_8  and  C_22
REMARK    3  A    between atoms: C_9  and  N_11
REMARK    4  A    between atoms: C_22  and  O_23
REMARK    5  A    between atoms: O_23  and  P_24
REMARK    6  A    between atoms: P_24  and  O_26
REMARK    7  A    between atoms: P_24  and  O_28
REMARK                            x       y       z     vdW  Elec       q    Type
REMARK                         _______ _______ _______ _____ _____    ______ ____
ROOT
ATOM      1  P   UNL     1     -31.938  28.162   6.184  0.00  0.00    +0.477 P 
ATOM      2  O   UNL     1     -35.383  27.250   4.163  0.00  0.00    -0.332 OA
ATOM      3  O   UNL     1     -31.904  27.880   4.581  0.00  0.00    -0.271 OA
ATOM      4  O   UNL     1     -33.315  27.359   6.510  0.00  0.00    -0.269 OA
ATOM      5  O   UNL     1     -31.881  29.594   6.620  0.00  0.00    -0.227 OA
ATOM      6  C   UNL     1     -33.026  27.086   4.203  0.00  0.00    +0.187 C 
ATOM      7  C   UNL     1     -33.562  26.418   5.455  0.00  0.00    +0.204 C 
ATOM      8  C   UNL     1     -34.196  27.952   3.766  0.00  0.00    +0.177 C 
ATOM      9  C   UNL     1     -35.048  26.294   5.182  0.00  0.00    +0.237 C 
ENDROOT
BRANCH   9  11
ATOM     10  O   UNL     1     -37.499  25.614   3.967  0.00  0.00    -0.193 OA
ATOM     11  N   UNL     1     -35.403  24.986   4.701  0.00  0.00    -0.178 N 
ATOM     12  N   UNL     1     -36.933  23.438   3.658  0.00  0.00    -0.306 NA
ATOM     13  N   UNL     1     -36.347  21.209   3.346  0.00  0.00    -0.332 N 
ATOM     14  C   UNL     1     -34.484  23.956   4.835  0.00  0.00    +0.083 C 
ATOM     15  C   UNL     1     -36.659  24.722   4.100  0.00  0.00    +0.276 C 
ATOM     16  C   UNL     1     -34.729  22.715   4.418  0.00  0.00    +0.065 C 
ATOM     17  C   UNL     1     -36.055  22.478   3.791  0.00  0.00    +0.193 C 
ATOM     18  H   UNL     1     -37.218  21.022   2.928  0.00  0.00    +0.145 HD
ATOM     19  H   UNL     1     -35.684  20.488   3.448  0.00  0.00    +0.145 HD
ENDBRANCH   9  11
BRANCH   1  20
ATOM     20  O   UNL     1     -30.785  27.189   6.762  0.00  0.00    -0.302 OA
ATOM     21  H   UNL     1     -29.915  27.579   6.588  0.00  0.00    +0.222 HD
ENDBRANCH   1  20
BRANCH   8  22
ATOM     22  C   UNL     1     -34.228  28.198   2.269  0.00  0.00    +0.186 C 
BRANCH  22  23
ATOM     23  O   UNL     1     -35.368  28.981   1.962  0.00  0.00    -0.271 OA
BRANCH  23  24
ATOM     24  P   UNL     1     -36.472  28.372   0.945  0.00  0.00    +0.473 P 
ATOM     25  O   UNL     1     -35.909  27.632  -0.233  0.00  0.00    -0.227 OA
BRANCH  24  26
ATOM     26  O   UNL     1     -37.402  29.644   0.582  0.00  0.00    -0.303 OA
ATOM     27  H   UNL     1     -38.259  29.334   0.249  0.00  0.00    +0.222 HD
ENDBRANCH  24  26
BRANCH  24  28
ATOM     28  O   UNL     1     -37.413  27.490   1.920  0.00  0.00    -0.303 OA
ATOM     29  H   UNL     1     -36.900  26.753   2.285  0.00  0.00    +0.222 HD
ENDBRANCH  24  28
ENDBRANCH  23  24
ENDBRANCH  22  23
ENDBRANCH   8  22
TORSDOF 7
ENDMDL
