MODEL 1
REMARK VINA RESULT:      -5.3      0.000      0.000
REMARK  Name = 5281735
REMARK  12 active torsions:
REMARK  status: ('A' for Active; 'I' for Inactive)
REMARK    1  A    between atoms: C_3  and  O_10
REMARK    2  A    between atoms: C_6  and  C_17
REMARK    3  A    between atoms: O_10  and  C_12
REMARK    4  A    between atoms: C_12  and  C_13
REMARK    5  A    between atoms: C_17  and  O_18
REMARK    6  A    between atoms: O_18  and  C_20
REMARK    7  A    between atoms: C_20  and  C_21
REMARK    8  A    between atoms: C_21  and  C_22
REMARK    9  A    between atoms: C_21  and  O_27
REMARK   10  A    between atoms: C_21  and  C_29
REMARK   11  A    between atoms: C_22  and  O_25
REMARK   12  A    between atoms: C_29  and  O_31
REMARK                            x       y       z     vdW  Elec       q    Type
REMARK                         _______ _______ _______ _____ _____    ______ ____
ROOT
ATOM      1  N   UNL     1     -40.268  23.075   1.818  0.00  0.00    +0.396 N 
ATOM      2  C   UNL     1     -39.229  23.838   2.574  0.00  0.00    +0.006 C 
ATOM      3  C   UNL     1     -37.946  23.010   2.477  0.00  0.00    +0.152 C 
ATOM      4  C   UNL     1     -38.430  21.644   2.020  0.00  0.00    +0.019 C 
ATOM      5  C   UNL     1     -39.568  22.006   1.088  0.00  0.00    -0.073 C 
ATOM      6  C   UNL     1     -39.168  25.190   1.932  0.00  0.00    -0.023 C 
ATOM      7  C   UNL     1     -40.917  24.044   0.907  0.00  0.00    -0.050 C 
ATOM      8  C   UNL     1     -40.117  25.300   0.999  0.00  0.00    -0.056 C 
ATOM      9  H   UNL     1     -40.983  22.647   2.406  0.00  0.00    -0.079 HD
ENDROOT
BRANCH   3  10
ATOM     10  O   UNL     1     -37.304  22.922   3.736  0.00  0.00    -0.451 OA
BRANCH  10  12
ATOM     11  O   UNL     1     -35.223  23.392   2.868  0.00  0.00    -0.245 OA
ATOM     12  C   UNL     1     -36.021  23.395   3.795  0.00  0.00    +0.337 C 
BRANCH  12  13
ATOM     13  C   UNL     1     -35.730  23.911   5.166  0.00  0.00    +0.049 C 
ATOM     14  C   UNL     1     -35.911  25.377   5.429  0.00  0.00    +0.037 C 
ATOM     15  C   UNL     1     -35.294  23.001   6.056  0.00  0.00    -0.024 C 
ATOM     16  C   UNL     1     -35.071  21.541   5.822  0.00  0.00    +0.031 C 
ENDBRANCH  12  13
ENDBRANCH  10  12
ENDBRANCH   3  10
BRANCH   6  17
ATOM     17  C   UNL     1     -38.200  26.234   2.358  0.00  0.00    +0.229 C 
BRANCH  17  18
ATOM     18  O   UNL     1     -37.121  26.319   1.422  0.00  0.00    -0.442 OA
BRANCH  18  20
ATOM     19  O   UNL     1     -37.009  28.612   1.342  0.00  0.00    -0.247 OA
ATOM     20  C   UNL     1     -36.465  27.514   1.380  0.00  0.00    +0.346 C 
BRANCH  20  21
ATOM     21  C   UNL     1     -34.942  27.306   1.382  0.00  0.00    +0.225 C 
BRANCH  21  22
ATOM     22  C   UNL     1     -34.263  27.963   2.630  0.00  0.00    +0.123 C 
ATOM     23  C   UNL     1     -33.285  26.998   3.323  0.00  0.00    +0.032 C 
ATOM     24  C   UNL     1     -33.493  29.245   2.259  0.00  0.00    +0.032 C 
BRANCH  22  25
ATOM     25  O   UNL     1     -35.254  28.329   3.593  0.00  0.00    -0.384 OA
ATOM     26  H   UNL     1     -34.831  28.795   4.332  0.00  0.00    +0.210 HD
ENDBRANCH  22  25
ENDBRANCH  21  22
BRANCH  21  27
ATOM     27  O   UNL     1     -34.798  25.879   1.549  0.00  0.00    -0.373 OA
ATOM     28  H   UNL     1     -34.299  25.696   2.360  0.00  0.00    +0.211 HD
ENDBRANCH  21  27
BRANCH  21  29
ATOM     29  C   UNL     1     -34.311  27.635   0.000  0.00  0.00    +0.152 C 
ATOM     30  C   UNL     1     -35.192  27.521  -1.238  0.00  0.00    +0.035 C 
BRANCH  29  31
ATOM     31  O   UNL     1     -33.163  26.797  -0.195  0.00  0.00    -0.351 OA
ATOM     32  C   UNL     1     -33.055  26.388  -1.546  0.00  0.00    +0.174 C 
ENDBRANCH  29  31
ENDBRANCH  21  29
ENDBRANCH  20  21
ENDBRANCH  18  20
ENDBRANCH  17  18
ENDBRANCH   6  17
TORSDOF 12
ENDMDL
MODEL 2
REMARK VINA RESULT:      -5.3      3.328      6.127
REMARK  Name = 5281735
REMARK  12 active torsions:
REMARK  status: ('A' for Active; 'I' for Inactive)
REMARK    1  A    between atoms: C_3  and  O_10
REMARK    2  A    between atoms: C_6  and  C_17
REMARK    3  A    between atoms: O_10  and  C_12
REMARK    4  A    between atoms: C_12  and  C_13
REMARK    5  A    between atoms: C_17  and  O_18
REMARK    6  A    between atoms: O_18  and  C_20
REMARK    7  A    between atoms: C_20  and  C_21
REMARK    8  A    between atoms: C_21  and  C_22
REMARK    9  A    between atoms: C_21  and  O_27
REMARK   10  A    between atoms: C_21  and  C_29
REMARK   11  A    between atoms: C_22  and  O_25
REMARK   12  A    between atoms: C_29  and  O_31
REMARK                            x       y       z     vdW  Elec       q    Type
REMARK                         _______ _______ _______ _____ _____    ______ ____
ROOT
ATOM      1  N   UNL     1     -41.785  25.020   0.408  0.00  0.00    +0.396 N 
ATOM      2  C   UNL     1     -41.185  25.983   1.381  0.00  0.00    +0.006 C 
ATOM      3  C   UNL     1     -42.354  26.542   2.194  0.00  0.00    +0.152 C 
ATOM      4  C   UNL     1     -43.577  26.171   1.373  0.00  0.00    +0.019 C 
ATOM      5  C   UNL     1     -43.185  24.819   0.813  0.00  0.00    -0.073 C 
ATOM      6  C   UNL     1     -40.179  25.198   2.165  0.00  0.00    -0.023 C 
ATOM      7  C   UNL     1     -40.988  23.777   0.507  0.00  0.00    -0.050 C 
ATOM      8  C   UNL     1     -40.072  23.962   1.670  0.00  0.00    -0.056 C 
ATOM      9  H   UNL     1     -41.773  25.342  -0.560  0.00  0.00    -0.079 HD
ENDROOT
BRANCH   3  10
ATOM     10  O   UNL     1     -42.248  27.947   2.333  0.00  0.00    -0.451 OA
BRANCH  10  12
ATOM     11  O   UNL     1     -41.905  28.503   4.542  0.00  0.00    -0.245 OA
ATOM     12  C   UNL     1     -42.614  28.465   3.546  0.00  0.00    +0.337 C 
BRANCH  12  13
ATOM     13  C   UNL     1     -44.017  28.974   3.481  0.00  0.00    +0.049 C 
ATOM     14  C   UNL     1     -44.275  30.258   2.748  0.00  0.00    +0.037 C 
ATOM     15  C   UNL     1     -44.940  28.236   4.124  0.00  0.00    -0.024 C 
ATOM     16  C   UNL     1     -44.714  26.971   4.890  0.00  0.00    +0.031 C 
ENDBRANCH  12  13
ENDBRANCH  10  12
ENDBRANCH   3  10
BRANCH   6  17
ATOM     17  C   UNL     1     -39.404  25.787   3.288  0.00  0.00    +0.229 C 
BRANCH  17  18
ATOM     18  O   UNL     1     -38.364  24.892   3.694  0.00  0.00    -0.442 OA
BRANCH  18  20
ATOM     19  O   UNL     1     -36.809  25.737   2.228  0.00  0.00    -0.247 OA
ATOM     20  C   UNL     1     -37.101  25.238   3.309  0.00  0.00    +0.346 C 
BRANCH  20  21
ATOM     21  C   UNL     1     -36.082  24.913   4.413  0.00  0.00    +0.225 C 
BRANCH  21  22
ATOM     22  C   UNL     1     -34.911  25.951   4.452  0.00  0.00    +0.123 C 
ATOM     23  C   UNL     1     -34.294  26.064   5.858  0.00  0.00    +0.032 C 
ATOM     24  C   UNL     1     -33.788  25.590   3.462  0.00  0.00    +0.032 C 
BRANCH  22  25
ATOM     25  O   UNL     1     -35.392  27.248   4.093  0.00  0.00    -0.384 OA
ATOM     26  H   UNL     1     -35.985  27.173   3.329  0.00  0.00    +0.210 HD
ENDBRANCH  22  25
ENDBRANCH  21  22
BRANCH  21  27
ATOM     27  O   UNL     1     -36.834  25.106   5.631  0.00  0.00    -0.373 OA
ATOM     28  H   UNL     1     -36.544  25.923   6.064  0.00  0.00    +0.211 HD
ENDBRANCH  21  27
BRANCH  21  29
ATOM     29  C   UNL     1     -35.675  23.413   4.402  0.00  0.00    +0.152 C 
ATOM     30  C   UNL     1     -36.072  22.568   3.198  0.00  0.00    +0.035 C 
BRANCH  29  31
ATOM     31  O   UNL     1     -36.201  22.782   5.578  0.00  0.00    -0.351 OA
ATOM     32  C   UNL     1     -35.203  22.025   6.238  0.00  0.00    +0.174 C 
ENDBRANCH  29  31
ENDBRANCH  21  29
ENDBRANCH  20  21
ENDBRANCH  18  20
ENDBRANCH  17  18
ENDBRANCH   6  17
TORSDOF 12
ENDMDL
MODEL 3
REMARK VINA RESULT:      -5.2      2.530      5.522
REMARK  Name = 5281735
REMARK  12 active torsions:
REMARK  status: ('A' for Active; 'I' for Inactive)
REMARK    1  A    between atoms: C_3  and  O_10
REMARK    2  A    between atoms: C_6  and  C_17
REMARK    3  A    between atoms: O_10  and  C_12
REMARK    4  A    between atoms: C_12  and  C_13
REMARK    5  A    between atoms: C_17  and  O_18
REMARK    6  A    between atoms: O_18  and  C_20
REMARK    7  A    between atoms: C_20  and  C_21
REMARK    8  A    between atoms: C_21  and  C_22
REMARK    9  A    between atoms: C_21  and  O_27
REMARK   10  A    between atoms: C_21  and  C_29
REMARK   11  A    between atoms: C_22  and  O_25
REMARK   12  A    between atoms: C_29  and  O_31
REMARK                            x       y       z     vdW  Elec       q    Type
REMARK                         _______ _______ _______ _____ _____    ______ ____
ROOT
ATOM      1  N   UNL     1     -32.524  27.336   3.720  0.00  0.00    +0.396 N 
ATOM      2  C   UNL     1     -33.433  26.246   3.251  0.00  0.00    +0.006 C 
ATOM      3  C   UNL     1     -34.279  25.853   4.463  0.00  0.00    +0.152 C 
ATOM      4  C   UNL     1     -33.528  26.455   5.639  0.00  0.00    +0.019 C 
ATOM      5  C   UNL     1     -32.999  27.746   5.051  0.00  0.00    -0.073 C 
ATOM      6  C   UNL     1     -34.197  26.822   2.098  0.00  0.00    -0.023 C 
ATOM      7  C   UNL     1     -32.630  28.425   2.726  0.00  0.00    -0.050 C 
ATOM      8  C   UNL     1     -33.742  28.043   1.808  0.00  0.00    -0.056 C 
ATOM      9  H   UNL     1     -31.546  27.057   3.801  0.00  0.00    -0.079 HD
ENDROOT
BRANCH   3  10
ATOM     10  O   UNL     1     -34.363  24.445   4.586  0.00  0.00    -0.451 OA
BRANCH  10  12
ATOM     11  O   UNL     1     -36.625  24.592   4.991  0.00  0.00    -0.245 OA
ATOM     12  C   UNL     1     -35.606  23.932   4.839  0.00  0.00    +0.337 C 
BRANCH  12  13
ATOM     13  C   UNL     1     -35.539  22.442   4.912  0.00  0.00    +0.049 C 
ATOM     14  C   UNL     1     -35.340  21.802   6.254  0.00  0.00    +0.037 C 
ATOM     15  C   UNL     1     -35.636  21.792   3.737  0.00  0.00    -0.024 C 
ATOM     16  C   UNL     1     -35.802  22.397   2.379  0.00  0.00    +0.031 C 
ENDBRANCH  12  13
ENDBRANCH  10  12
ENDBRANCH   3  10
BRANCH   6  17
ATOM     17  C   UNL     1     -35.262  26.067   1.388  0.00  0.00    +0.229 C 
BRANCH  17  18
ATOM     18  O   UNL     1     -36.514  26.226   2.061  0.00  0.00    -0.442 OA
BRANCH  18  20
ATOM     19  O   UNL     1     -37.188  28.203   1.106  0.00  0.00    -0.247 OA
ATOM     20  C   UNL     1     -37.415  27.050   1.452  0.00  0.00    +0.346 C 
BRANCH  20  21
ATOM     21  C   UNL     1     -38.765  26.341   1.257  0.00  0.00    +0.225 C 
BRANCH  21  22
ATOM     22  C   UNL     1     -39.335  25.787   2.606  0.00  0.00    +0.123 C 
ATOM     23  C   UNL     1     -40.831  26.109   2.768  0.00  0.00    +0.032 C 
ATOM     24  C   UNL     1     -39.155  24.262   2.725  0.00  0.00    +0.032 C 
BRANCH  22  25
ATOM     25  O   UNL     1     -38.650  26.382   3.710  0.00  0.00    -0.384 OA
ATOM     26  H   UNL     1     -37.822  26.781   3.399  0.00  0.00    +0.210 HD
ENDBRANCH  22  25
ENDBRANCH  21  22
BRANCH  21  27
ATOM     27  O   UNL     1     -39.649  27.407   0.851  0.00  0.00    -0.373 OA
ATOM     28  H   UNL     1     -39.578  28.143   1.479  0.00  0.00    +0.211 HD
ENDBRANCH  21  27
BRANCH  21  29
ATOM     29  C   UNL     1     -38.729  25.345   0.063  0.00  0.00    +0.152 C 
ATOM     30  C   UNL     1     -37.708  25.585  -1.043  0.00  0.00    +0.035 C 
BRANCH  29  31
ATOM     31  O   UNL     1     -40.030  25.297  -0.538  0.00  0.00    -0.351 OA
ATOM     32  C   UNL     1     -40.454  23.960  -0.725  0.00  0.00    +0.174 C 
ENDBRANCH  29  31
ENDBRANCH  21  29
ENDBRANCH  20  21
ENDBRANCH  18  20
ENDBRANCH  17  18
ENDBRANCH   6  17
TORSDOF 12
ENDMDL
MODEL 4
REMARK VINA RESULT:      -5.2      2.902      4.518
REMARK  Name = 5281735
REMARK  12 active torsions:
REMARK  status: ('A' for Active; 'I' for Inactive)
REMARK    1  A    between atoms: C_3  and  O_10
REMARK    2  A    between atoms: C_6  and  C_17
REMARK    3  A    between atoms: O_10  and  C_12
REMARK    4  A    between atoms: C_12  and  C_13
REMARK    5  A    between atoms: C_17  and  O_18
REMARK    6  A    between atoms: O_18  and  C_20
REMARK    7  A    between atoms: C_20  and  C_21
REMARK    8  A    between atoms: C_21  and  C_22
REMARK    9  A    between atoms: C_21  and  O_27
REMARK   10  A    between atoms: C_21  and  C_29
REMARK   11  A    between atoms: C_22  and  O_25
REMARK   12  A    between atoms: C_29  and  O_31
REMARK                            x       y       z     vdW  Elec       q    Type
REMARK                         _______ _______ _______ _____ _____    ______ ____
ROOT
ATOM      1  N   UNL     1     -38.808  20.118  -1.052  0.00  0.00    +0.396 N 
ATOM      2  C   UNL     1     -38.195  20.295   0.300  0.00  0.00    +0.006 C 
ATOM      3  C   UNL     1     -36.690  20.436   0.063  0.00  0.00    +0.152 C 
ATOM      4  C   UNL     1     -36.497  19.930  -1.356  0.00  0.00    +0.019 C 
ATOM      5  C   UNL     1     -37.759  20.415  -2.040  0.00  0.00    -0.073 C 
ATOM      6  C   UNL     1     -38.863  21.496   0.897  0.00  0.00    -0.023 C 
ATOM      7  C   UNL     1     -39.936  21.073  -1.127  0.00  0.00    -0.050 C 
ATOM      8  C   UNL     1     -39.838  21.926   0.093  0.00  0.00    -0.056 C 
ATOM      9  H   UNL     1     -39.161  19.178  -1.230  0.00  0.00    -0.079 HD
ENDROOT
BRANCH   3  10
ATOM     10  O   UNL     1     -35.958  19.647   0.983  0.00  0.00    -0.451 OA
BRANCH  10  12
ATOM     11  O   UNL     1     -35.061  21.078   2.549  0.00  0.00    -0.245 OA
ATOM     12  C   UNL     1     -34.931  20.274   1.636  0.00  0.00    +0.337 C 
BRANCH  12  13
ATOM     13  C   UNL     1     -33.621  19.839   1.065  0.00  0.00    +0.049 C 
ATOM     14  C   UNL     1     -33.098  18.482   1.435  0.00  0.00    +0.037 C 
ATOM     15  C   UNL     1     -32.999  20.733   0.276  0.00  0.00    -0.024 C 
ATOM     16  C   UNL     1     -33.474  22.104  -0.088  0.00  0.00    +0.031 C 
ENDBRANCH  12  13
ENDBRANCH  10  12
ENDBRANCH   3  10
BRANCH   6  17
ATOM     17  C   UNL     1     -38.482  22.045   2.224  0.00  0.00    +0.229 C 
BRANCH  17  18
ATOM     18  O   UNL     1     -37.624  23.178   2.062  0.00  0.00    -0.442 OA
BRANCH  18  20
ATOM     19  O   UNL     1     -38.685  24.385   3.703  0.00  0.00    -0.247 OA
ATOM     20  C   UNL     1     -37.682  24.113   3.054  0.00  0.00    +0.346 C 
BRANCH  20  21
ATOM     21  C   UNL     1     -36.316  24.790   3.252  0.00  0.00    +0.225 C 
BRANCH  21  22
ATOM     22  C   UNL     1     -35.744  24.547   4.688  0.00  0.00    +0.123 C 
ATOM     23  C   UNL     1     -34.230  24.275   4.662  0.00  0.00    +0.032 C 
ATOM     24  C   UNL     1     -36.002  25.745   5.621  0.00  0.00    +0.032 C 
BRANCH  22  25
ATOM     25  O   UNL     1     -36.371  23.407   5.280  0.00  0.00    -0.384 OA
ATOM     26  H   UNL     1     -36.225  23.419   6.239  0.00  0.00    +0.210 HD
ENDBRANCH  22  25
ENDBRANCH  21  22
BRANCH  21  27
ATOM     27  O   UNL     1     -35.451  24.072   2.345  0.00  0.00    -0.373 OA
ATOM     28  H   UNL     1     -35.984  23.485   1.786  0.00  0.00    +0.211 HD
ENDBRANCH  21  27
BRANCH  21  29
ATOM     29  C   UNL     1     -36.322  26.262   2.752  0.00  0.00    +0.152 C 
ATOM     30  C   UNL     1     -37.333  26.654   1.681  0.00  0.00    +0.035 C 
BRANCH  29  31
ATOM     31  O   UNL     1     -35.013  26.591   2.266  0.00  0.00    -0.351 OA
ATOM     32  C   UNL     1     -34.525  27.770   2.879  0.00  0.00    +0.174 C 
ENDBRANCH  29  31
ENDBRANCH  21  29
ENDBRANCH  20  21
ENDBRANCH  18  20
ENDBRANCH  17  18
ENDBRANCH   6  17
TORSDOF 12
ENDMDL
MODEL 5
REMARK VINA RESULT:      -5.2      2.379      5.242
REMARK  Name = 5281735
REMARK  12 active torsions:
REMARK  status: ('A' for Active; 'I' for Inactive)
REMARK    1  A    between atoms: C_3  and  O_10
REMARK    2  A    between atoms: C_6  and  C_17
REMARK    3  A    between atoms: O_10  and  C_12
REMARK    4  A    between atoms: C_12  and  C_13
REMARK    5  A    between atoms: C_17  and  O_18
REMARK    6  A    between atoms: O_18  and  C_20
REMARK    7  A    between atoms: C_20  and  C_21
REMARK    8  A    between atoms: C_21  and  C_22
REMARK    9  A    between atoms: C_21  and  O_27
REMARK   10  A    between atoms: C_21  and  C_29
REMARK   11  A    between atoms: C_22  and  O_25
REMARK   12  A    between atoms: C_29  and  O_31
REMARK                            x       y       z     vdW  Elec       q    Type
REMARK                         _______ _______ _______ _____ _____    ______ ____
ROOT
ATOM      1  N   UNL     1     -35.800  20.199   0.037  0.00  0.00    +0.396 N 
ATOM      2  C   UNL     1     -36.209  21.238   1.030  0.00  0.00    +0.006 C 
ATOM      3  C   UNL     1     -37.722  21.089   1.196  0.00  0.00    +0.152 C 
ATOM      4  C   UNL     1     -38.138  20.252  -0.001  0.00  0.00    +0.019 C 
ATOM      5  C   UNL     1     -36.959  19.313  -0.157  0.00  0.00    -0.073 C 
ATOM      6  C   UNL     1     -35.400  20.966   2.262  0.00  0.00    -0.023 C 
ATOM      7  C   UNL     1     -34.644  19.489   0.628  0.00  0.00    -0.050 C 
ATOM      8  C   UNL     1     -34.525  19.985   2.029  0.00  0.00    -0.056 C 
ATOM      9  H   UNL     1     -35.527  20.573  -0.872  0.00  0.00    -0.079 HD
ENDROOT
BRANCH   3  10
ATOM     10  O   UNL     1     -38.361  22.352   1.174  0.00  0.00    -0.451 OA
BRANCH  10  12
ATOM     11  O   UNL     1     -40.200  21.479   2.250  0.00  0.00    -0.245 OA
ATOM     12  C   UNL     1     -39.637  22.395   1.668  0.00  0.00    +0.337 C 
BRANCH  12  13
ATOM     13  C   UNL     1     -40.249  23.728   1.385  0.00  0.00    +0.049 C 
ATOM     14  C   UNL     1     -40.062  24.826   2.390  0.00  0.00    +0.037 C 
ATOM     15  C   UNL     1     -40.955  23.819   0.242  0.00  0.00    -0.024 C 
ATOM     16  C   UNL     1     -41.189  22.738  -0.765  0.00  0.00    +0.031 C 
ENDBRANCH  12  13
ENDBRANCH  10  12
ENDBRANCH   3  10
BRANCH   6  17
ATOM     17  C   UNL     1     -35.563  21.749   3.514  0.00  0.00    +0.229 C 
BRANCH  17  18
ATOM     18  O   UNL     1     -35.351  23.141   3.257  0.00  0.00    -0.442 OA
BRANCH  18  20
ATOM     19  O   UNL     1     -37.425  23.611   4.125  0.00  0.00    -0.247 OA
ATOM     20  C   UNL     1     -36.357  23.976   3.646  0.00  0.00    +0.346 C 
BRANCH  20  21
ATOM     21  C   UNL     1     -35.978  25.445   3.401  0.00  0.00    +0.225 C 
BRANCH  21  22
ATOM     22  C   UNL     1     -36.029  25.818   1.882  0.00  0.00    +0.123 C 
ATOM     23  C   UNL     1     -36.732  27.166   1.647  0.00  0.00    +0.032 C 
ATOM     24  C   UNL     1     -34.622  25.894   1.260  0.00  0.00    +0.032 C 
BRANCH  22  25
ATOM     25  O   UNL     1     -36.759  24.826   1.157  0.00  0.00    -0.384 OA
ATOM     26  H   UNL     1     -36.391  24.743   0.263  0.00  0.00    +0.210 HD
ENDBRANCH  22  25
ENDBRANCH  21  22
BRANCH  21  27
ATOM     27  O   UNL     1     -37.049  26.178   4.034  0.00  0.00    -0.373 OA
ATOM     28  H   UNL     1     -37.832  26.165   3.461  0.00  0.00    +0.211 HD
ENDBRANCH  21  27
BRANCH  21  29
ATOM     29  C   UNL     1     -34.685  25.845   4.167  0.00  0.00    +0.152 C 
ATOM     30  C   UNL     1     -34.460  25.256   5.554  0.00  0.00    +0.035 C 
BRANCH  29  31
ATOM     31  O   UNL     1     -34.637  27.274   4.279  0.00  0.00    -0.351 OA
ATOM     32  C   UNL     1     -33.313  27.752   4.125  0.00  0.00    +0.174 C 
ENDBRANCH  29  31
ENDBRANCH  21  29
ENDBRANCH  20  21
ENDBRANCH  18  20
ENDBRANCH  17  18
ENDBRANCH   6  17
TORSDOF 12
ENDMDL
MODEL 6
REMARK VINA RESULT:      -5.2      2.841      5.044
REMARK  Name = 5281735
REMARK  12 active torsions:
REMARK  status: ('A' for Active; 'I' for Inactive)
REMARK    1  A    between atoms: C_3  and  O_10
REMARK    2  A    between atoms: C_6  and  C_17
REMARK    3  A    between atoms: O_10  and  C_12
REMARK    4  A    between atoms: C_12  and  C_13
REMARK    5  A    between atoms: C_17  and  O_18
REMARK    6  A    between atoms: O_18  and  C_20
REMARK    7  A    between atoms: C_20  and  C_21
REMARK    8  A    between atoms: C_21  and  C_22
REMARK    9  A    between atoms: C_21  and  O_27
REMARK   10  A    between atoms: C_21  and  C_29
REMARK   11  A    between atoms: C_22  and  O_25
REMARK   12  A    between atoms: C_29  and  O_31
REMARK                            x       y       z     vdW  Elec       q    Type
REMARK                         _______ _______ _______ _____ _____    ______ ____
ROOT
ATOM      1  N   UNL     1     -36.290  20.974   0.396  0.00  0.00    +0.396 N 
ATOM      2  C   UNL     1     -37.144  21.241   1.593  0.00  0.00    +0.006 C 
ATOM      3  C   UNL     1     -36.549  22.480   2.265  0.00  0.00    +0.152 C 
ATOM      4  C   UNL     1     -35.167  22.601   1.645  0.00  0.00    +0.019 C 
ATOM      5  C   UNL     1     -35.417  22.146   0.222  0.00  0.00    -0.073 C 
ATOM      6  C   UNL     1     -38.538  21.405   1.071  0.00  0.00    -0.023 C 
ATOM      7  C   UNL     1     -37.215  20.789  -0.744  0.00  0.00    -0.050 C 
ATOM      8  C   UNL     1     -38.572  21.149  -0.239  0.00  0.00    -0.056 C 
ATOM      9  H   UNL     1     -35.701  20.145   0.480  0.00  0.00    -0.079 HD
ENDROOT
BRANCH   3  10
ATOM     10  O   UNL     1     -36.459  22.300   3.667  0.00  0.00    -0.451 OA
BRANCH  10  12
ATOM     11  O   UNL     1     -37.050  24.425   4.332  0.00  0.00    -0.245 OA
ATOM     12  C   UNL     1     -36.331  23.439   4.416  0.00  0.00    +0.337 C 
BRANCH  12  13
ATOM     13  C   UNL     1     -35.175  23.306   5.353  0.00  0.00    +0.049 C 
ATOM     14  C   UNL     1     -35.256  22.279   6.444  0.00  0.00    +0.037 C 
ATOM     15  C   UNL     1     -34.154  24.159   5.150  0.00  0.00    -0.024 C 
ATOM     16  C   UNL     1     -34.053  25.215   4.096  0.00  0.00    +0.031 C 
ENDBRANCH  12  13
ENDBRANCH  10  12
ENDBRANCH   3  10
BRANCH   6  17
ATOM     17  C   UNL     1     -39.685  21.750   1.949  0.00  0.00    +0.229 C 
BRANCH  17  18
ATOM     18  O   UNL     1     -40.324  22.943   1.483  0.00  0.00    -0.442 OA
BRANCH  18  20
ATOM     19  O   UNL     1     -39.763  24.095   3.390  0.00  0.00    -0.247 OA
ATOM     20  C   UNL     1     -40.067  24.073   2.203  0.00  0.00    +0.346 C 
BRANCH  20  21
ATOM     21  C   UNL     1     -40.212  25.328   1.326  0.00  0.00    +0.225 C 
BRANCH  21  22
ATOM     22  C   UNL     1     -38.875  26.137   1.235  0.00  0.00    +0.123 C 
ATOM     23  C   UNL     1     -37.717  25.270   0.708  0.00  0.00    +0.032 C 
ATOM     24  C   UNL     1     -39.009  27.369   0.321  0.00  0.00    +0.032 C 
BRANCH  22  25
ATOM     25  O   UNL     1     -38.498  26.609   2.530  0.00  0.00    -0.384 OA
ATOM     26  H   UNL     1     -37.532  26.566   2.621  0.00  0.00    +0.210 HD
ENDBRANCH  22  25
ENDBRANCH  21  22
BRANCH  21  27
ATOM     27  O   UNL     1     -40.450  24.790   0.007  0.00  0.00    -0.373 OA
ATOM     28  H   UNL     1     -39.800  25.155  -0.613  0.00  0.00    +0.211 HD
ENDBRANCH  21  27
BRANCH  21  29
ATOM     29  C   UNL     1     -41.487  26.141   1.686  0.00  0.00    +0.152 C 
ATOM     30  C   UNL     1     -42.234  26.844   0.559  0.00  0.00    +0.035 C 
BRANCH  29  31
ATOM     31  O   UNL     1     -41.145  27.125   2.672  0.00  0.00    -0.351 OA
ATOM     32  C   UNL     1     -41.914  26.954   3.848  0.00  0.00    +0.174 C 
ENDBRANCH  29  31
ENDBRANCH  21  29
ENDBRANCH  20  21
ENDBRANCH  18  20
ENDBRANCH  17  18
ENDBRANCH   6  17
TORSDOF 12
ENDMDL
MODEL 7
REMARK VINA RESULT:      -5.2      2.541      5.349
REMARK  Name = 5281735
REMARK  12 active torsions:
REMARK  status: ('A' for Active; 'I' for Inactive)
REMARK    1  A    between atoms: C_3  and  O_10
REMARK    2  A    between atoms: C_6  and  C_17
REMARK    3  A    between atoms: O_10  and  C_12
REMARK    4  A    between atoms: C_12  and  C_13
REMARK    5  A    between atoms: C_17  and  O_18
REMARK    6  A    between atoms: O_18  and  C_20
REMARK    7  A    between atoms: C_20  and  C_21
REMARK    8  A    between atoms: C_21  and  C_22
REMARK    9  A    between atoms: C_21  and  O_27
REMARK   10  A    between atoms: C_21  and  C_29
REMARK   11  A    between atoms: C_22  and  O_25
REMARK   12  A    between atoms: C_29  and  O_31
REMARK                            x       y       z     vdW  Elec       q    Type
REMARK                         _______ _______ _______ _____ _____    ______ ____
ROOT
ATOM      1  N   UNL     1     -37.391  26.480   0.678  0.00  0.00    +0.396 N 
ATOM      2  C   UNL     1     -37.223  25.269   1.538  0.00  0.00    +0.006 C 
ATOM      3  C   UNL     1     -36.243  25.671   2.643  0.00  0.00    +0.152 C 
ATOM      4  C   UNL     1     -35.608  26.946   2.117  0.00  0.00    +0.019 C 
ATOM      5  C   UNL     1     -36.765  27.603   1.394  0.00  0.00    -0.073 C 
ATOM      6  C   UNL     1     -38.599  24.907   2.006  0.00  0.00    -0.023 C 
ATOM      7  C   UNL     1     -38.848  26.668   0.503  0.00  0.00    -0.050 C 
ATOM      8  C   UNL     1     -39.506  25.694   1.421  0.00  0.00    -0.056 C 
ATOM      9  H   UNL     1     -36.956  26.403  -0.241  0.00  0.00    -0.079 HD
ENDROOT
BRANCH   3  10
ATOM     10  O   UNL     1     -35.266  24.665   2.842  0.00  0.00    -0.451 OA
BRANCH  10  12
ATOM     11  O   UNL     1     -33.310  24.910   4.033  0.00  0.00    -0.245 OA
ATOM     12  C   UNL     1     -34.523  24.761   3.988  0.00  0.00    +0.337 C 
BRANCH  12  13
ATOM     13  C   UNL     1     -35.412  24.650   5.183  0.00  0.00    +0.049 C 
ATOM     14  C   UNL     1     -35.882  25.914   5.842  0.00  0.00    +0.037 C 
ATOM     15  C   UNL     1     -35.696  23.399   5.589  0.00  0.00    -0.024 C 
ATOM     16  C   UNL     1     -35.220  22.119   4.978  0.00  0.00    +0.031 C 
ENDBRANCH  12  13
ENDBRANCH  10  12
ENDBRANCH   3  10
BRANCH   6  17
ATOM     17  C   UNL     1     -38.854  23.784   2.945  0.00  0.00    +0.229 C 
BRANCH  17  18
ATOM     18  O   UNL     1     -38.122  22.624   2.540  0.00  0.00    -0.442 OA
BRANCH  18  20
ATOM     19  O   UNL     1     -39.999  21.358   2.149  0.00  0.00    -0.247 OA
ATOM     20  C   UNL     1     -38.842  21.667   1.886  0.00  0.00    +0.346 C 
BRANCH  20  21
ATOM     21  C   UNL     1     -38.008  21.017   0.771  0.00  0.00    +0.225 C 
BRANCH  21  22
ATOM     22  C   UNL     1     -36.717  20.330   1.329  0.00  0.00    +0.123 C 
ATOM     23  C   UNL     1     -36.346  19.071   0.525  0.00  0.00    +0.032 C 
ATOM     24  C   UNL     1     -35.507  21.282   1.319  0.00  0.00    +0.032 C 
BRANCH  22  25
ATOM     25  O   UNL     1     -36.924  19.923   2.684  0.00  0.00    -0.384 OA
ATOM     26  H   UNL     1     -36.420  19.113   2.859  0.00  0.00    +0.210 HD
ENDBRANCH  22  25
ENDBRANCH  21  22
BRANCH  21  27
ATOM     27  O   UNL     1     -38.858  19.952   0.292  0.00  0.00    -0.373 OA
ATOM     28  H   UNL     1     -39.640  20.332  -0.138  0.00  0.00    +0.211 HD
ENDBRANCH  21  27
BRANCH  21  29
ATOM     29  C   UNL     1     -37.811  21.975  -0.438  0.00  0.00    +0.152 C 
ATOM     30  C   UNL     1     -39.001  22.810  -0.895  0.00  0.00    +0.035 C 
BRANCH  29  31
ATOM     31  O   UNL     1     -37.347  21.213  -1.561  0.00  0.00    -0.351 OA
ATOM     32  C   UNL     1     -36.735  22.050  -2.525  0.00  0.00    +0.174 C 
ENDBRANCH  29  31
ENDBRANCH  21  29
ENDBRANCH  20  21
ENDBRANCH  18  20
ENDBRANCH  17  18
ENDBRANCH   6  17
TORSDOF 12
ENDMDL
MODEL 8
REMARK VINA RESULT:      -5.1      2.927      5.789
REMARK  Name = 5281735
REMARK  12 active torsions:
REMARK  status: ('A' for Active; 'I' for Inactive)
REMARK    1  A    between atoms: C_3  and  O_10
REMARK    2  A    between atoms: C_6  and  C_17
REMARK    3  A    between atoms: O_10  and  C_12
REMARK    4  A    between atoms: C_12  and  C_13
REMARK    5  A    between atoms: C_17  and  O_18
REMARK    6  A    between atoms: O_18  and  C_20
REMARK    7  A    between atoms: C_20  and  C_21
REMARK    8  A    between atoms: C_21  and  C_22
REMARK    9  A    between atoms: C_21  and  O_27
REMARK   10  A    between atoms: C_21  and  C_29
REMARK   11  A    between atoms: C_22  and  O_25
REMARK   12  A    between atoms: C_29  and  O_31
REMARK                            x       y       z     vdW  Elec       q    Type
REMARK                         _______ _______ _______ _____ _____    ______ ____
ROOT
ATOM      1  N   UNL     1     -35.611  26.556   0.065  0.00  0.00    +0.396 N 
ATOM      2  C   UNL     1     -36.094  25.311   0.735  0.00  0.00    +0.006 C 
ATOM      3  C   UNL     1     -36.239  25.660   2.217  0.00  0.00    +0.152 C 
ATOM      4  C   UNL     1     -35.450  26.950   2.364  0.00  0.00    +0.019 C 
ATOM      5  C   UNL     1     -35.730  27.644   1.048  0.00  0.00    -0.073 C 
ATOM      6  C   UNL     1     -37.368  24.942   0.038  0.00  0.00    -0.023 C 
ATOM      7  C   UNL     1     -36.484  26.764  -1.111  0.00  0.00    -0.050 C 
ATOM      8  C   UNL     1     -37.581  25.759  -0.996  0.00  0.00    -0.056 C 
ATOM      9  H   UNL     1     -34.641  26.512  -0.249  0.00  0.00    -0.079 HD
ENDROOT
BRANCH   3  10
ATOM     10  O   UNL     1     -35.692  24.639   3.033  0.00  0.00    -0.451 OA
BRANCH  10  12
ATOM     11  O   UNL     1     -37.454  24.429   4.501  0.00  0.00    -0.245 OA
ATOM     12  C   UNL     1     -36.254  24.488   4.271  0.00  0.00    +0.337 C 
BRANCH  12  13
ATOM     13  C   UNL     1     -35.184  24.410   5.311  0.00  0.00    +0.049 C 
ATOM     14  C   UNL     1     -34.564  25.689   5.792  0.00  0.00    +0.037 C 
ATOM     15  C   UNL     1     -34.843  23.172   5.712  0.00  0.00    -0.024 C 
ATOM     16  C   UNL     1     -35.416  21.876   5.233  0.00  0.00    +0.031 C 
ENDBRANCH  12  13
ENDBRANCH  10  12
ENDBRANCH   3  10
BRANCH   6  17
ATOM     17  C   UNL     1     -38.202  23.785   0.457  0.00  0.00    +0.229 C 
BRANCH  17  18
ATOM     18  O   UNL     1     -37.464  22.567   0.315  0.00  0.00    -0.442 OA
BRANCH  18  20
ATOM     19  O   UNL     1     -38.107  21.939   2.430  0.00  0.00    -0.247 OA
ATOM     20  C   UNL     1     -37.480  21.735   1.396  0.00  0.00    +0.346 C 
BRANCH  20  21
ATOM     21  C   UNL     1     -36.600  20.499   1.151  0.00  0.00    +0.225 C 
BRANCH  21  22
ATOM     22  C   UNL     1     -35.075  20.849   1.182  0.00  0.00    +0.123 C 
ATOM     23  C   UNL     1     -34.265  19.808   1.974  0.00  0.00    +0.032 C 
ATOM     24  C   UNL     1     -34.477  20.949  -0.233  0.00  0.00    +0.032 C 
BRANCH  22  25
ATOM     25  O   UNL     1     -34.875  22.115   1.816  0.00  0.00    -0.384 OA
ATOM     26  H   UNL     1     -35.003  22.825   1.167  0.00  0.00    +0.210 HD
ENDBRANCH  22  25
ENDBRANCH  21  22
BRANCH  21  27
ATOM     27  O   UNL     1     -36.850  19.673   2.309  0.00  0.00    -0.373 OA
ATOM     28  H   UNL     1     -37.679  19.948   2.729  0.00  0.00    +0.211 HD
ENDBRANCH  21  27
BRANCH  21  29
ATOM     29  C   UNL     1     -37.092  19.671  -0.070  0.00  0.00    +0.152 C 
ATOM     30  C   UNL     1     -38.586  19.651  -0.371  0.00  0.00    +0.035 C 
BRANCH  29  31
ATOM     31  O   UNL     1     -36.654  18.313   0.085  0.00  0.00    -0.351 OA
ATOM     32  C   UNL     1     -37.658  17.405  -0.328  0.00  0.00    +0.174 C 
ENDBRANCH  29  31
ENDBRANCH  21  29
ENDBRANCH  20  21
ENDBRANCH  18  20
ENDBRANCH  17  18
ENDBRANCH   6  17
TORSDOF 12
ENDMDL
MODEL 9
REMARK VINA RESULT:      -5.1      2.776      6.467
REMARK  Name = 5281735
REMARK  12 active torsions:
REMARK  status: ('A' for Active; 'I' for Inactive)
REMARK    1  A    between atoms: C_3  and  O_10
REMARK    2  A    between atoms: C_6  and  C_17
REMARK    3  A    between atoms: O_10  and  C_12
REMARK    4  A    between atoms: C_12  and  C_13
REMARK    5  A    between atoms: C_17  and  O_18
REMARK    6  A    between atoms: O_18  and  C_20
REMARK    7  A    between atoms: C_20  and  C_21
REMARK    8  A    between atoms: C_21  and  C_22
REMARK    9  A    between atoms: C_21  and  O_27
REMARK   10  A    between atoms: C_21  and  C_29
REMARK   11  A    between atoms: C_22  and  O_25
REMARK   12  A    between atoms: C_29  and  O_31
REMARK                            x       y       z     vdW  Elec       q    Type
REMARK                         _______ _______ _______ _____ _____    ______ ____
ROOT
ATOM      1  N   UNL     1     -31.088  25.584   0.664  0.00  0.00    +0.396 N 
ATOM      2  C   UNL     1     -32.248  25.852   1.567  0.00  0.00    +0.006 C 
ATOM      3  C   UNL     1     -31.842  27.048   2.430  0.00  0.00    +0.152 C 
ATOM      4  C   UNL     1     -30.336  27.131   2.248  0.00  0.00    +0.019 C 
ATOM      5  C   UNL     1     -30.169  26.725   0.798  0.00  0.00    -0.073 C 
ATOM      6  C   UNL     1     -33.422  26.085   0.666  0.00  0.00    -0.023 C 
ATOM      7  C   UNL     1     -31.642  25.467  -0.703  0.00  0.00    -0.050 C 
ATOM      8  C   UNL     1     -33.076  25.867  -0.605  0.00  0.00    -0.056 C 
ATOM      9  H   UNL     1     -30.575  24.730   0.885  0.00  0.00    -0.079 HD
ENDROOT
BRANCH   3  10
ATOM     10  O   UNL     1     -32.173  26.827   3.789  0.00  0.00    -0.451 OA
BRANCH  10  12
ATOM     11  O   UNL     1     -33.775  28.469   3.991  0.00  0.00    -0.245 OA
ATOM     12  C   UNL     1     -32.815  27.852   4.430  0.00  0.00    +0.337 C 
BRANCH  12  13
ATOM     13  C   UNL     1     -32.165  28.115   5.750  0.00  0.00    +0.049 C 
ATOM     14  C   UNL     1     -32.568  27.271   6.923  0.00  0.00    +0.037 C 
ATOM     15  C   UNL     1     -31.278  29.126   5.776  0.00  0.00    -0.024 C 
ATOM     16  C   UNL     1     -30.876  30.008   4.636  0.00  0.00    +0.031 C 
ENDBRANCH  12  13
ENDBRANCH  10  12
ENDBRANCH   3  10
BRANCH   6  17
ATOM     17  C   UNL     1     -34.766  26.451   1.182  0.00  0.00    +0.229 C 
BRANCH  17  18
ATOM     18  O   UNL     1     -35.024  25.775   2.416  0.00  0.00    -0.442 OA
BRANCH  18  20
ATOM     19  O   UNL     1     -37.266  26.251   2.268  0.00  0.00    -0.247 OA
ATOM     20  C   UNL     1     -36.339  25.597   2.732  0.00  0.00    +0.346 C 
BRANCH  20  21
ATOM     21  C   UNL     1     -36.509  24.466   3.758  0.00  0.00    +0.225 C 
BRANCH  21  22
ATOM     22  C   UNL     1     -35.442  24.544   4.900  0.00  0.00    +0.123 C 
ATOM     23  C   UNL     1     -35.622  25.803   5.766  0.00  0.00    +0.032 C 
ATOM     24  C   UNL     1     -35.494  23.312   5.823  0.00  0.00    +0.032 C 
BRANCH  22  25
ATOM     25  O   UNL     1     -34.128  24.598   4.340  0.00  0.00    -0.384 OA
ATOM     26  H   UNL     1     -33.619  25.299   4.777  0.00  0.00    +0.210 HD
ENDBRANCH  22  25
ENDBRANCH  21  22
BRANCH  21  27
ATOM     27  O   UNL     1     -37.782  24.760   4.374  0.00  0.00    -0.373 OA
ATOM     28  H   UNL     1     -38.076  25.644   4.103  0.00  0.00    +0.211 HD
ENDBRANCH  21  27
BRANCH  21  29
ATOM     29  C   UNL     1     -36.684  23.082   3.070  0.00  0.00    +0.152 C 
ATOM     30  C   UNL     1     -36.090  22.890   1.681  0.00  0.00    +0.035 C 
BRANCH  29  31
ATOM     31  O   UNL     1     -38.083  22.774   3.000  0.00  0.00    -0.351 OA
ATOM     32  C   UNL     1     -38.507  22.637   1.656  0.00  0.00    +0.174 C 
ENDBRANCH  29  31
ENDBRANCH  21  29
ENDBRANCH  20  21
ENDBRANCH  18  20
ENDBRANCH  17  18
ENDBRANCH   6  17
TORSDOF 12
ENDMDL
