MODEL 1
REMARK VINA RESULT:      -6.0      0.000      0.000
REMARK  Name = 193222
REMARK  5 active torsions:
REMARK  status: ('A' for Active; 'I' for Inactive)
REMARK    1  A    between atoms: C_1  and  C_4
REMARK    2  A    between atoms: C_1  and  N_14
REMARK    3  A    between atoms: C_1  and  C_17
REMARK    4  A    between atoms: N_3  and  N_7
REMARK    5  A    between atoms: C_17  and  C_18
REMARK                            x       y       z     vdW  Elec       q    Type
REMARK                         _______ _______ _______ _____ _____    ______ ____
ROOT
ATOM      1  C   UNL     1     -35.566  20.082   1.845  0.00  0.00    +0.155 C 
ENDROOT
BRANCH   1   4
ATOM      2  O   UNL     1     -35.250  20.896   4.103  0.00  0.00    -0.272 OA
ATOM      3  N   UNL     1     -36.858  21.901   2.767  0.00  0.00    -0.231 N 
ATOM      4  C   UNL     1     -35.864  20.979   3.040  0.00  0.00    +0.256 C 
ATOM      5  H   UNL     1     -37.307  21.907   1.891  0.00  0.00    +0.173 HD
BRANCH   3   7
ATOM      6  O   UNL     1     -36.336  24.614   2.572  0.00  0.00    -0.252 OA
ATOM      7  N   UNL     1     -37.210  22.805   3.736  0.00  0.00    -0.218 N 
ATOM      8  N   UNL     1     -37.328  24.919   4.620  0.00  0.00    -0.312 N 
ATOM      9  C   UNL     1     -36.907  24.144   3.554  0.00  0.00    +0.313 C 
ATOM     10  H   UNL     1     -37.672  22.505   4.553  0.00  0.00    +0.174 HD
ATOM     11  H   UNL     1     -37.173  25.891   4.612  0.00  0.00    +0.147 HD
ATOM     12  H   UNL     1     -37.783  24.499   5.384  0.00  0.00    +0.147 HD
ENDBRANCH   3   7
ENDBRANCH   1   4
BRANCH   1  14
ATOM     13  O   UNL     1     -36.271  18.028  -0.127  0.00  0.00    -0.265 OA
ATOM     14  N   UNL     1     -36.824  19.898   1.164  0.00  0.00    -0.291 N 
ATOM     15  C   UNL     1     -37.053  18.893   0.248  0.00  0.00    +0.300 C 
ATOM     16  H   UNL     1     -37.558  20.523   1.363  0.00  0.00    +0.150 HD
ENDBRANCH   1  14
BRANCH   1  17
ATOM     17  C   UNL     1     -34.529  20.715   0.910  0.00  0.00    +0.055 C 
BRANCH  17  18
ATOM     18  C   UNL     1     -33.258  19.911   0.791  0.00  0.00    -0.020 C 
ATOM     19  C   UNL     1     -33.166  18.684   1.431  0.00  0.00    -0.004 C 
ATOM     20  C   UNL     1     -32.203  20.413   0.046  0.00  0.00    -0.004 C 
ATOM     21  C   UNL     1     -31.992  17.942   1.321  0.00  0.00    -0.000 C 
ATOM     22  C   UNL     1     -31.027  19.670  -0.063  0.00  0.00    -0.000 C 
ATOM     23  C   UNL     1     -30.922  18.435   0.575  0.00  0.00    -0.000 C 
ENDBRANCH  17  18
ENDBRANCH   1  17
TORSDOF 5
ENDMDL
MODEL 2
REMARK VINA RESULT:      -5.9      4.722      6.635
REMARK  Name = 193222
REMARK  5 active torsions:
REMARK  status: ('A' for Active; 'I' for Inactive)
REMARK    1  A    between atoms: C_1  and  C_4
REMARK    2  A    between atoms: C_1  and  N_14
REMARK    3  A    between atoms: C_1  and  C_17
REMARK    4  A    between atoms: N_3  and  N_7
REMARK    5  A    between atoms: C_17  and  C_18
REMARK                            x       y       z     vdW  Elec       q    Type
REMARK                         _______ _______ _______ _____ _____    ______ ____
ROOT
ATOM      1  C   UNL     1     -36.023  25.986   3.734  0.00  0.00    +0.155 C 
ENDROOT
BRANCH   1   4
ATOM      2  O   UNL     1     -35.157  28.054   2.821  0.00  0.00    -0.272 OA
ATOM      3  N   UNL     1     -34.078  27.095   4.636  0.00  0.00    -0.231 N 
ATOM      4  C   UNL     1     -35.049  27.154   3.653  0.00  0.00    +0.256 C 
ATOM      5  H   UNL     1     -34.053  26.341   5.269  0.00  0.00    +0.173 HD
BRANCH   3   7
ATOM      6  O   UNL     1     -32.101  27.189   6.575  0.00  0.00    -0.252 OA
ATOM      7  N   UNL     1     -33.151  28.102   4.715  0.00  0.00    -0.218 N 
ATOM      8  N   UNL     1     -31.343  29.152   5.659  0.00  0.00    -0.312 N 
ATOM      9  C   UNL     1     -32.198  28.067   5.720  0.00  0.00    +0.313 C 
ATOM     10  H   UNL     1     -33.162  28.842   4.066  0.00  0.00    +0.174 HD
ATOM     11  H   UNL     1     -30.618  29.244   6.319  0.00  0.00    +0.147 HD
ATOM     12  H   UNL     1     -31.457  29.830   4.956  0.00  0.00    +0.147 HD
ENDBRANCH   3   7
ENDBRANCH   1   4
BRANCH   1  14
ATOM     13  O   UNL     1     -38.679  24.740   3.783  0.00  0.00    -0.265 OA
ATOM     14  N   UNL     1     -37.220  26.419   3.057  0.00  0.00    -0.291 N 
ATOM     15  C   UNL     1     -38.426  25.756   3.148  0.00  0.00    +0.300 C 
ATOM     16  H   UNL     1     -37.174  27.230   2.501  0.00  0.00    +0.150 HD
ENDBRANCH   1  14
BRANCH   1  17
ATOM     17  C   UNL     1     -35.449  24.727   3.073  0.00  0.00    +0.055 C 
BRANCH  17  18
ATOM     18  C   UNL     1     -35.365  23.544   4.006  0.00  0.00    -0.020 C 
ATOM     19  C   UNL     1     -35.346  22.262   3.478  0.00  0.00    -0.004 C 
ATOM     20  C   UNL     1     -35.310  23.758   5.374  0.00  0.00    -0.004 C 
ATOM     21  C   UNL     1     -35.269  21.168   4.340  0.00  0.00    -0.000 C 
ATOM     22  C   UNL     1     -35.234  22.664   6.235  0.00  0.00    -0.000 C 
ATOM     23  C   UNL     1     -35.213  21.369   5.718  0.00  0.00    -0.000 C 
ENDBRANCH  17  18
ENDBRANCH   1  17
TORSDOF 5
ENDMDL
MODEL 3
REMARK VINA RESULT:      -5.9      2.066      3.321
REMARK  Name = 193222
REMARK  5 active torsions:
REMARK  status: ('A' for Active; 'I' for Inactive)
REMARK    1  A    between atoms: C_1  and  C_4
REMARK    2  A    between atoms: C_1  and  N_14
REMARK    3  A    between atoms: C_1  and  C_17
REMARK    4  A    between atoms: N_3  and  N_7
REMARK    5  A    between atoms: C_17  and  C_18
REMARK                            x       y       z     vdW  Elec       q    Type
REMARK                         _______ _______ _______ _____ _____    ______ ____
ROOT
ATOM      1  C   UNL     1     -35.721  21.654   3.211  0.00  0.00    +0.155 C 
ENDROOT
BRANCH   1   4
ATOM      2  O   UNL     1     -37.958  22.073   2.385  0.00  0.00    -0.272 OA
ATOM      3  N   UNL     1     -36.999  23.602   3.841  0.00  0.00    -0.231 N 
ATOM      4  C   UNL     1     -37.013  22.451   3.075  0.00  0.00    +0.256 C 
ATOM      5  H   UNL     1     -36.204  23.841   4.370  0.00  0.00    +0.173 HD
BRANCH   3   7
ATOM      6  O   UNL     1     -37.118  26.048   2.546  0.00  0.00    -0.252 OA
ATOM      7  N   UNL     1     -38.111  24.405   3.853  0.00  0.00    -0.218 N 
ATOM      8  N   UNL     1     -39.276  26.299   3.289  0.00  0.00    -0.312 N 
ATOM      9  C   UNL     1     -38.080  25.613   3.178  0.00  0.00    +0.313 C 
ATOM     10  H   UNL     1     -38.922  24.126   4.337  0.00  0.00    +0.174 HD
ATOM     11  H   UNL     1     -39.383  27.175   2.851  0.00  0.00    +0.147 HD
ATOM     12  H   UNL     1     -40.019  25.911   3.804  0.00  0.00    +0.147 HD
ENDBRANCH   3   7
ENDBRANCH   1   4
BRANCH   1  14
ATOM     13  O   UNL     1     -34.567  23.058   5.513  0.00  0.00    -0.265 OA
ATOM     14  N   UNL     1     -35.668  21.216   4.584  0.00  0.00    -0.291 N 
ATOM     15  C   UNL     1     -35.098  21.958   5.597  0.00  0.00    +0.300 C 
ATOM     16  H   UNL     1     -36.058  20.341   4.810  0.00  0.00    +0.150 HD
ENDBRANCH   1  14
BRANCH   1  17
ATOM     17  C   UNL     1     -35.696  20.455   2.256  0.00  0.00    +0.055 C 
BRANCH  17  18
ATOM     18  C   UNL     1     -34.408  20.333   1.479  0.00  0.00    -0.020 C 
ATOM     19  C   UNL     1     -33.998  21.385   0.673  0.00  0.00    -0.004 C 
ATOM     20  C   UNL     1     -33.658  19.173   1.582  0.00  0.00    -0.004 C 
ATOM     21  C   UNL     1     -32.809  21.273  -0.045  0.00  0.00    -0.000 C 
ATOM     22  C   UNL     1     -32.469  19.060   0.862  0.00  0.00    -0.000 C 
ATOM     23  C   UNL     1     -32.044  20.111   0.049  0.00  0.00    -0.000 C 
ENDBRANCH  17  18
ENDBRANCH   1  17
TORSDOF 5
ENDMDL
MODEL 4
REMARK VINA RESULT:      -5.9      4.772      6.405
REMARK  Name = 193222
REMARK  5 active torsions:
REMARK  status: ('A' for Active; 'I' for Inactive)
REMARK    1  A    between atoms: C_1  and  C_4
REMARK    2  A    between atoms: C_1  and  N_14
REMARK    3  A    between atoms: C_1  and  C_17
REMARK    4  A    between atoms: N_3  and  N_7
REMARK    5  A    between atoms: C_17  and  C_18
REMARK                            x       y       z     vdW  Elec       q    Type
REMARK                         _______ _______ _______ _____ _____    ______ ____
ROOT
ATOM      1  C   UNL     1     -35.766  23.850   4.329  0.00  0.00    +0.155 C 
ENDROOT
BRANCH   1   4
ATOM      2  O   UNL     1     -37.503  22.997   2.873  0.00  0.00    -0.272 OA
ATOM      3  N   UNL     1     -37.961  24.846   4.197  0.00  0.00    -0.231 N 
ATOM      4  C   UNL     1     -37.154  23.839   3.700  0.00  0.00    +0.256 C 
ATOM      5  H   UNL     1     -37.612  25.486   4.858  0.00  0.00    +0.173 HD
BRANCH   3   7
ATOM      6  O   UNL     1     -38.789  26.693   2.305  0.00  0.00    -0.252 OA
ATOM      7  N   UNL     1     -39.256  24.939   3.754  0.00  0.00    -0.218 N 
ATOM      8  N   UNL     1     -40.920  25.856   2.469  0.00  0.00    -0.312 N 
ATOM      9  C   UNL     1     -39.579  25.894   2.806  0.00  0.00    +0.313 C 
ATOM     10  H   UNL     1     -39.948  24.333   4.107  0.00  0.00    +0.174 HD
ATOM     11  H   UNL     1     -41.278  26.486   1.802  0.00  0.00    +0.147 HD
ATOM     12  H   UNL     1     -41.515  25.198   2.894  0.00  0.00    +0.147 HD
ENDBRANCH   3   7
ENDBRANCH   1   4
BRANCH   1  14
ATOM     13  O   UNL     1     -35.830  22.081   6.668  0.00  0.00    -0.265 OA
ATOM     14  N   UNL     1     -35.356  22.470   4.411  0.00  0.00    -0.291 N 
ATOM     15  C   UNL     1     -35.428  21.724   5.568  0.00  0.00    +0.300 C 
ATOM     16  H   UNL     1     -35.006  22.039   3.598  0.00  0.00    +0.150 HD
ENDBRANCH   1  14
BRANCH   1  17
ATOM     17  C   UNL     1     -34.774  24.664   3.489  0.00  0.00    +0.055 C 
BRANCH  17  18
ATOM     18  C   UNL     1     -34.037  25.715   4.282  0.00  0.00    -0.020 C 
ATOM     19  C   UNL     1     -33.315  26.691   3.612  0.00  0.00    -0.004 C 
ATOM     20  C   UNL     1     -34.092  25.686   5.667  0.00  0.00    -0.004 C 
ATOM     21  C   UNL     1     -32.634  27.662   4.344  0.00  0.00    -0.000 C 
ATOM     22  C   UNL     1     -33.410  26.657   6.399  0.00  0.00    -0.000 C 
ATOM     23  C   UNL     1     -32.680  27.645   5.738  0.00  0.00    -0.000 C 
ENDBRANCH  17  18
ENDBRANCH   1  17
TORSDOF 5
ENDMDL
MODEL 5
REMARK VINA RESULT:      -5.8      3.332      5.943
REMARK  Name = 193222
REMARK  5 active torsions:
REMARK  status: ('A' for Active; 'I' for Inactive)
REMARK    1  A    between atoms: C_1  and  C_4
REMARK    2  A    between atoms: C_1  and  N_14
REMARK    3  A    between atoms: C_1  and  C_17
REMARK    4  A    between atoms: N_3  and  N_7
REMARK    5  A    between atoms: C_17  and  C_18
REMARK                            x       y       z     vdW  Elec       q    Type
REMARK                         _______ _______ _______ _____ _____    ______ ____
ROOT
ATOM      1  C   UNL     1     -36.501  20.983   1.738  0.00  0.00    +0.155 C 
ENDROOT
BRANCH   1   4
ATOM      2  O   UNL     1     -35.771  20.068  -0.381  0.00  0.00    -0.272 OA
ATOM      3  N   UNL     1     -37.069  18.751   1.018  0.00  0.00    -0.231 N 
ATOM      4  C   UNL     1     -36.404  19.910   0.662  0.00  0.00    +0.256 C 
ATOM      5  H   UNL     1     -37.558  18.697   1.871  0.00  0.00    +0.173 HD
BRANCH   3   7
ATOM      6  O   UNL     1     -39.111  18.167  -0.761  0.00  0.00    -0.252 OA
ATOM      7  N   UNL     1     -37.038  17.678   0.165  0.00  0.00    -0.218 N 
ATOM      8  N   UNL     1     -37.917  16.343  -1.481  0.00  0.00    -0.312 N 
ATOM      9  C   UNL     1     -38.105  17.462  -0.691  0.00  0.00    +0.313 C 
ATOM     10  H   UNL     1     -36.266  17.067   0.161  0.00  0.00    +0.174 HD
ATOM     11  H   UNL     1     -38.605  16.081  -2.135  0.00  0.00    +0.147 HD
ATOM     12  H   UNL     1     -37.095  15.810  -1.391  0.00  0.00    +0.147 HD
ENDBRANCH   3   7
ENDBRANCH   1   4
BRANCH   1  14
ATOM     13  O   UNL     1     -38.497  23.131   1.636  0.00  0.00    -0.265 OA
ATOM     14  N   UNL     1     -37.865  20.953   2.208  0.00  0.00    -0.291 N 
ATOM     15  C   UNL     1     -38.726  22.026   2.111  0.00  0.00    +0.300 C 
ATOM     16  H   UNL     1     -38.198  20.123   2.619  0.00  0.00    +0.150 HD
ENDBRANCH   1  14
BRANCH   1  17
ATOM     17  C   UNL     1     -35.524  20.717   2.889  0.00  0.00    +0.055 C 
BRANCH  17  18
ATOM     18  C   UNL     1     -35.387  21.879   3.842  0.00  0.00    -0.020 C 
ATOM     19  C   UNL     1     -35.361  21.639   5.208  0.00  0.00    -0.004 C 
ATOM     20  C   UNL     1     -35.292  23.166   3.337  0.00  0.00    -0.004 C 
ATOM     21  C   UNL     1     -35.235  22.712   6.089  0.00  0.00    -0.000 C 
ATOM     22  C   UNL     1     -35.167  24.239   4.218  0.00  0.00    -0.000 C 
ATOM     23  C   UNL     1     -35.139  24.012   5.594  0.00  0.00    -0.000 C 
ENDBRANCH  17  18
ENDBRANCH   1  17
TORSDOF 5
ENDMDL
MODEL 6
REMARK VINA RESULT:      -5.8      2.815      4.413
REMARK  Name = 193222
REMARK  5 active torsions:
REMARK  status: ('A' for Active; 'I' for Inactive)
REMARK    1  A    between atoms: C_1  and  C_4
REMARK    2  A    between atoms: C_1  and  N_14
REMARK    3  A    between atoms: C_1  and  C_17
REMARK    4  A    between atoms: N_3  and  N_7
REMARK    5  A    between atoms: C_17  and  C_18
REMARK                            x       y       z     vdW  Elec       q    Type
REMARK                         _______ _______ _______ _____ _____    ______ ____
ROOT
ATOM      1  C   UNL     1     -35.771  23.211   3.942  0.00  0.00    +0.155 C 
ENDROOT
BRANCH   1   4
ATOM      2  O   UNL     1     -37.235  25.010   3.247  0.00  0.00    -0.272 OA
ATOM      3  N   UNL     1     -35.222  25.539   4.270  0.00  0.00    -0.231 N 
ATOM      4  C   UNL     1     -36.170  24.670   3.759  0.00  0.00    +0.256 C 
ATOM      5  H   UNL     1     -34.390  25.194   4.666  0.00  0.00    +0.173 HD
BRANCH   3   7
ATOM      6  O   UNL     1     -34.152  27.190   2.319  0.00  0.00    -0.252 OA
ATOM      7  N   UNL     1     -35.459  26.888   4.214  0.00  0.00    -0.218 N 
ATOM      8  N   UNL     1     -35.219  28.975   3.291  0.00  0.00    -0.312 N 
ATOM      9  C   UNL     1     -34.881  27.636   3.203  0.00  0.00    +0.313 C 
ATOM     10  H   UNL     1     -36.034  27.321   4.887  0.00  0.00    +0.174 HD
ATOM     11  H   UNL     1     -34.873  29.614   2.627  0.00  0.00    +0.147 HD
ATOM     12  H   UNL     1     -35.808  29.287   4.015  0.00  0.00    +0.147 HD
ENDBRANCH   3   7
ENDBRANCH   1   4
BRANCH   1  14
ATOM     13  O   UNL     1     -34.416  21.670   6.038  0.00  0.00    -0.265 OA
ATOM     14  N   UNL     1     -36.287  22.816   5.229  0.00  0.00    -0.291 N 
ATOM     15  C   UNL     1     -35.562  22.087   6.147  0.00  0.00    +0.300 C 
ATOM     16  H   UNL     1     -37.206  23.081   5.464  0.00  0.00    +0.150 HD
ENDBRANCH   1  14
BRANCH   1  17
ATOM     17  C   UNL     1     -36.347  22.326   2.830  0.00  0.00    +0.055 C 
BRANCH  17  18
ATOM     18  C   UNL     1     -35.291  21.597   2.035  0.00  0.00    -0.020 C 
ATOM     19  C   UNL     1     -34.591  22.277   1.050  0.00  0.00    -0.004 C 
ATOM     20  C   UNL     1     -35.040  20.261   2.303  0.00  0.00    -0.004 C 
ATOM     21  C   UNL     1     -33.616  21.603   0.315  0.00  0.00    -0.000 C 
ATOM     22  C   UNL     1     -34.065  19.587   1.568  0.00  0.00    -0.000 C 
ATOM     23  C   UNL     1     -33.354  20.259   0.574  0.00  0.00    -0.000 C 
ENDBRANCH  17  18
ENDBRANCH   1  17
TORSDOF 5
ENDMDL
MODEL 7
REMARK VINA RESULT:      -5.8      3.535      6.998
REMARK  Name = 193222
REMARK  5 active torsions:
REMARK  status: ('A' for Active; 'I' for Inactive)
REMARK    1  A    between atoms: C_1  and  C_4
REMARK    2  A    between atoms: C_1  and  N_14
REMARK    3  A    between atoms: C_1  and  C_17
REMARK    4  A    between atoms: N_3  and  N_7
REMARK    5  A    between atoms: C_17  and  C_18
REMARK                            x       y       z     vdW  Elec       q    Type
REMARK                         _______ _______ _______ _____ _____    ______ ____
ROOT
ATOM      1  C   UNL     1     -35.747  24.980   4.499  0.00  0.00    +0.155 C 
ENDROOT
BRANCH   1   4
ATOM      2  O   UNL     1     -36.235  22.814   5.465  0.00  0.00    -0.272 OA
ATOM      3  N   UNL     1     -36.537  23.115   3.185  0.00  0.00    -0.231 N 
ATOM      4  C   UNL     1     -36.181  23.520   4.459  0.00  0.00    +0.256 C 
ATOM      5  H   UNL     1     -36.467  23.738   2.425  0.00  0.00    +0.173 HD
BRANCH   3   7
ATOM      6  O   UNL     1     -35.100  21.186   1.811  0.00  0.00    -0.252 OA
ATOM      7  N   UNL     1     -36.989  21.834   2.997  0.00  0.00    -0.218 N 
ATOM      8  N   UNL     1     -36.801  19.693   2.195  0.00  0.00    -0.312 N 
ATOM      9  C   UNL     1     -36.203  20.936   2.296  0.00  0.00    +0.313 C 
ATOM     10  H   UNL     1     -37.863  21.557   3.356  0.00  0.00    +0.174 HD
ATOM     11  H   UNL     1     -36.343  18.963   1.720  0.00  0.00    +0.147 HD
ATOM     12  H   UNL     1     -37.685  19.538   2.601  0.00  0.00    +0.147 HD
ENDBRANCH   3   7
ENDBRANCH   1   4
BRANCH   1  14
ATOM     13  O   UNL     1     -37.158  25.974   2.127  0.00  0.00    -0.265 OA
ATOM     14  N   UNL     1     -36.961  25.757   4.448  0.00  0.00    -0.291 N 
ATOM     15  C   UNL     1     -37.545  26.176   3.271  0.00  0.00    +0.300 C 
ATOM     16  H   UNL     1     -37.395  26.001   5.297  0.00  0.00    +0.150 HD
ENDBRANCH   1  14
BRANCH   1  17
ATOM     17  C   UNL     1     -34.952  25.297   5.771  0.00  0.00    +0.055 C 
BRANCH  17  18
ATOM     18  C   UNL     1     -33.898  26.358   5.572  0.00  0.00    -0.020 C 
ATOM     19  C   UNL     1     -33.173  26.810   6.664  0.00  0.00    -0.004 C 
ATOM     20  C   UNL     1     -33.672  26.863   4.301  0.00  0.00    -0.004 C 
ATOM     21  C   UNL     1     -32.199  27.790   6.481  0.00  0.00    -0.000 C 
ATOM     22  C   UNL     1     -32.699  27.845   4.118  0.00  0.00    -0.000 C 
ATOM     23  C   UNL     1     -31.962  28.308   5.208  0.00  0.00    -0.000 C 
ENDBRANCH  17  18
ENDBRANCH   1  17
TORSDOF 5
ENDMDL
MODEL 8
REMARK VINA RESULT:      -5.8      3.061      4.508
REMARK  Name = 193222
REMARK  5 active torsions:
REMARK  status: ('A' for Active; 'I' for Inactive)
REMARK    1  A    between atoms: C_1  and  C_4
REMARK    2  A    between atoms: C_1  and  N_14
REMARK    3  A    between atoms: C_1  and  C_17
REMARK    4  A    between atoms: N_3  and  N_7
REMARK    5  A    between atoms: C_17  and  C_18
REMARK                            x       y       z     vdW  Elec       q    Type
REMARK                         _______ _______ _______ _____ _____    ______ ____
ROOT
ATOM      1  C   UNL     1     -34.985  23.495   4.480  0.00  0.00    +0.155 C 
ENDROOT
BRANCH   1   4
ATOM      2  O   UNL     1     -33.465  25.356   4.779  0.00  0.00    -0.272 OA
ATOM      3  N   UNL     1     -35.682  25.796   4.256  0.00  0.00    -0.231 N 
ATOM      4  C   UNL     1     -34.608  24.970   4.540  0.00  0.00    +0.256 C 
ATOM      5  H   UNL     1     -36.571  25.414   4.074  0.00  0.00    +0.173 HD
BRANCH   3   7
ATOM      6  O   UNL     1     -35.163  27.216   1.934  0.00  0.00    -0.252 OA
ATOM      7  N   UNL     1     -35.488  27.153   4.233  0.00  0.00    -0.218 N 
ATOM      8  N   UNL     1     -35.062  29.144   3.176  0.00  0.00    -0.312 N 
ATOM      9  C   UNL     1     -35.233  27.780   3.026  0.00  0.00    +0.313 C 
ATOM     10  H   UNL     1     -35.529  27.676   5.067  0.00  0.00    +0.174 HD
ATOM     11  H   UNL     1     -34.875  29.706   2.390  0.00  0.00    +0.147 HD
ATOM     12  H   UNL     1     -35.128  29.553   4.069  0.00  0.00    +0.147 HD
ENDBRANCH   3   7
ENDBRANCH   1   4
BRANCH   1  14
ATOM     13  O   UNL     1     -35.113  20.983   5.989  0.00  0.00    -0.265 OA
ATOM     14  N   UNL     1     -35.718  23.223   5.691  0.00  0.00    -0.291 N 
ATOM     15  C   UNL     1     -35.710  21.998   6.325  0.00  0.00    +0.300 C 
ATOM     16  H   UNL     1     -36.252  23.950   6.087  0.00  0.00    +0.150 HD
ENDBRANCH   1  14
BRANCH   1  17
ATOM     17  C   UNL     1     -35.839  23.182   3.245  0.00  0.00    +0.055 C 
BRANCH  17  18
ATOM     18  C   UNL     1     -35.196  22.192   2.306  0.00  0.00    -0.020 C 
ATOM     19  C   UNL     1     -35.274  20.837   2.587  0.00  0.00    -0.004 C 
ATOM     20  C   UNL     1     -34.536  22.655   1.178  0.00  0.00    -0.004 C 
ATOM     21  C   UNL     1     -34.679  19.922   1.718  0.00  0.00    -0.000 C 
ATOM     22  C   UNL     1     -33.941  21.740   0.310  0.00  0.00    -0.000 C 
ATOM     23  C   UNL     1     -34.012  20.374   0.580  0.00  0.00    -0.000 C 
ENDBRANCH  17  18
ENDBRANCH   1  17
TORSDOF 5
ENDMDL
MODEL 9
REMARK VINA RESULT:      -5.8      3.304      6.730
REMARK  Name = 193222
REMARK  5 active torsions:
REMARK  status: ('A' for Active; 'I' for Inactive)
REMARK    1  A    between atoms: C_1  and  C_4
REMARK    2  A    between atoms: C_1  and  N_14
REMARK    3  A    between atoms: C_1  and  C_17
REMARK    4  A    between atoms: N_3  and  N_7
REMARK    5  A    between atoms: C_17  and  C_18
REMARK                            x       y       z     vdW  Elec       q    Type
REMARK                         _______ _______ _______ _____ _____    ______ ____
ROOT
ATOM      1  C   UNL     1     -37.569  24.636   3.323  0.00  0.00    +0.155 C 
ENDROOT
BRANCH   1   4
ATOM      2  O   UNL     1     -37.361  23.594   1.148  0.00  0.00    -0.272 OA
ATOM      3  N   UNL     1     -37.711  22.248   3.004  0.00  0.00    -0.231 N 
ATOM      4  C   UNL     1     -37.545  23.459   2.357  0.00  0.00    +0.256 C 
ATOM      5  H   UNL     1     -37.855  22.217   3.978  0.00  0.00    +0.173 HD
BRANCH   3   7
ATOM      6  O   UNL     1     -35.503  20.576   2.919  0.00  0.00    -0.252 OA
ATOM      7  N   UNL     1     -37.672  21.091   2.269  0.00  0.00    -0.218 N 
ATOM      8  N   UNL     1     -36.649  19.189   1.494  0.00  0.00    -0.312 N 
ATOM      9  C   UNL     1     -36.524  20.317   2.285  0.00  0.00    +0.313 C 
ATOM     10  H   UNL     1     -38.452  20.814   1.735  0.00  0.00    +0.174 HD
ATOM     11  H   UNL     1     -35.901  18.553   1.422  0.00  0.00    +0.147 HD
ATOM     12  H   UNL     1     -37.487  19.021   1.006  0.00  0.00    +0.147 HD
ENDBRANCH   3   7
ENDBRANCH   1   4
BRANCH   1  14
ATOM     13  O   UNL     1     -39.596  26.523   2.357  0.00  0.00    -0.265 OA
ATOM     14  N   UNL     1     -38.939  24.767   3.755  0.00  0.00    -0.291 N 
ATOM     15  C   UNL     1     -39.815  25.694   3.232  0.00  0.00    +0.300 C 
ATOM     16  H   UNL     1     -39.265  24.163   4.461  0.00  0.00    +0.150 HD
ENDBRANCH   1  14
BRANCH   1  17
ATOM     17  C   UNL     1     -36.641  24.401   4.521  0.00  0.00    +0.055 C 
BRANCH  17  18
ATOM     18  C   UNL     1     -35.493  25.377   4.592  0.00  0.00    -0.020 C 
ATOM     19  C   UNL     1     -35.220  26.187   3.500  0.00  0.00    -0.004 C 
ATOM     20  C   UNL     1     -34.730  25.448   5.747  0.00  0.00    -0.004 C 
ATOM     21  C   UNL     1     -34.159  27.089   3.565  0.00  0.00    -0.000 C 
ATOM     22  C   UNL     1     -33.669  26.350   5.812  0.00  0.00    -0.000 C 
ATOM     23  C   UNL     1     -33.383  27.170   4.721  0.00  0.00    -0.000 C 
ENDBRANCH  17  18
ENDBRANCH   1  17
TORSDOF 5
ENDMDL
