MODEL 1
REMARK VINA RESULT:      -6.7      0.000      0.000
REMARK  Name = 194077
REMARK  9 active torsions:
REMARK  status: ('A' for Active; 'I' for Inactive)
REMARK    1  A    between atoms: N_3  and  C_20
REMARK    2  A    between atoms: C_20  and  C_21
REMARK    3  A    between atoms: C_21  and  O_22
REMARK    4  A    between atoms: C_21  and  C_24
REMARK    5  A    between atoms: C_24  and  O_25
REMARK    6  A    between atoms: C_24  and  C_27
REMARK    7  A    between atoms: C_27  and  O_28
REMARK    8  A    between atoms: C_27  and  C_31
REMARK    9  A    between atoms: C_31  and  O_32
REMARK                            x       y       z     vdW  Elec       q    Type
REMARK                         _______ _______ _______ _____ _____    ______ ____
ROOT
ATOM      1  O   UNL     1     -40.632  21.154   0.866  0.00  0.00    -0.266 OA
ATOM      2  O   UNL     1     -39.792  24.754   3.596  0.00  0.00    -0.193 OA
ATOM      3  N   UNL     1     -36.169  22.029   2.504  0.00  0.00    -0.270 N 
ATOM      4  N   UNL     1     -38.020  20.496   1.002  0.00  0.00    -0.396 NA
ATOM      5  N   UNL     1     -38.020  23.427   3.066  0.00  0.00    -0.303 NA
ATOM      6  N   UNL     1     -40.228  22.982   2.248  0.00  0.00    -0.196 N 
ATOM      7  C   UNL     1     -35.723  20.887   1.803  0.00  0.00    +0.150 C 
ATOM      8  C   UNL     1     -37.508  22.398   2.458  0.00  0.00    +0.232 C 
ATOM      9  C   UNL     1     -36.662  20.141   1.062  0.00  0.00    +0.131 C 
ATOM     10  C   UNL     1     -34.386  20.448   1.801  0.00  0.00    -0.004 C 
ATOM     11  C   UNL     1     -38.437  21.541   1.641  0.00  0.00    +0.230 C 
ATOM     12  C   UNL     1     -33.994  19.311   1.090  0.00  0.00    -0.028 C 
ATOM     13  C   UNL     1     -34.931  18.587   0.365  0.00  0.00    -0.024 C 
ATOM     14  C   UNL     1     -36.258  19.000   0.352  0.00  0.00    +0.025 C 
ATOM     15  C   UNL     1     -39.892  21.857   1.531  0.00  0.00    +0.293 C 
ATOM     16  C   UNL     1     -32.561  18.893   1.125  0.00  0.00    +0.030 C 
ATOM     17  C   UNL     1     -34.539  17.367  -0.402  0.00  0.00    +0.031 C 
ATOM     18  C   UNL     1     -39.354  23.766   3.000  0.00  0.00    +0.273 C 
ATOM     19  H   UNL     1     -41.172  23.259   2.227  0.00  0.00    +0.169 HD
ENDROOT
BRANCH   3  20
ATOM     20  C   UNL     1     -35.187  22.796   3.268  0.00  0.00    +0.126 C 
BRANCH  20  21
ATOM     21  C   UNL     1     -34.896  24.145   2.604  0.00  0.00    +0.160 C 
BRANCH  21  22
ATOM     22  O   UNL     1     -34.110  23.917   1.428  0.00  0.00    -0.380 OA
ATOM     23  H   UNL     1     -34.421  24.496   0.714  0.00  0.00    +0.211 HD
ENDBRANCH  21  22
BRANCH  21  24
ATOM     24  C   UNL     1     -34.137  25.164   3.472  0.00  0.00    +0.177 C 
BRANCH  24  25
ATOM     25  O   UNL     1     -33.694  24.498   4.664  0.00  0.00    -0.379 OA
ATOM     26  H   UNL     1     -33.685  25.129   5.401  0.00  0.00    +0.211 HD
ENDBRANCH  24  25
BRANCH  24  27
ATOM     27  C   UNL     1     -34.942  26.402   3.883  0.00  0.00    +0.239 C 
BRANCH  27  28
ATOM     28  O   UNL     1     -34.062  27.331   4.501  0.00  0.00    -0.373 OA
ATOM     29  H   UNL     1     -33.285  26.862   4.844  0.00  0.00    +0.211 HD
ENDBRANCH  27  28
BRANCH  27  31
ATOM     30  O   UNL     1     -35.930  25.747   5.995  0.00  0.00    -0.248 OA
ATOM     31  C   UNL     1     -36.085  26.070   4.825  0.00  0.00    +0.344 C 
BRANCH  31  32
ATOM     32  O   UNL     1     -37.309  26.197   4.251  0.00  0.00    -0.478 OA
ATOM     33  H   UNL     1     -38.070  25.880   4.695  0.00  0.00    +0.295 HD
ENDBRANCH  31  32
ENDBRANCH  27  31
ENDBRANCH  24  27
ENDBRANCH  21  24
ENDBRANCH  20  21
ENDBRANCH   3  20
TORSDOF 9
ENDMDL
MODEL 2
REMARK VINA RESULT:      -6.6      1.306      1.637
REMARK  Name = 194077
REMARK  9 active torsions:
REMARK  status: ('A' for Active; 'I' for Inactive)
REMARK    1  A    between atoms: N_3  and  C_20
REMARK    2  A    between atoms: C_20  and  C_21
REMARK    3  A    between atoms: C_21  and  O_22
REMARK    4  A    between atoms: C_21  and  C_24
REMARK    5  A    between atoms: C_24  and  O_25
REMARK    6  A    between atoms: C_24  and  C_27
REMARK    7  A    between atoms: C_27  and  O_28
REMARK    8  A    between atoms: C_27  and  C_31
REMARK    9  A    between atoms: C_31  and  O_32
REMARK                            x       y       z     vdW  Elec       q    Type
REMARK                         _______ _______ _______ _____ _____    ______ ____
ROOT
ATOM      1  O   UNL     1     -40.308  20.300  -0.679  0.00  0.00    -0.266 OA
ATOM      2  O   UNL     1     -40.468  23.608   2.508  0.00  0.00    -0.193 OA
ATOM      3  N   UNL     1     -36.478  21.228   2.120  0.00  0.00    -0.270 N 
ATOM      4  N   UNL     1     -37.767  19.776   0.056  0.00  0.00    -0.396 NA
ATOM      5  N   UNL     1     -38.517  22.449   2.323  0.00  0.00    -0.303 NA
ATOM      6  N   UNL     1     -40.410  21.979   0.930  0.00  0.00    -0.196 N 
ATOM      7  C   UNL     1     -35.780  20.199   1.450  0.00  0.00    +0.150 C 
ATOM      8  C   UNL     1     -37.789  21.525   1.770  0.00  0.00    +0.232 C 
ATOM      9  C   UNL     1     -36.442  19.491   0.426  0.00  0.00    +0.131 C 
ATOM     10  C   UNL     1     -34.452  19.837   1.747  0.00  0.00    -0.004 C 
ATOM     11  C   UNL     1     -38.413  20.717   0.665  0.00  0.00    +0.230 C 
ATOM     12  C   UNL     1     -33.805  18.811   1.054  0.00  0.00    -0.028 C 
ATOM     13  C   UNL     1     -34.471  18.123   0.048  0.00  0.00    -0.024 C 
ATOM     14  C   UNL     1     -35.783  18.462  -0.264  0.00  0.00    +0.025 C 
ATOM     15  C   UNL     1     -39.816  20.963   0.218  0.00  0.00    +0.293 C 
ATOM     16  C   UNL     1     -32.396  18.471   1.413  0.00  0.00    +0.030 C 
ATOM     17  C   UNL     1     -33.802  17.022  -0.707  0.00  0.00    +0.031 C 
ATOM     18  C   UNL     1     -39.817  22.720   1.952  0.00  0.00    +0.273 C 
ATOM     19  H   UNL     1     -41.339  22.204   0.696  0.00  0.00    +0.169 HD
ENDROOT
BRANCH   3  20
ATOM     20  C   UNL     1     -35.782  21.956   3.179  0.00  0.00    +0.126 C 
BRANCH  20  21
ATOM     21  C   UNL     1     -35.718  23.455   2.875  0.00  0.00    +0.160 C 
BRANCH  21  22
ATOM     22  O   UNL     1     -34.549  23.713   2.088  0.00  0.00    -0.380 OA
ATOM     23  H   UNL     1     -34.779  23.677   1.146  0.00  0.00    +0.211 HD
ENDBRANCH  21  22
BRANCH  21  24
ATOM     24  C   UNL     1     -35.658  24.381   4.102  0.00  0.00    +0.177 C 
BRANCH  24  25
ATOM     25  O   UNL     1     -36.316  23.724   5.196  0.00  0.00    -0.379 OA
ATOM     26  H   UNL     1     -35.655  23.289   5.756  0.00  0.00    +0.211 HD
ENDBRANCH  24  25
BRANCH  24  27
ATOM     27  C   UNL     1     -36.302  25.760   3.913  0.00  0.00    +0.239 C 
BRANCH  27  28
ATOM     28  O   UNL     1     -36.345  26.417   5.173  0.00  0.00    -0.373 OA
ATOM     29  H   UNL     1     -35.901  27.277   5.104  0.00  0.00    +0.211 HD
ENDBRANCH  27  28
BRANCH  27  31
ATOM     30  O   UNL     1     -38.001  26.126   2.227  0.00  0.00    -0.248 OA
ATOM     31  C   UNL     1     -37.699  25.678   3.326  0.00  0.00    +0.344 C 
BRANCH  31  32
ATOM     32  O   UNL     1     -38.582  25.027   4.125  0.00  0.00    -0.478 OA
ATOM     33  H   UNL     1     -38.380  24.887   5.029  0.00  0.00    +0.295 HD
ENDBRANCH  31  32
ENDBRANCH  27  31
ENDBRANCH  24  27
ENDBRANCH  21  24
ENDBRANCH  20  21
ENDBRANCH   3  20
TORSDOF 9
ENDMDL
MODEL 3
REMARK VINA RESULT:      -6.1      3.206      6.998
REMARK  Name = 194077
REMARK  9 active torsions:
REMARK  status: ('A' for Active; 'I' for Inactive)
REMARK    1  A    between atoms: N_3  and  C_20
REMARK    2  A    between atoms: C_20  and  C_21
REMARK    3  A    between atoms: C_21  and  O_22
REMARK    4  A    between atoms: C_21  and  C_24
REMARK    5  A    between atoms: C_24  and  O_25
REMARK    6  A    between atoms: C_24  and  C_27
REMARK    7  A    between atoms: C_27  and  O_28
REMARK    8  A    between atoms: C_27  and  C_31
REMARK    9  A    between atoms: C_31  and  O_32
REMARK                            x       y       z     vdW  Elec       q    Type
REMARK                         _______ _______ _______ _____ _____    ______ ____
ROOT
ATOM      1  O   UNL     1     -33.518  29.515   2.461  0.00  0.00    -0.266 OA
ATOM      2  O   UNL     1     -32.114  27.322   6.249  0.00  0.00    -0.193 OA
ATOM      3  N   UNL     1     -35.996  25.747   4.202  0.00  0.00    -0.270 N 
ATOM      4  N   UNL     1     -35.605  27.815   2.304  0.00  0.00    -0.396 NA
ATOM      5  N   UNL     1     -34.010  26.549   5.254  0.00  0.00    -0.303 NA
ATOM      6  N   UNL     1     -32.790  28.419   4.381  0.00  0.00    -0.196 N 
ATOM      7  C   UNL     1     -36.913  25.902   3.139  0.00  0.00    +0.150 C 
ATOM      8  C   UNL     1     -34.909  26.605   4.316  0.00  0.00    +0.232 C 
ATOM      9  C   UNL     1     -36.698  26.937   2.207  0.00  0.00    +0.131 C 
ATOM     10  C   UNL     1     -38.038  25.075   2.956  0.00  0.00    -0.004 C 
ATOM     11  C   UNL     1     -34.760  27.680   3.274  0.00  0.00    +0.230 C 
ATOM     12  C   UNL     1     -38.917  25.268   1.887  0.00  0.00    -0.028 C 
ATOM     13  C   UNL     1     -38.691  26.293   0.977  0.00  0.00    -0.024 C 
ATOM     14  C   UNL     1     -37.587  27.123   1.137  0.00  0.00    +0.025 C 
ATOM     15  C   UNL     1     -33.625  28.649   3.312  0.00  0.00    +0.293 C 
ATOM     16  C   UNL     1     -40.094  24.361   1.743  0.00  0.00    +0.030 C 
ATOM     17  C   UNL     1     -39.615  26.523  -0.173  0.00  0.00    +0.031 C 
ATOM     18  C   UNL     1     -32.942  27.416   5.338  0.00  0.00    +0.273 C 
ATOM     19  H   UNL     1     -32.015  29.016   4.479  0.00  0.00    +0.169 HD
ENDROOT
BRANCH   3  20
ATOM     20  C   UNL     1     -36.228  24.670   5.162  0.00  0.00    +0.126 C 
BRANCH  20  21
ATOM     21  C   UNL     1     -35.289  23.487   4.908  0.00  0.00    +0.160 C 
BRANCH  21  22
ATOM     22  O   UNL     1     -34.254  23.907   4.011  0.00  0.00    -0.380 OA
ATOM     23  H   UNL     1     -34.637  24.088   3.138  0.00  0.00    +0.211 HD
ENDBRANCH  21  22
BRANCH  21  24
ATOM     24  C   UNL     1     -35.945  22.236   4.297  0.00  0.00    +0.177 C 
BRANCH  24  25
ATOM     25  O   UNL     1     -35.646  21.113   5.139  0.00  0.00    -0.379 OA
ATOM     26  H   UNL     1     -35.262  21.427   5.972  0.00  0.00    +0.211 HD
ENDBRANCH  24  25
BRANCH  24  27
ATOM     27  C   UNL     1     -35.503  21.898   2.869  0.00  0.00    +0.239 C 
BRANCH  27  28
ATOM     28  O   UNL     1     -36.366  22.564   1.956  0.00  0.00    -0.373 OA
ATOM     29  H   UNL     1     -37.103  22.965   2.443  0.00  0.00    +0.211 HD
ENDBRANCH  27  28
BRANCH  27  31
ATOM     30  O   UNL     1     -34.500  19.741   2.412  0.00  0.00    -0.248 OA
ATOM     31  C   UNL     1     -35.513  20.405   2.592  0.00  0.00    +0.344 C 
BRANCH  31  32
ATOM     32  O   UNL     1     -36.758  19.865   2.594  0.00  0.00    -0.478 OA
ATOM     33  H   UNL     1     -37.477  20.347   2.952  0.00  0.00    +0.295 HD
ENDBRANCH  31  32
ENDBRANCH  27  31
ENDBRANCH  24  27
ENDBRANCH  21  24
ENDBRANCH  20  21
ENDBRANCH   3  20
TORSDOF 9
ENDMDL
MODEL 4
REMARK VINA RESULT:      -6.1      1.643      2.265
REMARK  Name = 194077
REMARK  9 active torsions:
REMARK  status: ('A' for Active; 'I' for Inactive)
REMARK    1  A    between atoms: N_3  and  C_20
REMARK    2  A    between atoms: C_20  and  C_21
REMARK    3  A    between atoms: C_21  and  O_22
REMARK    4  A    between atoms: C_21  and  C_24
REMARK    5  A    between atoms: C_24  and  O_25
REMARK    6  A    between atoms: C_24  and  C_27
REMARK    7  A    between atoms: C_27  and  O_28
REMARK    8  A    between atoms: C_27  and  C_31
REMARK    9  A    between atoms: C_31  and  O_32
REMARK                            x       y       z     vdW  Elec       q    Type
REMARK                         _______ _______ _______ _____ _____    ______ ____
ROOT
ATOM      1  O   UNL     1     -41.376  23.337   0.354  0.00  0.00    -0.266 OA
ATOM      2  O   UNL     1     -40.575  26.453   3.637  0.00  0.00    -0.193 OA
ATOM      3  N   UNL     1     -37.320  23.179   2.980  0.00  0.00    -0.270 N 
ATOM      4  N   UNL     1     -39.015  22.174   0.943  0.00  0.00    -0.396 NA
ATOM      5  N   UNL     1     -38.983  24.857   3.320  0.00  0.00    -0.303 NA
ATOM      6  N   UNL     1     -40.989  24.924   2.012  0.00  0.00    -0.196 N 
ATOM      7  C   UNL     1     -36.929  22.038   2.246  0.00  0.00    +0.150 C 
ATOM      8  C   UNL     1     -38.530  23.805   2.705  0.00  0.00    +0.232 C 
ATOM      9  C   UNL     1     -37.788  21.557   1.238  0.00  0.00    +0.131 C 
ATOM     10  C   UNL     1     -35.721  21.348   2.465  0.00  0.00    -0.004 C 
ATOM     11  C   UNL     1     -39.382  23.220   1.611  0.00  0.00    +0.230 C 
ATOM     12  C   UNL     1     -35.378  20.223   1.711  0.00  0.00    -0.028 C 
ATOM     13  C   UNL     1     -36.236  19.761   0.721  0.00  0.00    -0.024 C 
ATOM     14  C   UNL     1     -37.435  20.425   0.486  0.00  0.00    +0.025 C 
ATOM     15  C   UNL     1     -40.697  23.823   1.242  0.00  0.00    +0.293 C 
ATOM     16  C   UNL     1     -34.084  19.531   1.989  0.00  0.00    +0.030 C 
ATOM     17  C   UNL     1     -35.895  18.560  -0.098  0.00  0.00    +0.031 C 
ATOM     18  C   UNL     1     -40.188  25.454   3.023  0.00  0.00    +0.273 C 
ATOM     19  H   UNL     1     -41.842  25.381   1.832  0.00  0.00    +0.169 HD
ENDROOT
BRANCH   3  20
ATOM     20  C   UNL     1     -36.421  23.670   4.022  0.00  0.00    +0.126 C 
BRANCH  20  21
ATOM     21  C   UNL     1     -35.383  24.639   3.450  0.00  0.00    +0.160 C 
BRANCH  21  22
ATOM     22  O   UNL     1     -34.080  24.210   3.865  0.00  0.00    -0.380 OA
ATOM     23  H   UNL     1     -34.010  24.277   4.831  0.00  0.00    +0.211 HD
ENDBRANCH  21  22
BRANCH  21  24
ATOM     24  C   UNL     1     -35.538  26.109   3.876  0.00  0.00    +0.177 C 
BRANCH  24  25
ATOM     25  O   UNL     1     -36.807  26.257   4.530  0.00  0.00    -0.379 OA
ATOM     26  H   UNL     1     -37.114  25.391   4.841  0.00  0.00    +0.211 HD
ENDBRANCH  24  25
BRANCH  24  27
ATOM     27  C   UNL     1     -35.463  27.132   2.737  0.00  0.00    +0.239 C 
BRANCH  27  28
ATOM     28  O   UNL     1     -35.565  28.437   3.291  0.00  0.00    -0.373 OA
ATOM     29  H   UNL     1     -34.683  28.747   3.552  0.00  0.00    +0.211 HD
ENDBRANCH  27  28
BRANCH  27  31
ATOM     30  O   UNL     1     -36.358  26.384   0.615  0.00  0.00    -0.248 OA
ATOM     31  C   UNL     1     -36.548  26.928   1.695  0.00  0.00    +0.344 C 
BRANCH  31  32
ATOM     32  O   UNL     1     -37.765  27.380   2.089  0.00  0.00    -0.478 OA
ATOM     33  H   UNL     1     -38.329  26.827   2.594  0.00  0.00    +0.295 HD
ENDBRANCH  31  32
ENDBRANCH  27  31
ENDBRANCH  24  27
ENDBRANCH  21  24
ENDBRANCH  20  21
ENDBRANCH   3  20
TORSDOF 9
ENDMDL
MODEL 5
REMARK VINA RESULT:      -6.0      2.365      3.920
REMARK  Name = 194077
REMARK  9 active torsions:
REMARK  status: ('A' for Active; 'I' for Inactive)
REMARK    1  A    between atoms: N_3  and  C_20
REMARK    2  A    between atoms: C_20  and  C_21
REMARK    3  A    between atoms: C_21  and  O_22
REMARK    4  A    between atoms: C_21  and  C_24
REMARK    5  A    between atoms: C_24  and  O_25
REMARK    6  A    between atoms: C_24  and  C_27
REMARK    7  A    between atoms: C_27  and  O_28
REMARK    8  A    between atoms: C_27  and  C_31
REMARK    9  A    between atoms: C_31  and  O_32
REMARK                            x       y       z     vdW  Elec       q    Type
REMARK                         _______ _______ _______ _____ _____    ______ ____
ROOT
ATOM      1  O   UNL     1     -35.339  21.361   6.106  0.00  0.00    -0.266 OA
ATOM      2  O   UNL     1     -36.336  25.799   5.447  0.00  0.00    -0.193 OA
ATOM      3  N   UNL     1     -35.706  23.180   1.642  0.00  0.00    -0.270 N 
ATOM      4  N   UNL     1     -35.237  21.033   3.431  0.00  0.00    -0.396 NA
ATOM      5  N   UNL     1     -36.030  24.525   3.586  0.00  0.00    -0.303 NA
ATOM      6  N   UNL     1     -35.844  23.612   5.794  0.00  0.00    -0.196 N 
ATOM      7  C   UNL     1     -35.409  21.897   1.131  0.00  0.00    +0.150 C 
ATOM      8  C   UNL     1     -35.766  23.387   3.015  0.00  0.00    +0.232 C 
ATOM      9  C   UNL     1     -35.180  20.845   2.040  0.00  0.00    +0.131 C 
ATOM     10  C   UNL     1     -35.329  21.607  -0.245  0.00  0.00    -0.004 C 
ATOM     11  C   UNL     1     -35.508  22.204   3.908  0.00  0.00    +0.230 C 
ATOM     12  C   UNL     1     -35.033  20.320  -0.701  0.00  0.00    -0.028 C 
ATOM     13  C   UNL     1     -34.810  19.294   0.208  0.00  0.00    -0.024 C 
ATOM     14  C   UNL     1     -34.883  19.556   1.571  0.00  0.00    +0.025 C 
ATOM     15  C   UNL     1     -35.551  22.328   5.396  0.00  0.00    +0.293 C 
ATOM     16  C   UNL     1     -34.961  20.072  -2.172  0.00  0.00    +0.030 C 
ATOM     17  C   UNL     1     -34.490  17.910  -0.253  0.00  0.00    +0.031 C 
ATOM     18  C   UNL     1     -36.082  24.698   4.952  0.00  0.00    +0.273 C 
ATOM     19  H   UNL     1     -35.891  23.779   6.763  0.00  0.00    +0.169 HD
ENDROOT
BRANCH   3  20
ATOM     20  C   UNL     1     -35.943  24.264   0.691  0.00  0.00    +0.126 C 
BRANCH  20  21
ATOM     21  C   UNL     1     -37.437  24.432   0.400  0.00  0.00    +0.160 C 
BRANCH  21  22
ATOM     22  O   UNL     1     -37.663  24.182  -0.993  0.00  0.00    -0.380 OA
ATOM     23  H   UNL     1     -37.696  23.224  -1.148  0.00  0.00    +0.211 HD
ENDBRANCH  21  22
BRANCH  21  24
ATOM     24  C   UNL     1     -38.024  25.818   0.718  0.00  0.00    +0.177 C 
BRANCH  24  25
ATOM     25  O   UNL     1     -37.078  26.534   1.526  0.00  0.00    -0.379 OA
ATOM     26  H   UNL     1     -37.547  26.998   2.237  0.00  0.00    +0.211 HD
ENDBRANCH  24  25
BRANCH  24  27
ATOM     27  C   UNL     1     -39.370  25.806   1.451  0.00  0.00    +0.239 C 
BRANCH  27  28
ATOM     28  O   UNL     1     -39.958  27.096   1.343  0.00  0.00    -0.373 OA
ATOM     29  H   UNL     1     -39.263  27.772   1.380  0.00  0.00    +0.211 HD
ENDBRANCH  27  28
BRANCH  27  31
ATOM     30  O   UNL     1     -39.540  24.321   3.356  0.00  0.00    -0.248 OA
ATOM     31  C   UNL     1     -39.237  25.421   2.913  0.00  0.00    +0.344 C 
BRANCH  31  32
ATOM     32  O   UNL     1     -38.714  26.408   3.684  0.00  0.00    -0.478 OA
ATOM     33  H   UNL     1     -37.907  26.816   3.440  0.00  0.00    +0.295 HD
ENDBRANCH  31  32
ENDBRANCH  27  31
ENDBRANCH  24  27
ENDBRANCH  21  24
ENDBRANCH  20  21
ENDBRANCH   3  20
TORSDOF 9
ENDMDL
MODEL 6
REMARK VINA RESULT:      -6.0      3.272      7.130
REMARK  Name = 194077
REMARK  9 active torsions:
REMARK  status: ('A' for Active; 'I' for Inactive)
REMARK    1  A    between atoms: N_3  and  C_20
REMARK    2  A    between atoms: C_20  and  C_21
REMARK    3  A    between atoms: C_21  and  O_22
REMARK    4  A    between atoms: C_21  and  C_24
REMARK    5  A    between atoms: C_24  and  O_25
REMARK    6  A    between atoms: C_24  and  C_27
REMARK    7  A    between atoms: C_27  and  O_28
REMARK    8  A    between atoms: C_27  and  C_31
REMARK    9  A    between atoms: C_31  and  O_32
REMARK                            x       y       z     vdW  Elec       q    Type
REMARK                         _______ _______ _______ _____ _____    ______ ____
ROOT
ATOM      1  O   UNL     1     -33.745  26.609   5.959  0.00  0.00    -0.266 OA
ATOM      2  O   UNL     1     -35.934  22.572   6.141  0.00  0.00    -0.193 OA
ATOM      3  N   UNL     1     -37.068  25.442   2.647  0.00  0.00    -0.270 N 
ATOM      4  N   UNL     1     -35.159  27.226   3.746  0.00  0.00    -0.396 NA
ATOM      5  N   UNL     1     -36.491  23.969   4.433  0.00  0.00    -0.303 NA
ATOM      6  N   UNL     1     -34.843  24.560   6.069  0.00  0.00    -0.196 N 
ATOM      7  C   UNL     1     -36.842  26.692   2.028  0.00  0.00    +0.150 C 
ATOM      8  C   UNL     1     -36.358  25.091   3.789  0.00  0.00    +0.232 C 
ATOM      9  C   UNL     1     -35.887  27.562   2.593  0.00  0.00    +0.131 C 
ATOM     10  C   UNL     1     -37.520  27.121   0.871  0.00  0.00    -0.004 C 
ATOM     11  C   UNL     1     -35.360  26.083   4.320  0.00  0.00    +0.230 C 
ATOM     12  C   UNL     1     -37.260  28.368   0.296  0.00  0.00    -0.028 C 
ATOM     13  C   UNL     1     -36.317  29.213   0.865  0.00  0.00    -0.024 C 
ATOM     14  C   UNL     1     -35.634  28.812   2.008  0.00  0.00    +0.025 C 
ATOM     15  C   UNL     1     -34.550  25.795   5.541  0.00  0.00    +0.293 C 
ATOM     16  C   UNL     1     -38.010  28.770  -0.931  0.00  0.00    +0.030 C 
ATOM     17  C   UNL     1     -36.021  30.551   0.271  0.00  0.00    +0.031 C 
ATOM     18  C   UNL     1     -35.772  23.650   5.564  0.00  0.00    +0.273 C 
ATOM     19  H   UNL     1     -34.351  24.293   6.879  0.00  0.00    +0.169 HD
ENDROOT
BRANCH   3  20
ATOM     20  C   UNL     1     -38.059  24.548   2.052  0.00  0.00    +0.126 C 
BRANCH  20  21
ATOM     21  C   UNL     1     -37.427  23.647   0.988  0.00  0.00    +0.160 C 
BRANCH  21  22
ATOM     22  O   UNL     1     -38.357  23.492  -0.092  0.00  0.00    -0.380 OA
ATOM     23  H   UNL     1     -39.044  22.855   0.162  0.00  0.00    +0.211 HD
ENDBRANCH  21  22
BRANCH  21  24
ATOM     24  C   UNL     1     -37.033  22.236   1.459  0.00  0.00    +0.177 C 
BRANCH  24  25
ATOM     25  O   UNL     1     -37.778  21.933   2.648  0.00  0.00    -0.379 OA
ATOM     26  H   UNL     1     -37.279  22.230   3.426  0.00  0.00    +0.211 HD
ENDBRANCH  24  25
BRANCH  24  27
ATOM     27  C   UNL     1     -35.543  22.040   1.762  0.00  0.00    +0.239 C 
BRANCH  27  28
ATOM     28  O   UNL     1     -34.824  22.058   0.536  0.00  0.00    -0.373 OA
ATOM     29  H   UNL     1     -33.941  21.681   0.674  0.00  0.00    +0.211 HD
ENDBRANCH  27  28
BRANCH  27  31
ATOM     30  O   UNL     1     -34.751  19.762   1.986  0.00  0.00    -0.248 OA
ATOM     31  C   UNL     1     -35.263  20.745   2.505  0.00  0.00    +0.344 C 
BRANCH  31  32
ATOM     32  O   UNL     1     -35.607  20.793   3.817  0.00  0.00    -0.478 OA
ATOM     33  H   UNL     1     -34.941  20.818   4.475  0.00  0.00    +0.295 HD
ENDBRANCH  31  32
ENDBRANCH  27  31
ENDBRANCH  24  27
ENDBRANCH  21  24
ENDBRANCH  20  21
ENDBRANCH   3  20
TORSDOF 9
ENDMDL
MODEL 7
REMARK VINA RESULT:      -6.0      3.748      7.748
REMARK  Name = 194077
REMARK  9 active torsions:
REMARK  status: ('A' for Active; 'I' for Inactive)
REMARK    1  A    between atoms: N_3  and  C_20
REMARK    2  A    between atoms: C_20  and  C_21
REMARK    3  A    between atoms: C_21  and  O_22
REMARK    4  A    between atoms: C_21  and  C_24
REMARK    5  A    between atoms: C_24  and  O_25
REMARK    6  A    between atoms: C_24  and  C_27
REMARK    7  A    between atoms: C_27  and  O_28
REMARK    8  A    between atoms: C_27  and  C_31
REMARK    9  A    between atoms: C_31  and  O_32
REMARK                            x       y       z     vdW  Elec       q    Type
REMARK                         _______ _______ _______ _____ _____    ______ ____
ROOT
ATOM      1  O   UNL     1     -33.622  26.662   6.245  0.00  0.00    -0.266 OA
ATOM      2  O   UNL     1     -36.091  22.841   5.591  0.00  0.00    -0.193 OA
ATOM      3  N   UNL     1     -36.541  26.226   2.417  0.00  0.00    -0.270 N 
ATOM      4  N   UNL     1     -34.679  27.679   3.982  0.00  0.00    -0.396 NA
ATOM      5  N   UNL     1     -36.315  24.490   4.038  0.00  0.00    -0.303 NA
ATOM      6  N   UNL     1     -34.865  24.719   5.932  0.00  0.00    -0.196 N 
ATOM      7  C   UNL     1     -36.148  27.520   2.011  0.00  0.00    +0.150 C 
ATOM      8  C   UNL     1     -36.019  25.670   3.578  0.00  0.00    +0.232 C 
ATOM      9  C   UNL     1     -35.220  28.224   2.806  0.00  0.00    +0.131 C 
ATOM     10  C   UNL     1     -36.632  28.153   0.850  0.00  0.00    -0.004 C 
ATOM     11  C   UNL     1     -35.034  26.495   4.361  0.00  0.00    +0.230 C 
ATOM     12  C   UNL     1     -36.211  29.436   0.491  0.00  0.00    -0.028 C 
ATOM     13  C   UNL     1     -35.296  30.116   1.284  0.00  0.00    -0.024 C 
ATOM     14  C   UNL     1     -34.803  29.512   2.436  0.00  0.00    +0.025 C 
ATOM     15  C   UNL     1     -34.418  25.982   5.621  0.00  0.00    +0.293 C 
ATOM     16  C   UNL     1     -36.759  30.057  -0.752  0.00  0.00    +0.030 C 
ATOM     17  C   UNL     1     -34.830  31.488   0.924  0.00  0.00    +0.031 C 
ATOM     18  C   UNL     1     -35.778  23.966   5.194  0.00  0.00    +0.273 C 
ATOM     19  H   UNL     1     -34.506  24.307   6.751  0.00  0.00    +0.169 HD
ENDROOT
BRANCH   3  20
ATOM     20  C   UNL     1     -37.503  25.506   1.585  0.00  0.00    +0.126 C 
BRANCH  20  21
ATOM     21  C   UNL     1     -38.927  25.652   2.127  0.00  0.00    +0.160 C 
BRANCH  21  22
ATOM     22  O   UNL     1     -38.875  26.379   3.361  0.00  0.00    -0.380 OA
ATOM     23  H   UNL     1     -38.224  27.095   3.287  0.00  0.00    +0.211 HD
ENDBRANCH  21  22
BRANCH  21  24
ATOM     24  C   UNL     1     -39.673  24.334   2.403  0.00  0.00    +0.177 C 
BRANCH  24  25
ATOM     25  O   UNL     1     -38.815  23.485   3.179  0.00  0.00    -0.379 OA
ATOM     26  H   UNL     1     -39.352  22.828   3.650  0.00  0.00    +0.211 HD
ENDBRANCH  24  25
BRANCH  24  27
ATOM     27  C   UNL     1     -40.114  23.560   1.156  0.00  0.00    +0.239 C 
BRANCH  27  28
ATOM     28  O   UNL     1     -41.526  23.673   1.026  0.00  0.00    -0.373 OA
ATOM     29  H   UNL     1     -41.809  24.549   1.335  0.00  0.00    +0.211 HD
ENDBRANCH  27  28
BRANCH  27  31
ATOM     30  O   UNL     1     -40.390  21.227   1.746  0.00  0.00    -0.248 OA
ATOM     31  C   UNL     1     -39.717  22.096   1.205  0.00  0.00    +0.344 C 
BRANCH  31  32
ATOM     32  O   UNL     1     -38.552  21.832   0.561  0.00  0.00    -0.478 OA
ATOM     33  H   UNL     1     -38.261  20.947   0.462  0.00  0.00    +0.295 HD
ENDBRANCH  31  32
ENDBRANCH  27  31
ENDBRANCH  24  27
ENDBRANCH  21  24
ENDBRANCH  20  21
ENDBRANCH   3  20
TORSDOF 9
ENDMDL
MODEL 8
REMARK VINA RESULT:      -6.0      2.865      5.858
REMARK  Name = 194077
REMARK  9 active torsions:
REMARK  status: ('A' for Active; 'I' for Inactive)
REMARK    1  A    between atoms: N_3  and  C_20
REMARK    2  A    between atoms: C_20  and  C_21
REMARK    3  A    between atoms: C_21  and  O_22
REMARK    4  A    between atoms: C_21  and  C_24
REMARK    5  A    between atoms: C_24  and  O_25
REMARK    6  A    between atoms: C_24  and  C_27
REMARK    7  A    between atoms: C_27  and  O_28
REMARK    8  A    between atoms: C_27  and  C_31
REMARK    9  A    between atoms: C_31  and  O_32
REMARK                            x       y       z     vdW  Elec       q    Type
REMARK                         _______ _______ _______ _____ _____    ______ ____
ROOT
ATOM      1  O   UNL     1     -40.436  27.381   1.228  0.00  0.00    -0.266 OA
ATOM      2  O   UNL     1     -42.161  23.529  -0.590  0.00  0.00    -0.193 OA
ATOM      3  N   UNL     1     -38.566  23.065   2.342  0.00  0.00    -0.270 N 
ATOM      4  N   UNL     1     -38.634  25.889   2.569  0.00  0.00    -0.396 NA
ATOM      5  N   UNL     1     -40.406  23.296   0.840  0.00  0.00    -0.303 NA
ATOM      6  N   UNL     1     -41.324  25.442   0.296  0.00  0.00    -0.196 N 
ATOM      7  C   UNL     1     -37.635  23.720   3.177  0.00  0.00    +0.150 C 
ATOM      8  C   UNL     1     -39.509  23.801   1.634  0.00  0.00    +0.232 C 
ATOM      9  C   UNL     1     -37.689  25.126   3.274  0.00  0.00    +0.131 C 
ATOM     10  C   UNL     1     -36.650  23.046   3.924  0.00  0.00    -0.004 C 
ATOM     11  C   UNL     1     -39.490  25.296   1.801  0.00  0.00    +0.230 C 
ATOM     12  C   UNL     1     -35.751  23.741   4.738  0.00  0.00    -0.028 C 
ATOM     13  C   UNL     1     -35.817  25.126   4.823  0.00  0.00    -0.024 C 
ATOM     14  C   UNL     1     -36.781  25.814   4.094  0.00  0.00    +0.025 C 
ATOM     15  C   UNL     1     -40.464  26.171   1.083  0.00  0.00    +0.293 C 
ATOM     16  C   UNL     1     -34.727  22.973   5.507  0.00  0.00    +0.030 C 
ATOM     17  C   UNL     1     -34.868  25.893   5.683  0.00  0.00    +0.031 C 
ATOM     18  C   UNL     1     -41.329  24.055   0.153  0.00  0.00    +0.273 C 
ATOM     19  H   UNL     1     -41.999  25.946  -0.213  0.00  0.00    +0.169 HD
ENDROOT
BRANCH   3  20
ATOM     20  C   UNL     1     -38.502  21.607   2.249  0.00  0.00    +0.126 C 
BRANCH  20  21
ATOM     21  C   UNL     1     -38.238  21.153   0.811  0.00  0.00    +0.160 C 
BRANCH  21  22
ATOM     22  O   UNL     1     -39.336  20.339   0.379  0.00  0.00    -0.380 OA
ATOM     23  H   UNL     1     -39.368  19.530   0.913  0.00  0.00    +0.211 HD
ENDBRANCH  21  22
BRANCH  21  24
ATOM     24  C   UNL     1     -36.951  20.336   0.597  0.00  0.00    +0.177 C 
BRANCH  24  25
ATOM     25  O   UNL     1     -37.084  19.093   1.301  0.00  0.00    -0.379 OA
ATOM     26  H   UNL     1     -36.252  18.887   1.754  0.00  0.00    +0.211 HD
ENDBRANCH  24  25
BRANCH  24  27
ATOM     27  C   UNL     1     -35.660  21.017   1.065  0.00  0.00    +0.239 C 
BRANCH  27  28
ATOM     28  O   UNL     1     -34.883  21.351  -0.078  0.00  0.00    -0.373 OA
ATOM     29  H   UNL     1     -35.027  20.688  -0.771  0.00  0.00    +0.211 HD
ENDBRANCH  27  28
BRANCH  27  31
ATOM     30  O   UNL     1     -33.955  19.394   1.633  0.00  0.00    -0.248 OA
ATOM     31  C   UNL     1     -34.846  20.146   2.005  0.00  0.00    +0.344 C 
BRANCH  31  32
ATOM     32  O   UNL     1     -35.181  20.304   3.310  0.00  0.00    -0.478 OA
ATOM     33  H   UNL     1     -35.500  21.130   3.615  0.00  0.00    +0.295 HD
ENDBRANCH  31  32
ENDBRANCH  27  31
ENDBRANCH  24  27
ENDBRANCH  21  24
ENDBRANCH  20  21
ENDBRANCH   3  20
TORSDOF 9
ENDMDL
MODEL 9
REMARK VINA RESULT:      -5.8      1.979      5.263
REMARK  Name = 194077
REMARK  9 active torsions:
REMARK  status: ('A' for Active; 'I' for Inactive)
REMARK    1  A    between atoms: N_3  and  C_20
REMARK    2  A    between atoms: C_20  and  C_21
REMARK    3  A    between atoms: C_21  and  O_22
REMARK    4  A    between atoms: C_21  and  C_24
REMARK    5  A    between atoms: C_24  and  O_25
REMARK    6  A    between atoms: C_24  and  C_27
REMARK    7  A    between atoms: C_27  and  O_28
REMARK    8  A    between atoms: C_27  and  C_31
REMARK    9  A    between atoms: C_31  and  O_32
REMARK                            x       y       z     vdW  Elec       q    Type
REMARK                         _______ _______ _______ _____ _____    ______ ____
ROOT
ATOM      1  O   UNL     1     -38.053  19.668  -0.319  0.00  0.00    -0.266 OA
ATOM      2  O   UNL     1     -34.390  19.725   2.457  0.00  0.00    -0.193 OA
ATOM      3  N   UNL     1     -37.523  23.132   3.011  0.00  0.00    -0.270 N 
ATOM      4  N   UNL     1     -38.954  21.900   0.899  0.00  0.00    -0.396 NA
ATOM      5  N   UNL     1     -35.916  21.391   2.732  0.00  0.00    -0.303 NA
ATOM      6  N   UNL     1     -36.190  19.679   1.077  0.00  0.00    -0.196 N 
ATOM      7  C   UNL     1     -38.744  23.693   2.575  0.00  0.00    +0.150 C 
ATOM      8  C   UNL     1     -37.027  21.984   2.407  0.00  0.00    +0.232 C 
ATOM      9  C   UNL     1     -39.438  23.061   1.523  0.00  0.00    +0.131 C 
ATOM     10  C   UNL     1     -39.312  24.853   3.134  0.00  0.00    -0.004 C 
ATOM     11  C   UNL     1     -37.837  21.380   1.292  0.00  0.00    +0.230 C 
ATOM     12  C   UNL     1     -40.524  25.368   2.667  0.00  0.00    -0.028 C 
ATOM     13  C   UNL     1     -41.195  24.735   1.630  0.00  0.00    -0.024 C 
ATOM     14  C   UNL     1     -40.654  23.587   1.061  0.00  0.00    +0.025 C 
ATOM     15  C   UNL     1     -37.386  20.146   0.583  0.00  0.00    +0.293 C 
ATOM     16  C   UNL     1     -41.077  26.603   3.299  0.00  0.00    +0.030 C 
ATOM     17  C   UNL     1     -42.491  25.265   1.111  0.00  0.00    +0.031 C 
ATOM     18  C   UNL     1     -35.451  20.251   2.112  0.00  0.00    +0.273 C 
ATOM     19  H   UNL     1     -35.822  18.866   0.661  0.00  0.00    +0.169 HD
ENDROOT
BRANCH   3  20
ATOM     20  C   UNL     1     -36.812  23.794   4.103  0.00  0.00    +0.126 C 
BRANCH  20  21
ATOM     21  C   UNL     1     -35.782  24.794   3.571  0.00  0.00    +0.160 C 
BRANCH  21  22
ATOM     22  O   UNL     1     -34.555  24.097   3.319  0.00  0.00    -0.380 OA
ATOM     23  H   UNL     1     -34.207  23.743   4.153  0.00  0.00    +0.211 HD
ENDBRANCH  21  22
BRANCH  21  24
ATOM     24  C   UNL     1     -35.455  25.972   4.505  0.00  0.00    +0.177 C 
BRANCH  24  25
ATOM     25  O   UNL     1     -36.680  26.437   5.091  0.00  0.00    -0.379 OA
ATOM     26  H   UNL     1     -36.649  26.305   6.051  0.00  0.00    +0.211 HD
ENDBRANCH  24  25
BRANCH  24  27
ATOM     27  C   UNL     1     -34.761  27.164   3.835  0.00  0.00    +0.239 C 
BRANCH  27  28
ATOM     28  O   UNL     1     -34.860  27.014   2.425  0.00  0.00    -0.373 OA
ATOM     29  H   UNL     1     -35.404  26.237   2.220  0.00  0.00    +0.211 HD
ENDBRANCH  27  28
BRANCH  27  31
ATOM     30  O   UNL     1     -32.890  28.126   5.035  0.00  0.00    -0.248 OA
ATOM     31  C   UNL     1     -33.303  27.294   4.238  0.00  0.00    +0.344 C 
BRANCH  31  32
ATOM     32  O   UNL     1     -32.498  26.371   3.652  0.00  0.00    -0.478 OA
ATOM     33  H   UNL     1     -31.910  25.863   4.175  0.00  0.00    +0.295 HD
ENDBRANCH  31  32
ENDBRANCH  27  31
ENDBRANCH  24  27
ENDBRANCH  21  24
ENDBRANCH  20  21
ENDBRANCH   3  20
TORSDOF 9
ENDMDL
