MODEL 1
REMARK VINA RESULT:      -6.7      0.000      0.000
REMARK  Name = 5486821
REMARK  6 active torsions:
REMARK  status: ('A' for Active; 'I' for Inactive)
REMARK    1  A    between atoms: N_2  and  CA_9
REMARK    2  A    between atoms: C_3  and  C_20
REMARK    3  A    between atoms: CA_11  and  C_16
REMARK    4  A    between atoms: C_16  and  O_17
REMARK    5  A    between atoms: N_19  and  O_29
REMARK    6  A    between atoms: C_20  and  C_24
REMARK                            x       y       z     vdW  Elec       q    Type
REMARK                         _______ _______ _______ _____ _____    ______ ____
ROOT
ATOM      1  O   UNL     1     -35.880  26.617   5.616  0.00  0.00    -0.268 OA
ATOM      2  N   UNL     1     -34.813  24.673   4.849  0.00  0.00    -0.291 N 
ATOM      3  C   UNL     1     -34.897  25.995   5.250  0.00  0.00    +0.269 C 
ATOM      4  H   UNL     1     -33.935  24.316   4.580  0.00  0.00    +0.150 HD
ENDROOT
BRANCH   2   9
ATOM      5  S   UNL     1     -36.305  24.819   2.173  0.00  0.00    -0.114 S 
ATOM      6  O   UNL     1     -34.995  21.424   5.066  0.00  0.00    -0.273 OA
ATOM      7  N   UNL     1     -36.195  22.416   3.295  0.00  0.00    -0.242 N 
ATOM      8  C   UNL     1     -36.808  23.714   3.511  0.00  0.00    +0.155 C 
ATOM      9  CA  UNL     1     -35.973  23.784   4.809  0.00  0.00    +0.179 C 
ATOM     10  C   UNL     1     -35.612  22.302   4.507  0.00  0.00    +0.251 C 
ATOM     11  CA  UNL     1     -36.308  21.712   2.139  0.00  0.00    +0.124 C 
ATOM     12  C   UNL     1     -37.065  23.781   0.879  0.00  0.00    +0.083 C 
ATOM     13  C   UNL     1     -36.752  22.291   0.998  0.00  0.00    -0.013 C 
ATOM     14  C   UNL     1     -36.982  21.558  -0.302  0.00  0.00    +0.029 C 
BRANCH  11  16
ATOM     15  OXT UNL     1     -34.745  19.942   1.865  0.00  0.00    -0.244 OA
ATOM     16  C   UNL     1     -35.863  20.310   2.166  0.00  0.00    +0.351 C 
BRANCH  16  17
ATOM     17  O   UNL     1     -36.881  19.526   2.568  0.00  0.00    -0.476 OA
ATOM     18  H   UNL     1     -37.759  19.852   2.554  0.00  0.00    +0.295 HD
ENDBRANCH  16  17
ENDBRANCH  11  16
ENDBRANCH   2   9
BRANCH   3  20
ATOM     19  N   UNL     1     -32.956  27.013   6.309  0.00  0.00    -0.076 NA
ATOM     20  C   UNL     1     -33.570  26.709   5.206  0.00  0.00    +0.198 C 
BRANCH  20  24
ATOM     21  S   UNL     1     -32.236  28.347   1.888  0.00  0.00    -0.060 S 
ATOM     22  N   UNL     1     -32.155  26.175   3.286  0.00  0.00    -0.383 NA
ATOM     23  N   UNL     1     -30.901  26.130   1.283  0.00  0.00    -0.328 N 
ATOM     24  C   UNL     1     -32.947  27.082   3.932  0.00  0.00    +0.148 C 
ATOM     25  C   UNL     1     -33.122  28.304   3.356  0.00  0.00    +0.127 C 
ATOM     26  C   UNL     1     -31.719  26.738   2.182  0.00  0.00    +0.204 C 
ATOM     27  H   UNL     1     -30.613  26.612   0.475  0.00  0.00    +0.145 HD
ATOM     28  H   UNL     1     -30.597  25.206   1.440  0.00  0.00    +0.145 HD
ENDBRANCH  20  24
BRANCH  19  29
ATOM     29  O   UNL     1     -31.747  27.677   6.064  0.00  0.00    -0.373 OA
ATOM     30  C   UNL     1     -31.782  28.923   6.743  0.00  0.00    +0.288 C 
ENDBRANCH  19  29
ENDBRANCH   3  20
TORSDOF 6
ENDMDL
MODEL 2
REMARK VINA RESULT:      -6.2      3.255      7.192
REMARK  Name = 5486821
REMARK  6 active torsions:
REMARK  status: ('A' for Active; 'I' for Inactive)
REMARK    1  A    between atoms: N_2  and  CA_9
REMARK    2  A    between atoms: C_3  and  C_20
REMARK    3  A    between atoms: CA_11  and  C_16
REMARK    4  A    between atoms: C_16  and  O_17
REMARK    5  A    between atoms: N_19  and  O_29
REMARK    6  A    between atoms: C_20  and  C_24
REMARK                            x       y       z     vdW  Elec       q    Type
REMARK                         _______ _______ _______ _____ _____    ______ ____
ROOT
ATOM      1  O   UNL     1     -33.111  25.289   4.292  0.00  0.00    -0.268 OA
ATOM      2  N   UNL     1     -34.813  26.020   2.851  0.00  0.00    -0.291 N 
ATOM      3  C   UNL     1     -34.249  25.250   3.854  0.00  0.00    +0.269 C 
ATOM      4  H   UNL     1     -35.755  25.864   2.611  0.00  0.00    +0.150 HD
ENDROOT
BRANCH   2   9
ATOM      5  S   UNL     1     -36.566  27.550   0.852  0.00  0.00    -0.114 S 
ATOM      6  O   UNL     1     -33.300  28.688   3.959  0.00  0.00    -0.273 OA
ATOM      7  N   UNL     1     -34.729  28.996   2.108  0.00  0.00    -0.242 N 
ATOM      8  C   UNL     1     -34.821  27.940   1.118  0.00  0.00    +0.155 C 
ATOM      9  CA  UNL     1     -34.068  27.053   2.134  0.00  0.00    +0.179 C 
ATOM     10  C   UNL     1     -33.881  28.365   2.949  0.00  0.00    +0.251 C 
ATOM     11  CA  UNL     1     -35.386  30.181   2.012  0.00  0.00    +0.124 C 
ATOM     12  C   UNL     1     -36.968  29.232   0.268  0.00  0.00    +0.083 C 
ATOM     13  C   UNL     1     -36.406  30.355   1.137  0.00  0.00    -0.013 C 
ATOM     14  C   UNL     1     -37.130  31.661   0.914  0.00  0.00    +0.029 C 
BRANCH  11  16
ATOM     15  OXT UNL     1     -34.219  32.145   2.668  0.00  0.00    -0.244 OA
ATOM     16  C   UNL     1     -34.985  31.245   2.945  0.00  0.00    +0.351 C 
BRANCH  16  17
ATOM     17  O   UNL     1     -35.597  31.054   4.130  0.00  0.00    -0.476 OA
ATOM     18  H   UNL     1     -35.091  30.846   4.891  0.00  0.00    +0.295 HD
ENDBRANCH  16  17
ENDBRANCH  11  16
ENDBRANCH   2   9
BRANCH   3  20
ATOM     19  N   UNL     1     -34.885  23.574   5.501  0.00  0.00    -0.076 NA
ATOM     20  C   UNL     1     -35.212  24.252   4.443  0.00  0.00    +0.198 C 
BRANCH  20  24
ATOM     21  S   UNL     1     -38.406  23.080   2.468  0.00  0.00    -0.060 S 
ATOM     22  N   UNL     1     -37.579  24.811   4.200  0.00  0.00    -0.383 NA
ATOM     23  N   UNL     1     -39.870  24.967   3.636  0.00  0.00    -0.328 N 
ATOM     24  C   UNL     1     -36.528  24.016   3.839  0.00  0.00    +0.148 C 
ATOM     25  C   UNL     1     -36.755  23.029   2.928  0.00  0.00    +0.127 C 
ATOM     26  C   UNL     1     -38.636  24.407   3.532  0.00  0.00    +0.204 C 
ATOM     27  H   UNL     1     -40.618  24.613   3.104  0.00  0.00    +0.145 HD
ATOM     28  H   UNL     1     -40.015  25.729   4.243  0.00  0.00    +0.145 HD
ENDBRANCH  20  24
BRANCH  19  29
ATOM     29  O   UNL     1     -35.904  22.695   5.891  0.00  0.00    -0.373 OA
ATOM     30  C   UNL     1     -35.342  21.399   6.025  0.00  0.00    +0.288 C 
ENDBRANCH  19  29
ENDBRANCH   3  20
TORSDOF 6
ENDMDL
MODEL 3
REMARK VINA RESULT:      -6.1      1.653      2.701
REMARK  Name = 5486821
REMARK  6 active torsions:
REMARK  status: ('A' for Active; 'I' for Inactive)
REMARK    1  A    between atoms: N_2  and  CA_9
REMARK    2  A    between atoms: C_3  and  C_20
REMARK    3  A    between atoms: CA_11  and  C_16
REMARK    4  A    between atoms: C_16  and  O_17
REMARK    5  A    between atoms: N_19  and  O_29
REMARK    6  A    between atoms: C_20  and  C_24
REMARK                            x       y       z     vdW  Elec       q    Type
REMARK                         _______ _______ _______ _____ _____    ______ ____
ROOT
ATOM      1  O   UNL     1     -35.153  27.454   3.902  0.00  0.00    -0.268 OA
ATOM      2  N   UNL     1     -34.328  25.262   3.752  0.00  0.00    -0.291 N 
ATOM      3  C   UNL     1     -34.246  26.641   3.841  0.00  0.00    +0.269 C 
ATOM      4  H   UNL     1     -33.493  24.741   3.711  0.00  0.00    +0.150 HD
ENDROOT
BRANCH   2   9
ATOM      5  S   UNL     1     -35.249  24.657   0.889  0.00  0.00    -0.114 S 
ATOM      6  O   UNL     1     -35.136  22.322   4.908  0.00  0.00    -0.273 OA
ATOM      7  N   UNL     1     -35.787  22.781   2.688  0.00  0.00    -0.242 N 
ATOM      8  C   UNL     1     -36.183  24.134   2.346  0.00  0.00    +0.155 C 
ATOM      9  CA  UNL     1     -35.603  24.548   3.717  0.00  0.00    +0.179 C 
ATOM     10  C   UNL     1     -35.469  23.020   3.978  0.00  0.00    +0.251 C 
ATOM     11  CA  UNL     1     -35.811  21.743   1.812  0.00  0.00    +0.124 C 
ATOM     12  C   UNL     1     -35.933  23.333  -0.163  0.00  0.00    +0.083 C 
ATOM     13  C   UNL     1     -35.924  21.946   0.478  0.00  0.00    -0.013 C 
ATOM     14  C   UNL     1     -36.040  20.846  -0.550  0.00  0.00    +0.029 C 
BRANCH  11  16
ATOM     15  OXT UNL     1     -34.571  19.832   2.491  0.00  0.00    -0.244 OA
ATOM     16  C   UNL     1     -35.641  20.394   2.372  0.00  0.00    +0.351 C 
BRANCH  16  17
ATOM     17  O   UNL     1     -36.845  19.899   2.718  0.00  0.00    -0.476 OA
ATOM     18  H   UNL     1     -37.157  19.107   2.327  0.00  0.00    +0.295 HD
ENDBRANCH  16  17
ENDBRANCH  11  16
ENDBRANCH   2   9
BRANCH   3  20
ATOM     19  N   UNL     1     -31.917  26.569   3.133  0.00  0.00    -0.076 NA
ATOM     20  C   UNL     1     -32.825  27.146   3.860  0.00  0.00    +0.198 C 
BRANCH  20  24
ATOM     21  S   UNL     1     -31.842  30.587   5.492  0.00  0.00    -0.060 S 
ATOM     22  N   UNL     1     -32.174  28.080   6.023  0.00  0.00    -0.383 NA
ATOM     23  N   UNL     1     -31.524  29.419   7.859  0.00  0.00    -0.328 N 
ATOM     24  C   UNL     1     -32.433  28.285   4.697  0.00  0.00    +0.148 C 
ATOM     25  C   UNL     1     -32.315  29.551   4.210  0.00  0.00    +0.127 C 
ATOM     26  C   UNL     1     -31.848  29.237   6.552  0.00  0.00    +0.204 C 
ATOM     27  H   UNL     1     -31.288  30.316   8.188  0.00  0.00    +0.145 HD
ATOM     28  H   UNL     1     -31.523  28.652   8.477  0.00  0.00    +0.145 HD
ENDBRANCH  20  24
BRANCH  19  29
ATOM     29  O   UNL     1     -30.663  27.174   3.290  0.00  0.00    -0.373 OA
ATOM     30  C   UNL     1     -29.997  27.142   2.038  0.00  0.00    +0.288 C 
ENDBRANCH  19  29
ENDBRANCH   3  20
TORSDOF 6
ENDMDL
MODEL 4
REMARK VINA RESULT:      -5.9      1.442      1.638
REMARK  Name = 5486821
REMARK  6 active torsions:
REMARK  status: ('A' for Active; 'I' for Inactive)
REMARK    1  A    between atoms: N_2  and  CA_9
REMARK    2  A    between atoms: C_3  and  C_20
REMARK    3  A    between atoms: CA_11  and  C_16
REMARK    4  A    between atoms: C_16  and  O_17
REMARK    5  A    between atoms: N_19  and  O_29
REMARK    6  A    between atoms: C_20  and  C_24
REMARK                            x       y       z     vdW  Elec       q    Type
REMARK                         _______ _______ _______ _____ _____    ______ ____
ROOT
ATOM      1  O   UNL     1     -34.839  24.995   6.308  0.00  0.00    -0.268 OA
ATOM      2  N   UNL     1     -35.601  25.225   4.101  0.00  0.00    -0.291 N 
ATOM      3  C   UNL     1     -34.808  25.504   5.200  0.00  0.00    +0.269 C 
ATOM      4  H   UNL     1     -35.450  25.729   3.268  0.00  0.00    +0.150 HD
ENDROOT
BRANCH   2   9
ATOM      5  S   UNL     1     -36.865  24.789   1.339  0.00  0.00    -0.114 S 
ATOM      6  O   UNL     1     -35.466  22.048   4.824  0.00  0.00    -0.273 OA
ATOM      7  N   UNL     1     -36.604  22.614   2.838  0.00  0.00    -0.242 N 
ATOM      8  C   UNL     1     -37.364  23.849   2.800  0.00  0.00    +0.155 C 
ATOM      9  CA  UNL     1     -36.656  24.212   4.124  0.00  0.00    +0.179 C 
ATOM     10  C   UNL     1     -36.119  22.753   4.090  0.00  0.00    +0.251 C 
ATOM     11  CA  UNL     1     -36.544  21.733   1.806  0.00  0.00    +0.124 C 
ATOM     12  C   UNL     1     -37.399  23.485   0.180  0.00  0.00    +0.083 C 
ATOM     13  C   UNL     1     -36.946  22.076   0.558  0.00  0.00    -0.013 C 
ATOM     14  C   UNL     1     -36.986  21.132  -0.619  0.00  0.00    +0.029 C 
BRANCH  11  16
ATOM     15  OXT UNL     1     -34.798  20.122   1.891  0.00  0.00    -0.244 OA
ATOM     16  C   UNL     1     -35.961  20.413   2.088  0.00  0.00    +0.351 C 
BRANCH  16  17
ATOM     17  O   UNL     1     -36.912  19.601   2.589  0.00  0.00    -0.476 OA
ATOM     18  H   UNL     1     -36.694  18.730   2.853  0.00  0.00    +0.295 HD
ENDBRANCH  16  17
ENDBRANCH  11  16
ENDBRANCH   2   9
BRANCH   3  20
ATOM     19  N   UNL     1     -32.945  26.928   5.856  0.00  0.00    -0.076 NA
ATOM     20  C   UNL     1     -33.793  26.586   4.933  0.00  0.00    +0.198 C 
BRANCH  20  24
ATOM     21  S   UNL     1     -33.094  27.999   1.330  0.00  0.00    -0.060 S 
ATOM     22  N   UNL     1     -34.637  28.277   3.384  0.00  0.00    -0.383 NA
ATOM     23  N   UNL     1     -35.087  29.740   1.582  0.00  0.00    -0.328 N 
ATOM     24  C   UNL     1     -33.740  27.280   3.642  0.00  0.00    +0.148 C 
ATOM     25  C   UNL     1     -32.829  26.972   2.677  0.00  0.00    +0.127 C 
ATOM     26  C   UNL     1     -34.390  28.737   2.179  0.00  0.00    +0.204 C 
ATOM     27  H   UNL     1     -34.846  30.035   0.675  0.00  0.00    +0.145 HD
ATOM     28  H   UNL     1     -35.833  30.172   2.059  0.00  0.00    +0.145 HD
ENDBRANCH  20  24
BRANCH  19  29
ATOM     29  O   UNL     1     -32.091  27.951   5.424  0.00  0.00    -0.373 OA
ATOM     30  C   UNL     1     -31.813  28.791   6.534  0.00  0.00    +0.288 C 
ENDBRANCH  19  29
ENDBRANCH   3  20
TORSDOF 6
ENDMDL
MODEL 5
REMARK VINA RESULT:      -5.8      1.884      2.881
REMARK  Name = 5486821
REMARK  6 active torsions:
REMARK  status: ('A' for Active; 'I' for Inactive)
REMARK    1  A    between atoms: N_2  and  CA_9
REMARK    2  A    between atoms: C_3  and  C_20
REMARK    3  A    between atoms: CA_11  and  C_16
REMARK    4  A    between atoms: C_16  and  O_17
REMARK    5  A    between atoms: N_19  and  O_29
REMARK    6  A    between atoms: C_20  and  C_24
REMARK                            x       y       z     vdW  Elec       q    Type
REMARK                         _______ _______ _______ _____ _____    ______ ____
ROOT
ATOM      1  O   UNL     1     -34.951  26.620   5.697  0.00  0.00    -0.268 OA
ATOM      2  N   UNL     1     -34.903  24.897   4.105  0.00  0.00    -0.291 N 
ATOM      3  C   UNL     1     -34.449  26.031   4.755  0.00  0.00    +0.269 C 
ATOM      4  H   UNL     1     -34.377  24.541   3.353  0.00  0.00    +0.150 HD
ENDROOT
BRANCH   2   9
ATOM      5  S   UNL     1     -37.363  25.981   2.626  0.00  0.00    -0.114 S 
ATOM      6  O   UNL     1     -35.764  21.769   3.773  0.00  0.00    -0.273 OA
ATOM      7  N   UNL     1     -37.351  23.364   3.068  0.00  0.00    -0.242 N 
ATOM      8  C   UNL     1     -37.456  24.612   3.802  0.00  0.00    +0.155 C 
ATOM      9  CA  UNL     1     -36.134  24.207   4.490  0.00  0.00    +0.179 C 
ATOM     10  C   UNL     1     -36.329  22.838   3.776  0.00  0.00    +0.251 C 
ATOM     11  CA  UNL     1     -38.148  23.036   2.018  0.00  0.00    +0.124 C 
ATOM     12  C   UNL     1     -38.858  25.455   1.723  0.00  0.00    +0.083 C 
ATOM     13  C   UNL     1     -38.905  23.966   1.387  0.00  0.00    -0.013 C 
ATOM     14  C   UNL     1     -39.875  23.667   0.270  0.00  0.00    +0.029 C 
BRANCH  11  16
ATOM     15  OXT UNL     1     -37.400  21.245   0.647  0.00  0.00    -0.244 OA
ATOM     16  C   UNL     1     -38.102  21.641   1.555  0.00  0.00    +0.351 C 
BRANCH  16  17
ATOM     17  O   UNL     1     -38.951  20.898   2.291  0.00  0.00    -0.476 OA
ATOM     18  H   UNL     1     -39.056  19.985   2.106  0.00  0.00    +0.295 HD
ENDBRANCH  16  17
ENDBRANCH  11  16
ENDBRANCH   2   9
BRANCH   3  20
ATOM     19  N   UNL     1     -32.560  25.923   3.222  0.00  0.00    -0.076 NA
ATOM     20  C   UNL     1     -33.161  26.563   4.179  0.00  0.00    +0.198 C 
BRANCH  20  24
ATOM     21  S   UNL     1     -31.853  30.191   4.953  0.00  0.00    -0.060 S 
ATOM     22  N   UNL     1     -31.803  27.758   5.822  0.00  0.00    -0.383 NA
ATOM     23  N   UNL     1     -30.594  29.317   7.125  0.00  0.00    -0.328 N 
ATOM     24  C   UNL     1     -32.555  27.800   4.682  0.00  0.00    +0.148 C 
ATOM     25  C   UNL     1     -32.708  29.002   4.060  0.00  0.00    +0.127 C 
ATOM     26  C   UNL     1     -31.375  28.975   6.066  0.00  0.00    +0.204 C 
ATOM     27  H   UNL     1     -30.309  30.251   7.246  0.00  0.00    +0.145 HD
ATOM     28  H   UNL     1     -30.313  28.628   7.771  0.00  0.00    +0.145 HD
ENDBRANCH  20  24
BRANCH  19  29
ATOM     29  O   UNL     1     -31.380  26.567   2.826  0.00  0.00    -0.373 OA
ATOM     30  C   UNL     1     -31.311  26.529   1.409  0.00  0.00    +0.288 C 
ENDBRANCH  19  29
ENDBRANCH   3  20
TORSDOF 6
ENDMDL
MODEL 6
REMARK VINA RESULT:      -5.7      4.019      6.355
REMARK  Name = 5486821
REMARK  6 active torsions:
REMARK  status: ('A' for Active; 'I' for Inactive)
REMARK    1  A    between atoms: N_2  and  CA_9
REMARK    2  A    between atoms: C_3  and  C_20
REMARK    3  A    between atoms: CA_11  and  C_16
REMARK    4  A    between atoms: C_16  and  O_17
REMARK    5  A    between atoms: N_19  and  O_29
REMARK    6  A    between atoms: C_20  and  C_24
REMARK                            x       y       z     vdW  Elec       q    Type
REMARK                         _______ _______ _______ _____ _____    ______ ____
ROOT
ATOM      1  O   UNL     1     -36.356  26.817  -0.669  0.00  0.00    -0.268 OA
ATOM      2  N   UNL     1     -36.709  25.865   1.446  0.00  0.00    -0.291 N 
ATOM      3  C   UNL     1     -37.015  26.641   0.341  0.00  0.00    +0.269 C 
ATOM      4  H   UNL     1     -37.354  25.827   2.189  0.00  0.00    +0.150 HD
ENDROOT
BRANCH   2   9
ATOM      5  S   UNL     1     -35.901  25.358   4.361  0.00  0.00    -0.114 S 
ATOM      6  O   UNL     1     -35.995  22.842   0.453  0.00  0.00    -0.273 OA
ATOM      7  N   UNL     1     -35.391  23.378   2.669  0.00  0.00    -0.242 N 
ATOM      8  C   UNL     1     -34.948  24.729   2.961  0.00  0.00    +0.155 C 
ATOM      9  CA  UNL     1     -35.468  25.100   1.555  0.00  0.00    +0.179 C 
ATOM     10  C   UNL     1     -35.660  23.569   1.360  0.00  0.00    +0.251 C 
ATOM     11  CA  UNL     1     -35.438  22.383   3.592  0.00  0.00    +0.124 C 
ATOM     12  C   UNL     1     -35.306  24.058   5.495  0.00  0.00    +0.083 C 
ATOM     13  C   UNL     1     -35.355  22.643   4.918  0.00  0.00    -0.013 C 
ATOM     14  C   UNL     1     -35.318  21.590   5.999  0.00  0.00    +0.029 C 
BRANCH  11  16
ATOM     15  OXT UNL     1     -34.765  20.194   2.955  0.00  0.00    -0.244 OA
ATOM     16  C   UNL     1     -35.648  21.017   3.090  0.00  0.00    +0.351 C 
BRANCH  16  17
ATOM     17  O   UNL     1     -36.954  20.839   2.812  0.00  0.00    -0.476 OA
ATOM     18  H   UNL     1     -37.302  19.973   2.728  0.00  0.00    +0.295 HD
ENDBRANCH  16  17
ENDBRANCH  11  16
ENDBRANCH   2   9
BRANCH   3  20
ATOM     19  N   UNL     1     -38.501  28.539  -0.003  0.00  0.00    -0.076 NA
ATOM     20  C   UNL     1     -38.348  27.335   0.460  0.00  0.00    +0.198 C 
BRANCH  20  24
ATOM     21  S   UNL     1     -41.624  25.422   1.500  0.00  0.00    -0.060 S 
ATOM     22  N   UNL     1     -39.589  26.691   2.465  0.00  0.00    -0.383 NA
ATOM     23  N   UNL     1     -41.110  25.858   4.072  0.00  0.00    -0.328 N 
ATOM     24  C   UNL     1     -39.493  26.681   1.102  0.00  0.00    +0.148 C 
ATOM     25  C   UNL     1     -40.475  26.055   0.395  0.00  0.00    +0.127 C 
ATOM     26  C   UNL     1     -40.687  26.049   2.794  0.00  0.00    +0.204 C 
ATOM     27  H   UNL     1     -41.945  25.367   4.246  0.00  0.00    +0.145 HD
ATOM     28  H   UNL     1     -40.582  26.213   4.823  0.00  0.00    +0.145 HD
ENDBRANCH  20  24
BRANCH  19  29
ATOM     29  O   UNL     1     -39.802  29.015   0.207  0.00  0.00    -0.373 OA
ATOM     30  C   UNL     1     -40.091  29.968  -0.804  0.00  0.00    +0.288 C 
ENDBRANCH  19  29
ENDBRANCH   3  20
TORSDOF 6
ENDMDL
MODEL 7
REMARK VINA RESULT:      -5.7      2.779      3.658
REMARK  Name = 5486821
REMARK  6 active torsions:
REMARK  status: ('A' for Active; 'I' for Inactive)
REMARK    1  A    between atoms: N_2  and  CA_9
REMARK    2  A    between atoms: C_3  and  C_20
REMARK    3  A    between atoms: CA_11  and  C_16
REMARK    4  A    between atoms: C_16  and  O_17
REMARK    5  A    between atoms: N_19  and  O_29
REMARK    6  A    between atoms: C_20  and  C_24
REMARK                            x       y       z     vdW  Elec       q    Type
REMARK                         _______ _______ _______ _____ _____    ______ ____
ROOT
ATOM      1  O   UNL     1     -37.666  27.311   0.559  0.00  0.00    -0.268 OA
ATOM      2  N   UNL     1     -36.382  25.753   1.755  0.00  0.00    -0.291 N 
ATOM      3  C   UNL     1     -36.770  27.011   1.330  0.00  0.00    +0.269 C 
ATOM      4  H   UNL     1     -35.631  25.678   2.387  0.00  0.00    +0.150 HD
ENDROOT
BRANCH   2   9
ATOM      5  S   UNL     1     -34.528  23.980   0.072  0.00  0.00    -0.114 S 
ATOM      6  O   UNL     1     -37.631  23.270   3.460  0.00  0.00    -0.273 OA
ATOM      7  N   UNL     1     -36.208  22.690   1.672  0.00  0.00    -0.242 N 
ATOM      8  C   UNL     1     -36.226  23.510   0.475  0.00  0.00    +0.155 C 
ATOM      9  CA  UNL     1     -37.042  24.529   1.302  0.00  0.00    +0.179 C 
ATOM     10  C   UNL     1     -37.097  23.414   2.385  0.00  0.00    +0.251 C 
ATOM     11  CA  UNL     1     -35.448  21.573   1.809  0.00  0.00    +0.124 C 
ATOM     12  C   UNL     1     -33.984  22.252  -0.150  0.00  0.00    +0.083 C 
ATOM     13  C   UNL     1     -34.430  21.300   0.958  0.00  0.00    -0.013 C 
ATOM     14  C   UNL     1     -33.594  20.044   0.996  0.00  0.00    +0.029 C 
BRANCH  11  16
ATOM     15  OXT UNL     1     -35.187  20.799   4.042  0.00  0.00    -0.244 OA
ATOM     16  C   UNL     1     -35.737  20.707   2.962  0.00  0.00    +0.351 C 
BRANCH  16  17
ATOM     17  O   UNL     1     -36.690  19.816   2.625  0.00  0.00    -0.476 OA
ATOM     18  H   UNL     1     -37.392  20.072   2.060  0.00  0.00    +0.295 HD
ENDBRANCH  16  17
ENDBRANCH  11  16
ENDBRANCH   2   9
BRANCH   3  20
ATOM     19  N   UNL     1     -36.295  29.357   1.780  0.00  0.00    -0.076 NA
ATOM     20  C   UNL     1     -35.940  28.117   1.933  0.00  0.00    +0.198 C 
BRANCH  20  24
ATOM     21  S   UNL     1     -32.327  27.451   3.338  0.00  0.00    -0.060 S 
ATOM     22  N   UNL     1     -34.818  27.531   4.023  0.00  0.00    -0.383 NA
ATOM     23  N   UNL     1     -33.312  26.989   5.763  0.00  0.00    -0.328 N 
ATOM     24  C   UNL     1     -34.720  27.826   2.693  0.00  0.00    +0.148 C 
ATOM     25  C   UNL     1     -33.480  27.839   2.129  0.00  0.00    +0.127 C 
ATOM     26  C   UNL     1     -33.604  27.312   4.476  0.00  0.00    +0.204 C 
ATOM     27  H   UNL     1     -32.378  26.837   6.034  0.00  0.00    +0.145 HD
ATOM     28  H   UNL     1     -34.036  26.905   6.426  0.00  0.00    +0.145 HD
ENDBRANCH  20  24
BRANCH  19  29
ATOM     29  O   UNL     1     -35.398  30.235   2.403  0.00  0.00    -0.373 OA
ATOM     30  C   UNL     1     -35.072  31.261   1.479  0.00  0.00    +0.288 C 
ENDBRANCH  19  29
ENDBRANCH   3  20
TORSDOF 6
ENDMDL
MODEL 8
REMARK VINA RESULT:      -5.7      3.040      7.705
REMARK  Name = 5486821
REMARK  6 active torsions:
REMARK  status: ('A' for Active; 'I' for Inactive)
REMARK    1  A    between atoms: N_2  and  CA_9
REMARK    2  A    between atoms: C_3  and  C_20
REMARK    3  A    between atoms: CA_11  and  C_16
REMARK    4  A    between atoms: C_16  and  O_17
REMARK    5  A    between atoms: N_19  and  O_29
REMARK    6  A    between atoms: C_20  and  C_24
REMARK                            x       y       z     vdW  Elec       q    Type
REMARK                         _______ _______ _______ _____ _____    ______ ____
ROOT
ATOM      1  O   UNL     1     -37.190  20.501   1.376  0.00  0.00    -0.268 OA
ATOM      2  N   UNL     1     -37.340  22.713   2.144  0.00  0.00    -0.291 N 
ATOM      3  C   UNL     1     -37.780  21.558   1.523  0.00  0.00    +0.269 C 
ATOM      4  H   UNL     1     -37.943  23.490   2.179  0.00  0.00    +0.150 HD
ENDROOT
BRANCH   2   9
ATOM      5  S   UNL     1     -35.708  25.022   0.954  0.00  0.00    -0.114 S 
ATOM      6  O   UNL     1     -36.469  23.345   5.222  0.00  0.00    -0.273 OA
ATOM      7  N   UNL     1     -35.378  24.606   3.555  0.00  0.00    -0.242 N 
ATOM      8  C   UNL     1     -35.083  23.970   2.284  0.00  0.00    +0.155 C 
ATOM      9  CA  UNL     1     -36.014  22.828   2.749  0.00  0.00    +0.179 C 
ATOM     10  C   UNL     1     -36.017  23.560   4.122  0.00  0.00    +0.251 C 
ATOM     11  CA  UNL     1     -35.023  25.880   3.861  0.00  0.00    +0.124 C 
ATOM     12  C   UNL     1     -34.639  26.428   1.413  0.00  0.00    +0.083 C 
ATOM     13  C   UNL     1     -34.626  26.754   2.905  0.00  0.00    -0.013 C 
ATOM     14  C   UNL     1     -34.139  28.157   3.175  0.00  0.00    +0.029 C 
BRANCH  11  16
ATOM     15  OXT UNL     1     -34.231  26.307   6.062  0.00  0.00    -0.244 OA
ATOM     16  C   UNL     1     -35.151  26.289   5.268  0.00  0.00    +0.351 C 
BRANCH  16  17
ATOM     17  O   UNL     1     -36.429  26.629   5.520  0.00  0.00    -0.476 OA
ATOM     18  H   UNL     1     -37.112  25.996   5.419  0.00  0.00    +0.295 HD
ENDBRANCH  16  17
ENDBRANCH  11  16
ENDBRANCH   2   9
BRANCH   3  20
ATOM     19  N   UNL     1     -39.860  20.617   0.674  0.00  0.00    -0.076 NA
ATOM     20  C   UNL     1     -39.179  21.681   0.974  0.00  0.00    +0.198 C 
BRANCH  20  24
ATOM     21  S   UNL     1     -40.587  25.134  -0.276  0.00  0.00    -0.060 S 
ATOM     22  N   UNL     1     -40.464  23.592   1.794  0.00  0.00    -0.383 NA
ATOM     23  N   UNL     1     -41.643  25.616   2.116  0.00  0.00    -0.328 N 
ATOM     24  C   UNL     1     -39.801  22.992   0.761  0.00  0.00    +0.148 C 
ATOM     25  C   UNL     1     -39.748  23.647  -0.433  0.00  0.00    +0.127 C 
ATOM     26  C   UNL     1     -40.927  24.742   1.360  0.00  0.00    +0.204 C 
ATOM     27  H   UNL     1     -41.959  26.462   1.725  0.00  0.00    +0.145 HD
ATOM     28  H   UNL     1     -41.845  25.402   3.056  0.00  0.00    +0.145 HD
ENDBRANCH  20  24
BRANCH  19  29
ATOM     29  O   UNL     1     -41.129  20.935   0.174  0.00  0.00    -0.373 OA
ATOM     30  C   UNL     1     -41.283  20.291  -1.081  0.00  0.00    +0.288 C 
ENDBRANCH  19  29
ENDBRANCH   3  20
TORSDOF 6
ENDMDL
MODEL 9
REMARK VINA RESULT:      -5.7      2.539      7.475
REMARK  Name = 5486821
REMARK  6 active torsions:
REMARK  status: ('A' for Active; 'I' for Inactive)
REMARK    1  A    between atoms: N_2  and  CA_9
REMARK    2  A    between atoms: C_3  and  C_20
REMARK    3  A    between atoms: CA_11  and  C_16
REMARK    4  A    between atoms: C_16  and  O_17
REMARK    5  A    between atoms: N_19  and  O_29
REMARK    6  A    between atoms: C_20  and  C_24
REMARK                            x       y       z     vdW  Elec       q    Type
REMARK                         _______ _______ _______ _____ _____    ______ ____
ROOT
ATOM      1  O   UNL     1     -34.106  24.313   1.780  0.00  0.00    -0.268 OA
ATOM      2  N   UNL     1     -33.741  25.866   3.501  0.00  0.00    -0.291 N 
ATOM      3  C   UNL     1     -34.312  24.760   2.895  0.00  0.00    +0.269 C 
ATOM      4  H   UNL     1     -34.018  26.099   4.417  0.00  0.00    +0.150 HD
ENDROOT
BRANCH   2   9
ATOM      5  S   UNL     1     -35.018  28.151   1.901  0.00  0.00    -0.114 S 
ATOM      6  O   UNL     1     -31.368  27.722   4.748  0.00  0.00    -0.273 OA
ATOM      7  N   UNL     1     -32.731  28.738   3.114  0.00  0.00    -0.242 N 
ATOM      8  C   UNL     1     -33.229  27.924   2.020  0.00  0.00    +0.155 C 
ATOM      9  CA  UNL     1     -32.745  26.704   2.835  0.00  0.00    +0.179 C 
ATOM     10  C   UNL     1     -32.086  27.753   3.775  0.00  0.00    +0.251 C 
ATOM     11  CA  UNL     1     -32.967  30.070   3.231  0.00  0.00    +0.124 C 
ATOM     12  C   UNL     1     -34.881  29.940   1.569  0.00  0.00    +0.083 C 
ATOM     13  C   UNL     1     -33.926  30.686   2.500  0.00  0.00    -0.013 C 
ATOM     14  C   UNL     1     -34.194  32.172   2.514  0.00  0.00    +0.029 C 
BRANCH  11  16
ATOM     15  OXT UNL     1     -31.225  31.506   3.976  0.00  0.00    -0.244 OA
ATOM     16  C   UNL     1     -32.180  30.801   4.236  0.00  0.00    +0.351 C 
BRANCH  16  17
ATOM     17  O   UNL     1     -32.686  30.562   5.461  0.00  0.00    -0.476 OA
ATOM     18  H   UNL     1     -32.264  29.950   6.031  0.00  0.00    +0.295 HD
ENDBRANCH  16  17
ENDBRANCH  11  16
ENDBRANCH   2   9
BRANCH   3  20
ATOM     19  N   UNL     1     -35.016  23.783   5.012  0.00  0.00    -0.076 NA
ATOM     20  C   UNL     1     -35.313  24.057   3.778  0.00  0.00    +0.198 C 
BRANCH  20  24
ATOM     21  S   UNL     1     -39.022  23.696   2.520  0.00  0.00    -0.060 S 
ATOM     22  N   UNL     1     -36.842  22.362   2.906  0.00  0.00    -0.383 NA
ATOM     23  N   UNL     1     -38.651  21.106   2.045  0.00  0.00    -0.328 N 
ATOM     24  C   UNL     1     -36.631  23.662   3.270  0.00  0.00    +0.148 C 
ATOM     25  C   UNL     1     -37.665  24.539   3.142  0.00  0.00    +0.127 C 
ATOM     26  C   UNL     1     -38.083  22.259   2.488  0.00  0.00    +0.204 C 
ATOM     27  H   UNL     1     -39.589  21.102   1.747  0.00  0.00    +0.145 HD
ATOM     28  H   UNL     1     -38.123  20.275   2.022  0.00  0.00    +0.145 HD
ENDBRANCH  20  24
BRANCH  19  29
ATOM     29  O   UNL     1     -36.066  23.124   5.665  0.00  0.00    -0.373 OA
ATOM     30  C   UNL     1     -35.517  22.044   6.404  0.00  0.00    +0.288 C 
ENDBRANCH  19  29
ENDBRANCH   3  20
TORSDOF 6
ENDMDL
