MODEL 1
REMARK VINA RESULT:      -5.6      0.000      0.000
REMARK  Name = 57347393
REMARK  8 active torsions:
REMARK  status: ('A' for Active; 'I' for Inactive)
REMARK    1  A    between atoms: N_2  and  C_14
REMARK    2  A    between atoms: C_3  and  C_5
REMARK    3  A    between atoms: C_5  and  N_8
REMARK    4  A    between atoms: C_9  and  C_11
REMARK    5  A    between atoms: C_14  and  C_18
REMARK    6  A    between atoms: N_17  and  C_20
REMARK    7  A    between atoms: C_20  and  C_24
REMARK    8  A    between atoms: N_23  and  C_24
REMARK                            x       y       z     vdW  Elec       q    Type
REMARK                         _______ _______ _______ _____ _____    ______ ____
ROOT
ATOM      1  O   UNL     1     -36.966  24.844   4.645  0.00  0.00    -0.273 OA
ATOM      2  N   UNL     1     -34.803  24.747   5.479  0.00  0.00    -0.297 N 
ATOM      3  C   UNL     1     -36.000  24.197   5.043  0.00  0.00    +0.241 C 
ATOM      4  H   UNL     1     -34.086  24.142   5.779  0.00  0.00    +0.150 HD
ENDROOT
BRANCH   3   5
ATOM      5  C   UNL     1     -35.972  22.674   5.064  0.00  0.00    +0.149 C 
ATOM      6  C   UNL     1     -35.146  22.162   6.234  0.00  0.00    +0.031 C 
BRANCH   5   8
ATOM      7  O   UNL     1     -37.455  22.073   2.674  0.00  0.00    -0.275 OA
ATOM      8  N   UNL     1     -35.434  22.221   3.803  0.00  0.00    -0.298 N 
ATOM      9  C   UNL     1     -36.232  21.955   2.699  0.00  0.00    +0.222 C 
ATOM     10  H   UNL     1     -34.461  22.095   3.722  0.00  0.00    +0.150 HD
BRANCH   9  11
ATOM     11  C   UNL     1     -35.421  21.487   1.492  0.00  0.00    +0.077 C 
ATOM     12  C   UNL     1     -34.452  22.583   1.051  0.00  0.00    +0.010 C 
ATOM     13  C   UNL     1     -34.662  20.199   1.807  0.00  0.00    +0.010 C 
ENDBRANCH   9  11
ENDBRANCH   5   8
ENDBRANCH   3   5
BRANCH   2  14
ATOM     14  C   UNL     1     -34.566  26.172   5.512  0.00  0.00    +0.149 C 
ATOM     15  C   UNL     1     -33.378  26.515   6.397  0.00  0.00    +0.031 C 
BRANCH  14  18
ATOM     16  O   UNL     1     -33.387  26.264   3.396  0.00  0.00    -0.273 OA
ATOM     17  N   UNL     1     -35.286  27.567   3.677  0.00  0.00    -0.297 N 
ATOM     18  C   UNL     1     -34.334  26.642   4.082  0.00  0.00    +0.241 C 
ATOM     19  H   UNL     1     -36.008  27.806   4.301  0.00  0.00    +0.150 HD
BRANCH  17  20
ATOM     20  C   UNL     1     -35.258  28.196   2.376  0.00  0.00    +0.150 C 
ATOM     21  C   UNL     1     -36.400  27.695   1.501  0.00  0.00    +0.031 C 
BRANCH  20  23
ATOM     22  O   UNL     1     -36.127  30.356   1.860  0.00  0.00    -0.272 OA
ATOM     23  C   UNL     1     -35.323  29.732   2.588  0.00  0.00    +0.259 C 
BRANCH  23  24
ATOM     24  N   UNL     1     -34.510  30.156   3.511  0.00  0.00    -0.202 NA
ATOM     25  C   UNL     1     -33.497  31.139   3.139  0.00  0.00    +0.139 C 
ENDBRANCH  23  24
ENDBRANCH  20  23
ENDBRANCH  17  20
ENDBRANCH  14  18
ENDBRANCH   2  14
TORSDOF 8
ENDMDL
MODEL 2
REMARK VINA RESULT:      -5.6      1.816      4.138
REMARK  Name = 57347393
REMARK  8 active torsions:
REMARK  status: ('A' for Active; 'I' for Inactive)
REMARK    1  A    between atoms: N_2  and  C_14
REMARK    2  A    between atoms: C_3  and  C_5
REMARK    3  A    between atoms: C_5  and  N_8
REMARK    4  A    between atoms: C_9  and  C_11
REMARK    5  A    between atoms: C_14  and  C_18
REMARK    6  A    between atoms: N_17  and  C_20
REMARK    7  A    between atoms: C_20  and  C_24
REMARK    8  A    between atoms: N_23  and  C_24
REMARK                            x       y       z     vdW  Elec       q    Type
REMARK                         _______ _______ _______ _____ _____    ______ ____
ROOT
ATOM      1  O   UNL     1     -37.508  22.151   2.760  0.00  0.00    -0.273 OA
ATOM      2  N   UNL     1     -35.388  22.304   3.688  0.00  0.00    -0.297 N 
ATOM      3  C   UNL     1     -36.286  22.072   2.657  0.00  0.00    +0.241 C 
ATOM      4  H   UNL     1     -34.424  22.215   3.504  0.00  0.00    +0.150 HD
ENDROOT
BRANCH   3   5
ATOM      5  C   UNL     1     -35.582  21.752   1.345  0.00  0.00    +0.149 C 
ATOM      6  C   UNL     1     -36.543  21.864   0.171  0.00  0.00    +0.031 C 
BRANCH   5   8
ATOM      7  O   UNL     1     -33.020  20.866   0.385  0.00  0.00    -0.275 OA
ATOM      8  N   UNL     1     -35.032  20.420   1.448  0.00  0.00    -0.298 N 
ATOM      9  C   UNL     1     -33.780  20.085   0.953  0.00  0.00    +0.222 C 
ATOM     10  H   UNL     1     -35.568  19.721   1.888  0.00  0.00    +0.150 HD
BRANCH   9  11
ATOM     11  C   UNL     1     -33.435  18.615   1.185  0.00  0.00    +0.077 C 
ATOM     12  C   UNL     1     -34.137  17.740   0.148  0.00  0.00    +0.010 C 
ATOM     13  C   UNL     1     -31.925  18.392   1.138  0.00  0.00    +0.010 C 
ENDBRANCH   9  11
ENDBRANCH   5   8
ENDBRANCH   3   5
BRANCH   2  14
ATOM     14  C   UNL     1     -35.807  22.669   5.022  0.00  0.00    +0.149 C 
ATOM     15  C   UNL     1     -34.867  22.102   6.073  0.00  0.00    +0.031 C 
BRANCH  14  18
ATOM     16  O   UNL     1     -36.868  24.841   4.847  0.00  0.00    -0.273 OA
ATOM     17  N   UNL     1     -34.627  24.734   5.439  0.00  0.00    -0.297 N 
ATOM     18  C   UNL     1     -35.858  24.189   5.098  0.00  0.00    +0.241 C 
ATOM     19  H   UNL     1     -33.875  24.126   5.622  0.00  0.00    +0.150 HD
BRANCH  17  20
ATOM     20  C   UNL     1     -34.405  26.159   5.534  0.00  0.00    +0.150 C 
ATOM     21  C   UNL     1     -33.383  26.483   6.616  0.00  0.00    +0.031 C 
BRANCH  20  23
ATOM     22  O   UNL     1     -32.873  26.194   3.706  0.00  0.00    -0.272 OA
ATOM     23  C   UNL     1     -33.949  26.664   4.138  0.00  0.00    +0.259 C 
BRANCH  23  24
ATOM     24  N   UNL     1     -34.770  27.525   3.613  0.00  0.00    -0.202 NA
ATOM     25  C   UNL     1     -35.403  27.189   2.341  0.00  0.00    +0.139 C 
ENDBRANCH  23  24
ENDBRANCH  20  23
ENDBRANCH  17  20
ENDBRANCH  14  18
ENDBRANCH   2  14
TORSDOF 8
ENDMDL
MODEL 3
REMARK VINA RESULT:      -5.5      2.293      3.049
REMARK  Name = 57347393
REMARK  8 active torsions:
REMARK  status: ('A' for Active; 'I' for Inactive)
REMARK    1  A    between atoms: N_2  and  C_14
REMARK    2  A    between atoms: C_3  and  C_5
REMARK    3  A    between atoms: C_5  and  N_8
REMARK    4  A    between atoms: C_9  and  C_11
REMARK    5  A    between atoms: C_14  and  C_18
REMARK    6  A    between atoms: N_17  and  C_20
REMARK    7  A    between atoms: C_20  and  C_24
REMARK    8  A    between atoms: N_23  and  C_24
REMARK                            x       y       z     vdW  Elec       q    Type
REMARK                         _______ _______ _______ _____ _____    ______ ____
ROOT
ATOM      1  O   UNL     1     -37.320  23.596   3.692  0.00  0.00    -0.273 OA
ATOM      2  N   UNL     1     -35.209  24.091   4.517  0.00  0.00    -0.297 N 
ATOM      3  C   UNL     1     -36.239  23.235   4.153  0.00  0.00    +0.241 C 
ATOM      4  H   UNL     1     -34.378  23.703   4.878  0.00  0.00    +0.150 HD
ENDROOT
BRANCH   3   5
ATOM      5  C   UNL     1     -35.864  21.772   4.343  0.00  0.00    +0.149 C 
ATOM      6  C   UNL     1     -35.059  21.578   5.619  0.00  0.00    +0.031 C 
BRANCH   5   8
ATOM      7  O   UNL     1     -36.844  20.204   2.140  0.00  0.00    -0.275 OA
ATOM      8  N   UNL     1     -35.116  21.349   3.182  0.00  0.00    -0.298 N 
ATOM      9  C   UNL     1     -35.677  20.590   2.165  0.00  0.00    +0.222 C 
ATOM     10  H   UNL     1     -34.170  21.609   3.109  0.00  0.00    +0.150 HD
BRANCH   9  11
ATOM     11  C   UNL     1     -34.677  20.272   1.055  0.00  0.00    +0.077 C 
ATOM     12  C   UNL     1     -33.944  21.543   0.627  0.00  0.00    +0.010 C 
ATOM     13  C   UNL     1     -33.680  19.206   1.503  0.00  0.00    +0.010 C 
ENDBRANCH   9  11
ENDBRANCH   5   8
ENDBRANCH   3   5
BRANCH   2  14
ATOM     14  C   UNL     1     -35.304  25.526   4.389  0.00  0.00    +0.149 C 
ATOM     15  C   UNL     1     -35.939  26.151   5.621  0.00  0.00    +0.031 C 
BRANCH  14  18
ATOM     16  O   UNL     1     -33.047  25.479   3.507  0.00  0.00    -0.273 OA
ATOM     17  N   UNL     1     -33.699  27.279   4.820  0.00  0.00    -0.297 N 
ATOM     18  C   UNL     1     -33.900  26.072   4.164  0.00  0.00    +0.241 C 
ATOM     19  H   UNL     1     -34.447  27.674   5.322  0.00  0.00    +0.150 HD
BRANCH  17  20
ATOM     20  C   UNL     1     -32.434  27.977   4.797  0.00  0.00    +0.150 C 
ATOM     21  C   UNL     1     -32.560  29.315   4.078  0.00  0.00    +0.031 C 
BRANCH  20  23
ATOM     22  O   UNL     1     -32.559  27.468   7.123  0.00  0.00    -0.272 OA
ATOM     23  C   UNL     1     -31.959  28.152   6.264  0.00  0.00    +0.259 C 
BRANCH  23  24
ATOM     24  N   UNL     1     -30.988  29.008   6.389  0.00  0.00    -0.202 NA
ATOM     25  C   UNL     1     -29.617  28.509   6.339  0.00  0.00    +0.139 C 
ENDBRANCH  23  24
ENDBRANCH  20  23
ENDBRANCH  17  20
ENDBRANCH  14  18
ENDBRANCH   2  14
TORSDOF 8
ENDMDL
MODEL 4
REMARK VINA RESULT:      -5.5      2.430      4.127
REMARK  Name = 57347393
REMARK  8 active torsions:
REMARK  status: ('A' for Active; 'I' for Inactive)
REMARK    1  A    between atoms: N_2  and  C_14
REMARK    2  A    between atoms: C_3  and  C_5
REMARK    3  A    between atoms: C_5  and  N_8
REMARK    4  A    between atoms: C_9  and  C_11
REMARK    5  A    between atoms: C_14  and  C_18
REMARK    6  A    between atoms: N_17  and  C_20
REMARK    7  A    between atoms: C_20  and  C_24
REMARK    8  A    between atoms: N_23  and  C_24
REMARK                            x       y       z     vdW  Elec       q    Type
REMARK                         _______ _______ _______ _____ _____    ______ ____
ROOT
ATOM      1  O   UNL     1     -35.187  26.025   1.939  0.00  0.00    -0.273 OA
ATOM      2  N   UNL     1     -35.257  27.757   3.481  0.00  0.00    -0.297 N 
ATOM      3  C   UNL     1     -35.490  26.459   3.048  0.00  0.00    +0.241 C 
ATOM      4  H   UNL     1     -35.537  28.009   4.391  0.00  0.00    +0.150 HD
ENDROOT
BRANCH   3   5
ATOM      5  C   UNL     1     -36.127  25.599   4.131  0.00  0.00    +0.149 C 
ATOM      6  C   UNL     1     -36.002  26.262   5.495  0.00  0.00    +0.031 C 
BRANCH   5   8
ATOM      7  O   UNL     1     -37.355  23.066   3.541  0.00  0.00    -0.275 OA
ATOM      8  N   UNL     1     -35.481  24.308   4.114  0.00  0.00    -0.298 N 
ATOM      9  C   UNL     1     -36.159  23.134   3.815  0.00  0.00    +0.222 C 
ATOM     10  H   UNL     1     -34.520  24.258   4.321  0.00  0.00    +0.150 HD
BRANCH   9  11
ATOM     11  C   UNL     1     -35.251  21.907   3.868  0.00  0.00    +0.077 C 
ATOM     12  C   UNL     1     -35.162  21.380   5.299  0.00  0.00    +0.010 C 
ATOM     13  C   UNL     1     -35.750  20.814   2.926  0.00  0.00    +0.010 C 
ENDBRANCH   9  11
ENDBRANCH   5   8
ENDBRANCH   3   5
BRANCH   2  14
ATOM     14  C   UNL     1     -34.621  28.754   2.651  0.00  0.00    +0.149 C 
ATOM     15  C   UNL     1     -35.368  30.077   2.704  0.00  0.00    +0.031 C 
BRANCH  14  18
ATOM     16  O   UNL     1     -32.210  28.621   2.446  0.00  0.00    -0.273 OA
ATOM     17  N   UNL     1     -33.124  29.397   4.433  0.00  0.00    -0.297 N 
ATOM     18  C   UNL     1     -33.186  28.919   3.131  0.00  0.00    +0.241 C 
ATOM     19  H   UNL     1     -33.964  29.607   4.900  0.00  0.00    +0.150 HD
BRANCH  17  20
ATOM     20  C   UNL     1     -31.875  29.598   5.131  0.00  0.00    +0.150 C 
ATOM     21  C   UNL     1     -31.929  30.845   6.005  0.00  0.00    +0.031 C 
BRANCH  20  23
ATOM     22  O   UNL     1     -32.474  27.976   6.775  0.00  0.00    -0.272 OA
ATOM     23  C   UNL     1     -31.584  28.321   5.965  0.00  0.00    +0.259 C 
BRANCH  23  24
ATOM     24  N   UNL     1     -30.430  27.787   5.696  0.00  0.00    -0.202 NA
ATOM     25  C   UNL     1     -29.268  28.232   6.461  0.00  0.00    +0.139 C 
ENDBRANCH  23  24
ENDBRANCH  20  23
ENDBRANCH  17  20
ENDBRANCH  14  18
ENDBRANCH   2  14
TORSDOF 8
ENDMDL
MODEL 5
REMARK VINA RESULT:      -5.4      2.206      4.087
REMARK  Name = 57347393
REMARK  8 active torsions:
REMARK  status: ('A' for Active; 'I' for Inactive)
REMARK    1  A    between atoms: N_2  and  C_14
REMARK    2  A    between atoms: C_3  and  C_5
REMARK    3  A    between atoms: C_5  and  N_8
REMARK    4  A    between atoms: C_9  and  C_11
REMARK    5  A    between atoms: C_14  and  C_18
REMARK    6  A    between atoms: N_17  and  C_20
REMARK    7  A    between atoms: C_20  and  C_24
REMARK    8  A    between atoms: N_23  and  C_24
REMARK                            x       y       z     vdW  Elec       q    Type
REMARK                         _______ _______ _______ _____ _____    ______ ____
ROOT
ATOM      1  O   UNL     1     -33.382  26.297   3.443  0.00  0.00    -0.273 OA
ATOM      2  N   UNL     1     -35.303  27.566   3.726  0.00  0.00    -0.297 N 
ATOM      3  C   UNL     1     -34.347  26.641   4.121  0.00  0.00    +0.241 C 
ATOM      4  H   UNL     1     -36.042  27.775   4.343  0.00  0.00    +0.150 HD
ENDROOT
BRANCH   3   5
ATOM      5  C   UNL     1     -34.599  26.123   5.531  0.00  0.00    +0.149 C 
ATOM      6  C   UNL     1     -33.448  26.485   6.457  0.00  0.00    +0.031 C 
BRANCH   5   8
ATOM      7  O   UNL     1     -36.967  24.731   4.677  0.00  0.00    -0.275 OA
ATOM      8  N   UNL     1     -34.782  24.692   5.455  0.00  0.00    -0.298 N 
ATOM      9  C   UNL     1     -35.966  24.109   5.028  0.00  0.00    +0.222 C 
ATOM     10  H   UNL     1     -34.035  24.106   5.716  0.00  0.00    +0.150 HD
BRANCH   9  11
ATOM     11  C   UNL     1     -35.904  22.583   5.043  0.00  0.00    +0.077 C 
ATOM     12  C   UNL     1     -35.567  22.057   3.649  0.00  0.00    +0.010 C 
ATOM     13  C   UNL     1     -34.882  22.085   6.063  0.00  0.00    +0.010 C 
ENDBRANCH   9  11
ENDBRANCH   5   8
ENDBRANCH   3   5
BRANCH   2  14
ATOM     14  C   UNL     1     -35.260  28.233   2.445  0.00  0.00    +0.149 C 
ATOM     15  C   UNL     1     -36.464  27.870   1.591  0.00  0.00    +0.031 C 
BRANCH  14  18
ATOM     16  O   UNL     1     -34.538  30.239   3.599  0.00  0.00    -0.273 OA
ATOM     17  N   UNL     1     -36.029  30.439   1.832  0.00  0.00    -0.297 N 
ATOM     18  C   UNL     1     -35.207  29.734   2.700  0.00  0.00    +0.241 C 
ATOM     19  H   UNL     1     -36.526  29.942   1.143  0.00  0.00    +0.150 HD
BRANCH  17  20
ATOM     20  C   UNL     1     -36.185  31.874   1.900  0.00  0.00    +0.150 C 
ATOM     21  C   UNL     1     -35.135  32.581   1.052  0.00  0.00    +0.031 C 
BRANCH  20  23
ATOM     22  O   UNL     1     -38.334  31.254   1.071  0.00  0.00    -0.272 OA
ATOM     23  C   UNL     1     -37.627  32.218   1.439  0.00  0.00    +0.259 C 
BRANCH  23  24
ATOM     24  N   UNL     1     -37.894  33.490   1.500  0.00  0.00    -0.202 NA
ATOM     25  C   UNL     1     -39.292  33.898   1.588  0.00  0.00    +0.139 C 
ENDBRANCH  23  24
ENDBRANCH  20  23
ENDBRANCH  17  20
ENDBRANCH  14  18
ENDBRANCH   2  14
TORSDOF 8
ENDMDL
MODEL 6
REMARK VINA RESULT:      -5.3      3.051      5.113
REMARK  Name = 57347393
REMARK  8 active torsions:
REMARK  status: ('A' for Active; 'I' for Inactive)
REMARK    1  A    between atoms: N_2  and  C_14
REMARK    2  A    between atoms: C_3  and  C_5
REMARK    3  A    between atoms: C_5  and  N_8
REMARK    4  A    between atoms: C_9  and  C_11
REMARK    5  A    between atoms: C_14  and  C_18
REMARK    6  A    between atoms: N_17  and  C_20
REMARK    7  A    between atoms: C_20  and  C_24
REMARK    8  A    between atoms: N_23  and  C_24
REMARK                            x       y       z     vdW  Elec       q    Type
REMARK                         _______ _______ _______ _____ _____    ______ ____
ROOT
ATOM      1  O   UNL     1     -36.616  20.249   2.831  0.00  0.00    -0.273 OA
ATOM      2  N   UNL     1     -35.134  21.903   3.503  0.00  0.00    -0.297 N 
ATOM      3  C   UNL     1     -35.606  20.922   2.642  0.00  0.00    +0.241 C 
ATOM      4  H   UNL     1     -34.313  22.389   3.261  0.00  0.00    +0.150 HD
ENDROOT
BRANCH   3   5
ATOM      5  C   UNL     1     -34.749  20.800   1.389  0.00  0.00    +0.149 C 
ATOM      6  C   UNL     1     -35.609  20.849   0.135  0.00  0.00    +0.031 C 
BRANCH   5   8
ATOM      7  O   UNL     1     -32.104  20.297   0.376  0.00  0.00    -0.275 OA
ATOM      8  N   UNL     1     -34.011  19.561   1.472  0.00  0.00    -0.298 N 
ATOM      9  C   UNL     1     -32.734  19.412   0.952  0.00  0.00    +0.222 C 
ATOM     10  H   UNL     1     -34.432  18.790   1.917  0.00  0.00    +0.150 HD
BRANCH   9  11
ATOM     11  C   UNL     1     -32.177  18.006   1.167  0.00  0.00    +0.077 C 
ATOM     12  C   UNL     1     -32.977  16.993   0.350  0.00  0.00    +0.010 C 
ATOM     13  C   UNL     1     -30.697  17.939   0.797  0.00  0.00    +0.010 C 
ENDBRANCH   9  11
ENDBRANCH   5   8
ENDBRANCH   3   5
BRANCH   2  14
ATOM     14  C   UNL     1     -35.799  22.239   4.741  0.00  0.00    +0.149 C 
ATOM     15  C   UNL     1     -34.973  21.815   5.945  0.00  0.00    +0.031 C 
BRANCH  14  18
ATOM     16  O   UNL     1     -35.495  24.507   5.541  0.00  0.00    -0.273 OA
ATOM     17  N   UNL     1     -36.976  24.125   3.796  0.00  0.00    -0.297 N 
ATOM     18  C   UNL     1     -36.042  23.743   4.749  0.00  0.00    +0.241 C 
ATOM     19  H   UNL     1     -37.359  23.436   3.207  0.00  0.00    +0.150 HD
BRANCH  17  20
ATOM     20  C   UNL     1     -37.411  25.493   3.635  0.00  0.00    +0.150 C 
ATOM     21  C   UNL     1     -36.471  26.262   2.715  0.00  0.00    +0.031 C 
BRANCH  20  23
ATOM     22  O   UNL     1     -39.272  26.530   2.563  0.00  0.00    -0.272 OA
ATOM     23  C   UNL     1     -38.863  25.471   3.088  0.00  0.00    +0.259 C 
BRANCH  23  24
ATOM     24  N   UNL     1     -39.459  24.328   3.266  0.00  0.00    -0.202 NA
ATOM     25  C   UNL     1     -40.043  23.666   2.103  0.00  0.00    +0.139 C 
ENDBRANCH  23  24
ENDBRANCH  20  23
ENDBRANCH  17  20
ENDBRANCH  14  18
ENDBRANCH   2  14
TORSDOF 8
ENDMDL
MODEL 7
REMARK VINA RESULT:      -5.3      4.003      9.268
REMARK  Name = 57347393
REMARK  8 active torsions:
REMARK  status: ('A' for Active; 'I' for Inactive)
REMARK    1  A    between atoms: N_2  and  C_14
REMARK    2  A    between atoms: C_3  and  C_5
REMARK    3  A    between atoms: C_5  and  N_8
REMARK    4  A    between atoms: C_9  and  C_11
REMARK    5  A    between atoms: C_14  and  C_18
REMARK    6  A    between atoms: N_17  and  C_20
REMARK    7  A    between atoms: C_20  and  C_24
REMARK    8  A    between atoms: N_23  and  C_24
REMARK                            x       y       z     vdW  Elec       q    Type
REMARK                         _______ _______ _______ _____ _____    ______ ____
ROOT
ATOM      1  O   UNL     1     -35.416  20.191   2.803  0.00  0.00    -0.273 OA
ATOM      2  N   UNL     1     -36.437  20.446   0.736  0.00  0.00    -0.297 N 
ATOM      3  C   UNL     1     -35.893  20.908   1.926  0.00  0.00    +0.241 C 
ATOM      4  H   UNL     1     -36.795  21.103   0.095  0.00  0.00    +0.150 HD
ENDROOT
BRANCH   3   5
ATOM      5  C   UNL     1     -35.905  22.428   2.011  0.00  0.00    +0.149 C 
ATOM      6  C   UNL     1     -35.010  23.039   0.944  0.00  0.00    +0.031 C 
BRANCH   5   8
ATOM      7  O   UNL     1     -37.472  23.764   4.019  0.00  0.00    -0.275 OA
ATOM      8  N   UNL     1     -35.474  22.805   3.337  0.00  0.00    -0.298 N 
ATOM      9  C   UNL     1     -36.305  23.449   4.242  0.00  0.00    +0.222 C 
ATOM     10  H   UNL     1     -34.552  22.595   3.611  0.00  0.00    +0.150 HD
BRANCH   9  11
ATOM     11  C   UNL     1     -35.608  23.739   5.570  0.00  0.00    +0.077 C 
ATOM     12  C   UNL     1     -35.180  22.433   6.236  0.00  0.00    +0.010 C 
ATOM     13  C   UNL     1     -34.404  24.656   5.369  0.00  0.00    +0.010 C 
ENDBRANCH   9  11
ENDBRANCH   5   8
ENDBRANCH   3   5
BRANCH   2  14
ATOM     14  C   UNL     1     -36.502  19.043   0.400  0.00  0.00    +0.149 C 
ATOM     15  C   UNL     1     -37.696  18.741  -0.491  0.00  0.00    +0.031 C 
BRANCH  14  18
ATOM     16  O   UNL     1     -34.999  18.843  -1.491  0.00  0.00    -0.273 OA
ATOM     17  N   UNL     1     -34.299  18.069   0.581  0.00  0.00    -0.297 N 
ATOM     18  C   UNL     1     -35.198  18.666  -0.292  0.00  0.00    +0.241 C 
ATOM     19  H   UNL     1     -34.552  17.973   1.527  0.00  0.00    +0.150 HD
BRANCH  17  20
ATOM     20  C   UNL     1     -33.006  17.582   0.157  0.00  0.00    +0.150 C 
ATOM     21  C   UNL     1     -31.910  18.029   1.116  0.00  0.00    +0.031 C 
BRANCH  20  23
ATOM     22  O   UNL     1     -34.221  15.559  -0.188  0.00  0.00    -0.272 OA
ATOM     23  C   UNL     1     -33.090  16.036   0.055  0.00  0.00    +0.259 C 
BRANCH  23  24
ATOM     24  N   UNL     1     -31.946  15.448   0.247  0.00  0.00    -0.202 NA
ATOM     25  C   UNL     1     -31.571  14.358  -0.648  0.00  0.00    +0.139 C 
ENDBRANCH  23  24
ENDBRANCH  20  23
ENDBRANCH  17  20
ENDBRANCH  14  18
ENDBRANCH   2  14
TORSDOF 8
ENDMDL
MODEL 8
REMARK VINA RESULT:      -5.3      2.625      6.197
REMARK  Name = 57347393
REMARK  8 active torsions:
REMARK  status: ('A' for Active; 'I' for Inactive)
REMARK    1  A    between atoms: N_2  and  C_14
REMARK    2  A    between atoms: C_3  and  C_5
REMARK    3  A    between atoms: C_5  and  N_8
REMARK    4  A    between atoms: C_9  and  C_11
REMARK    5  A    between atoms: C_14  and  C_18
REMARK    6  A    between atoms: N_17  and  C_20
REMARK    7  A    between atoms: C_20  and  C_24
REMARK    8  A    between atoms: N_23  and  C_24
REMARK                            x       y       z     vdW  Elec       q    Type
REMARK                         _______ _______ _______ _____ _____    ______ ____
ROOT
ATOM      1  O   UNL     1     -33.366  24.563   4.346  0.00  0.00    -0.273 OA
ATOM      2  N   UNL     1     -35.219  23.648   5.400  0.00  0.00    -0.297 N 
ATOM      3  C   UNL     1     -34.361  24.683   5.059  0.00  0.00    +0.241 C 
ATOM      4  H   UNL     1     -35.992  23.846   5.979  0.00  0.00    +0.150 HD
ENDROOT
BRANCH   3   5
ATOM      5  C   UNL     1     -34.817  26.019   5.630  0.00  0.00    +0.149 C 
ATOM      6  C   UNL     1     -36.252  26.321   5.228  0.00  0.00    +0.031 C 
BRANCH   5   8
ATOM      7  O   UNL     1     -32.435  26.957   6.941  0.00  0.00    -0.275 OA
ATOM      8  N   UNL     1     -33.912  27.040   5.155  0.00  0.00    -0.298 N 
ATOM      9  C   UNL     1     -32.782  27.428   5.860  0.00  0.00    +0.222 C 
ATOM     10  H   UNL     1     -34.105  27.478   4.295  0.00  0.00    +0.150 HD
BRANCH   9  11
ATOM     11  C   UNL     1     -31.997  28.526   5.145  0.00  0.00    +0.077 C 
ATOM     12  C   UNL     1     -32.695  28.907   3.840  0.00  0.00    +0.010 C 
ATOM     13  C   UNL     1     -31.830  29.752   6.039  0.00  0.00    +0.010 C 
ENDBRANCH   9  11
ENDBRANCH   5   8
ENDBRANCH   3   5
BRANCH   2  14
ATOM     14  C   UNL     1     -35.026  22.291   4.944  0.00  0.00    +0.149 C 
ATOM     15  C   UNL     1     -35.597  21.288   5.934  0.00  0.00    +0.031 C 
BRANCH  14  18
ATOM     16  O   UNL     1     -35.171  21.576   2.633  0.00  0.00    -0.273 OA
ATOM     17  N   UNL     1     -36.927  22.792   3.541  0.00  0.00    -0.297 N 
ATOM     18  C   UNL     1     -35.695  22.154   3.583  0.00  0.00    +0.241 C 
ATOM     19  H   UNL     1     -37.261  23.229   4.357  0.00  0.00    +0.150 HD
BRANCH  17  20
ATOM     20  C   UNL     1     -37.738  22.843   2.346  0.00  0.00    +0.150 C 
ATOM     21  C   UNL     1     -38.745  21.699   2.318  0.00  0.00    +0.031 C 
BRANCH  20  23
ATOM     22  O   UNL     1     -38.385  24.839   1.212  0.00  0.00    -0.272 OA
ATOM     23  C   UNL     1     -38.437  24.228   2.303  0.00  0.00    +0.259 C 
BRANCH  23  24
ATOM     24  N   UNL     1     -38.982  24.561   3.436  0.00  0.00    -0.202 NA
ATOM     25  C   UNL     1     -40.255  25.275   3.406  0.00  0.00    +0.139 C 
ENDBRANCH  23  24
ENDBRANCH  20  23
ENDBRANCH  17  20
ENDBRANCH  14  18
ENDBRANCH   2  14
TORSDOF 8
ENDMDL
MODEL 9
REMARK VINA RESULT:      -5.2      2.058      7.152
REMARK  Name = 57347393
REMARK  8 active torsions:
REMARK  status: ('A' for Active; 'I' for Inactive)
REMARK    1  A    between atoms: N_2  and  C_14
REMARK    2  A    between atoms: C_3  and  C_5
REMARK    3  A    between atoms: C_5  and  N_8
REMARK    4  A    between atoms: C_9  and  C_11
REMARK    5  A    between atoms: C_14  and  C_18
REMARK    6  A    between atoms: N_17  and  C_20
REMARK    7  A    between atoms: C_20  and  C_24
REMARK    8  A    between atoms: N_23  and  C_24
REMARK                            x       y       z     vdW  Elec       q    Type
REMARK                         _______ _______ _______ _____ _____    ______ ____
ROOT
ATOM      1  O   UNL     1     -33.589  25.187   2.929  0.00  0.00    -0.273 OA
ATOM      2  N   UNL     1     -34.947  24.858   4.782  0.00  0.00    -0.297 N 
ATOM      3  C   UNL     1     -34.271  25.633   3.849  0.00  0.00    +0.241 C 
ATOM      4  H   UNL     1     -35.469  25.312   5.483  0.00  0.00    +0.150 HD
ENDROOT
BRANCH   3   5
ATOM      5  C   UNL     1     -34.509  27.122   4.061  0.00  0.00    +0.149 C 
ATOM      6  C   UNL     1     -35.023  27.778   2.789  0.00  0.00    +0.031 C 
BRANCH   5   8
ATOM      7  O   UNL     1     -33.301  26.898   6.662  0.00  0.00    -0.275 OA
ATOM      8  N   UNL     1     -33.264  27.716   4.492  0.00  0.00    -0.298 N 
ATOM      9  C   UNL     1     -32.759  27.551   5.773  0.00  0.00    +0.222 C 
ATOM     10  H   UNL     1     -32.753  28.259   3.849  0.00  0.00    +0.150 HD
BRANCH   9  11
ATOM     11  C   UNL     1     -31.432  28.282   5.975  0.00  0.00    +0.077 C 
ATOM     12  C   UNL     1     -30.775  28.562   4.625  0.00  0.00    +0.010 C 
ATOM     13  C   UNL     1     -31.635  29.582   6.750  0.00  0.00    +0.010 C 
ENDBRANCH   9  11
ENDBRANCH   5   8
ENDBRANCH   3   5
BRANCH   2  14
ATOM     14  C   UNL     1     -34.915  23.415   4.767  0.00  0.00    +0.149 C 
ATOM     15  C   UNL     1     -35.288  22.838   6.123  0.00  0.00    +0.031 C 
BRANCH  14  18
ATOM     16  O   UNL     1     -37.098  22.991   3.804  0.00  0.00    -0.273 OA
ATOM     17  N   UNL     1     -35.209  22.398   2.596  0.00  0.00    -0.297 N 
ATOM     18  C   UNL     1     -35.876  22.935   3.687  0.00  0.00    +0.241 C 
ATOM     19  H   UNL     1     -34.224  22.399   2.596  0.00  0.00    +0.150 HD
BRANCH  17  20
ATOM     20  C   UNL     1     -35.900  21.835   1.458  0.00  0.00    +0.150 C 
ATOM     21  C   UNL     1     -35.322  22.360   0.150  0.00  0.00    +0.031 C 
BRANCH  20  23
ATOM     22  O   UNL     1     -36.720  19.639   1.016  0.00  0.00    -0.272 OA
ATOM     23  C   UNL     1     -35.796  20.289   1.556  0.00  0.00    +0.259 C 
BRANCH  23  24
ATOM     24  N   UNL     1     -34.743  19.887   2.203  0.00  0.00    -0.202 NA
ATOM     25  C   UNL     1     -33.702  19.183   1.460  0.00  0.00    +0.139 C 
ENDBRANCH  23  24
ENDBRANCH  20  23
ENDBRANCH  17  20
ENDBRANCH  14  18
ENDBRANCH   2  14
TORSDOF 8
ENDMDL
