MODEL 1
REMARK VINA RESULT:      -6.6      0.000      0.000
REMARK  Name = 193428
REMARK  5 active torsions:
REMARK  status: ('A' for Active; 'I' for Inactive)
REMARK    1  A    between atoms: N_2  and  C1*_15
REMARK    2  A    between atoms: C2*_14  and  O2*_18
REMARK    3  A    between atoms: C3*_16  and  O3*_20
REMARK    4  A    between atoms: C4*_17  and  C5*_22
REMARK    5  A    between atoms: C5*_22  and  O5*_23
REMARK                            x       y       z     vdW  Elec       q    Type
REMARK                         _______ _______ _______ _____ _____    ______ ____
ROOT
ATOM      1  O   UNL     1     -40.433  21.190   1.186  0.00  0.00    -0.221 OA
ATOM      2  N   UNL     1     -37.284  23.198   2.884  0.00  0.00    -0.249 N 
ATOM      3  N   UNL     1     -35.954  21.223   2.327  0.00  0.00    -0.303 N 
ATOM      4  N   UNL     1     -37.640  20.095   1.391  0.00  0.00    -0.305 N 
ATOM      5  N   UNL     1     -39.636  23.079   2.250  0.00  0.00    -0.179 NA
ATOM      6  C   UNL     1     -37.104  21.957   2.367  0.00  0.00    +0.126 C 
ATOM      7  C   UNL     1     -38.591  23.657   2.773  0.00  0.00    +0.235 C 
ATOM      8  C   UNL     1     -38.164  21.289   1.800  0.00  0.00    +0.158 C 
ATOM      9  C   UNL     1     -39.505  21.805   1.699  0.00  0.00    +0.168 C 
ATOM     10  C   UNL     1     -36.310  20.103   1.731  0.00  0.00    +0.183 C 
ATOM     11  H   UNL     1     -35.063  21.473   2.665  0.00  0.00    +0.150 HD
ATOM     12  H   UNL     1     -38.125  19.368   0.939  0.00  0.00    +0.149 HD
ENDROOT
BRANCH   2  15
ATOM     13  O4* UNL     1     -35.218  22.992   3.955  0.00  0.00    -0.333 OA
ATOM     14  C2* UNL     1     -36.663  24.706   4.721  0.00  0.00    +0.187 C 
ATOM     15  C1* UNL     1     -36.210  23.925   3.499  0.00  0.00    +0.225 C 
ATOM     16  C3* UNL     1     -35.410  24.714   5.571  0.00  0.00    +0.171 C 
ATOM     17  C4* UNL     1     -34.839  23.327   5.308  0.00  0.00    +0.175 C 
BRANCH  14  18
ATOM     18  O2* UNL     1     -37.101  26.010   4.398  0.00  0.00    -0.378 OA
ATOM     19  H2* UNL     1     -37.238  26.516   5.214  0.00  0.00    +0.211 HD
ENDBRANCH  14  18
BRANCH  16  20
ATOM     20  O3* UNL     1     -34.479  25.675   5.073  0.00  0.00    -0.379 OA
ATOM     21  H3* UNL     1     -34.958  26.465   4.779  0.00  0.00    +0.211 HD
ENDBRANCH  16  20
BRANCH  17  22
ATOM     22  C5* UNL     1     -35.401  22.259   6.236  0.00  0.00    +0.169 C 
BRANCH  22  23
ATOM     23  O5* UNL     1     -35.342  21.006   5.575  0.00  0.00    -0.379 OA
ATOM     24  H5* UNL     1     -34.781  21.083   4.788  0.00  0.00    +0.211 HD
ENDBRANCH  22  23
ENDBRANCH  17  22
ENDBRANCH   2  15
TORSDOF 5
ENDMDL
MODEL 2
REMARK VINA RESULT:      -5.9      1.449      2.711
REMARK  Name = 193428
REMARK  5 active torsions:
REMARK  status: ('A' for Active; 'I' for Inactive)
REMARK    1  A    between atoms: N_2  and  C1*_15
REMARK    2  A    between atoms: C2*_14  and  O2*_18
REMARK    3  A    between atoms: C3*_16  and  O3*_20
REMARK    4  A    between atoms: C4*_17  and  C5*_22
REMARK    5  A    between atoms: C5*_22  and  O5*_23
REMARK                            x       y       z     vdW  Elec       q    Type
REMARK                         _______ _______ _______ _____ _____    ______ ____
ROOT
ATOM      1  O   UNL     1     -40.671  22.627   0.992  0.00  0.00    -0.221 OA
ATOM      2  N   UNL     1     -37.299  23.934   2.929  0.00  0.00    -0.249 N 
ATOM      3  N   UNL     1     -37.922  26.162   2.137  0.00  0.00    -0.303 N 
ATOM      4  N   UNL     1     -39.769  25.494   1.071  0.00  0.00    -0.305 N 
ATOM      5  N   UNL     1     -38.807  22.136   2.264  0.00  0.00    -0.179 NA
ATOM      6  C   UNL     1     -38.091  24.814   2.267  0.00  0.00    +0.126 C 
ATOM      7  C   UNL     1     -37.752  22.622   2.857  0.00  0.00    +0.235 C 
ATOM      8  C   UNL     1     -39.220  24.369   1.619  0.00  0.00    +0.158 C 
ATOM      9  C   UNL     1     -39.659  22.997   1.575  0.00  0.00    +0.168 C 
ATOM     10  C   UNL     1     -38.952  26.544   1.409  0.00  0.00    +0.183 C 
ATOM     11  H   UNL     1     -37.198  26.720   2.503  0.00  0.00    +0.150 HD
ATOM     12  H   UNL     1     -40.593  25.542   0.535  0.00  0.00    +0.149 HD
ENDROOT
BRANCH   2  15
ATOM     13  O4* UNL     1     -35.285  23.199   3.858  0.00  0.00    -0.333 OA
ATOM     14  C2* UNL     1     -36.390  24.984   4.955  0.00  0.00    +0.187 C 
ATOM     15  C1* UNL     1     -36.104  24.351   3.604  0.00  0.00    +0.225 C 
ATOM     16  C3* UNL     1     -35.142  24.634   5.737  0.00  0.00    +0.171 C 
ATOM     17  C4* UNL     1     -34.830  23.233   5.228  0.00  0.00    +0.175 C 
BRANCH  14  18
ATOM     18  O2* UNL     1     -36.595  26.380   4.867  0.00  0.00    -0.378 OA
ATOM     19  H2* UNL     1     -36.379  26.683   3.971  0.00  0.00    +0.211 HD
ENDBRANCH  14  18
BRANCH  16  20
ATOM     20  O3* UNL     1     -34.064  25.490   5.358  0.00  0.00    -0.379 OA
ATOM     21  H3* UNL     1     -33.247  24.971   5.301  0.00  0.00    +0.211 HD
ENDBRANCH  16  20
BRANCH  17  22
ATOM     22  C5* UNL     1     -35.558  22.138   5.997  0.00  0.00    +0.169 C 
BRANCH  22  23
ATOM     23  O5* UNL     1     -35.153  20.880   5.487  0.00  0.00    -0.379 OA
ATOM     24  H5* UNL     1     -35.760  20.607   4.781  0.00  0.00    +0.211 HD
ENDBRANCH  22  23
ENDBRANCH  17  22
ENDBRANCH   2  15
TORSDOF 5
ENDMDL
MODEL 3
REMARK VINA RESULT:      -5.8      2.484      5.358
REMARK  Name = 193428
REMARK  5 active torsions:
REMARK  status: ('A' for Active; 'I' for Inactive)
REMARK    1  A    between atoms: N_2  and  C1*_15
REMARK    2  A    between atoms: C2*_14  and  O2*_18
REMARK    3  A    between atoms: C3*_16  and  O3*_20
REMARK    4  A    between atoms: C4*_17  and  C5*_22
REMARK    5  A    between atoms: C5*_22  and  O5*_23
REMARK                            x       y       z     vdW  Elec       q    Type
REMARK                         _______ _______ _______ _____ _____    ______ ____
ROOT
ATOM      1  O   UNL     1     -35.405  25.851   4.330  0.00  0.00    -0.221 OA
ATOM      2  N   UNL     1     -35.988  22.030   2.954  0.00  0.00    -0.249 N 
ATOM      3  N   UNL     1     -35.565  21.326   5.257  0.00  0.00    -0.303 N 
ATOM      4  N   UNL     1     -35.243  23.390   6.049  0.00  0.00    -0.305 N 
ATOM      5  N   UNL     1     -35.871  24.435   2.566  0.00  0.00    -0.179 NA
ATOM      6  C   UNL     1     -35.701  22.249   4.262  0.00  0.00    +0.126 C 
ATOM      7  C   UNL     1     -36.044  23.196   2.200  0.00  0.00    +0.235 C 
ATOM      8  C   UNL     1     -35.506  23.533   4.716  0.00  0.00    +0.158 C 
ATOM      9  C   UNL     1     -35.580  24.717   3.899  0.00  0.00    +0.168 C 
ATOM     10  C   UNL     1     -35.288  22.046   6.326  0.00  0.00    +0.183 C 
ATOM     11  H   UNL     1     -35.654  20.347   5.192  0.00  0.00    +0.150 HD
ATOM     12  H   UNL     1     -35.055  24.113   6.689  0.00  0.00    +0.149 HD
ENDROOT
BRANCH   2  15
ATOM     13  O4* UNL     1     -34.908  20.054   2.332  0.00  0.00    -0.333 OA
ATOM     14  C2* UNL     1     -36.778  20.715   1.036  0.00  0.00    +0.187 C 
ATOM     15  C1* UNL     1     -36.183  20.708   2.434  0.00  0.00    +0.225 C 
ATOM     16  C3* UNL     1     -36.201  19.447   0.442  0.00  0.00    +0.171 C 
ATOM     17  C4* UNL     1     -34.799  19.427   1.035  0.00  0.00    +0.175 C 
BRANCH  14  18
ATOM     18  O2* UNL     1     -38.191  20.708   1.048  0.00  0.00    -0.378 OA
ATOM     19  H2* UNL     1     -38.521  20.644   0.138  0.00  0.00    +0.211 HD
ENDBRANCH  14  18
BRANCH  16  20
ATOM     20  O3* UNL     1     -36.903  18.306   0.934  0.00  0.00    -0.379 OA
ATOM     21  H3* UNL     1     -37.583  18.045   0.294  0.00  0.00    +0.211 HD
ENDBRANCH  16  20
BRANCH  17  22
ATOM     22  C5* UNL     1     -33.786  20.213   0.213  0.00  0.00    +0.169 C 
BRANCH  22  23
ATOM     23  O5* UNL     1     -32.487  19.935   0.707  0.00  0.00    -0.379 OA
ATOM     24  H5* UNL     1     -31.856  19.925  -0.030  0.00  0.00    +0.211 HD
ENDBRANCH  22  23
ENDBRANCH  17  22
ENDBRANCH   2  15
TORSDOF 5
ENDMDL
MODEL 4
REMARK VINA RESULT:      -5.7      3.435      6.091
REMARK  Name = 193428
REMARK  5 active torsions:
REMARK  status: ('A' for Active; 'I' for Inactive)
REMARK    1  A    between atoms: N_2  and  C1*_15
REMARK    2  A    between atoms: C2*_14  and  O2*_18
REMARK    3  A    between atoms: C3*_16  and  O3*_20
REMARK    4  A    between atoms: C4*_17  and  C5*_22
REMARK    5  A    between atoms: C5*_22  and  O5*_23
REMARK                            x       y       z     vdW  Elec       q    Type
REMARK                         _______ _______ _______ _____ _____    ______ ____
ROOT
ATOM      1  O   UNL     1     -31.898  28.644   5.338  0.00  0.00    -0.221 OA
ATOM      2  N   UNL     1     -34.777  25.846   4.491  0.00  0.00    -0.249 N 
ATOM      3  N   UNL     1     -34.978  26.967   2.326  0.00  0.00    -0.303 N 
ATOM      4  N   UNL     1     -33.415  28.507   2.745  0.00  0.00    -0.305 N 
ATOM      5  N   UNL     1     -33.133  26.812   6.011  0.00  0.00    -0.179 NA
ATOM      6  C   UNL     1     -34.452  26.792   3.574  0.00  0.00    +0.126 C 
ATOM      7  C   UNL     1     -34.056  25.955   5.674  0.00  0.00    +0.235 C 
ATOM      8  C   UNL     1     -33.487  27.728   3.864  0.00  0.00    +0.158 C 
ATOM      9  C   UNL     1     -32.756  27.801   5.104  0.00  0.00    +0.168 C 
ATOM     10  C   UNL     1     -34.330  28.011   1.851  0.00  0.00    +0.183 C 
ATOM     11  H   UNL     1     -35.679  26.435   1.884  0.00  0.00    +0.150 HD
ATOM     12  H   UNL     1     -32.820  29.279   2.607  0.00  0.00    +0.149 HD
ENDROOT
BRANCH   2  15
ATOM     13  O4* UNL     1     -36.158  24.241   5.478  0.00  0.00    -0.333 OA
ATOM     14  C2* UNL     1     -35.301  23.748   3.325  0.00  0.00    +0.187 C 
ATOM     15  C1* UNL     1     -35.789  24.862   4.236  0.00  0.00    +0.225 C 
ATOM     16  C3* UNL     1     -36.125  22.570   3.799  0.00  0.00    +0.171 C 
ATOM     17  C4* UNL     1     -36.185  22.808   5.302  0.00  0.00    +0.175 C 
BRANCH  14  18
ATOM     18  O2* UNL     1     -35.512  24.035   1.958  0.00  0.00    -0.378 OA
ATOM     19  H2* UNL     1     -36.434  24.303   1.822  0.00  0.00    +0.211 HD
ENDBRANCH  14  18
BRANCH  16  20
ATOM     20  O3* UNL     1     -37.455  22.657   3.287  0.00  0.00    -0.379 OA
ATOM     21  H3* UNL     1     -38.087  22.587   4.019  0.00  0.00    +0.211 HD
ENDBRANCH  16  20
BRANCH  17  22
ATOM     22  C5* UNL     1     -35.000  22.216   6.054  0.00  0.00    +0.169 C 
BRANCH  22  23
ATOM     23  O5* UNL     1     -35.032  20.806   5.913  0.00  0.00    -0.379 OA
ATOM     24  H5* UNL     1     -34.147  20.485   5.679  0.00  0.00    +0.211 HD
ENDBRANCH  22  23
ENDBRANCH  17  22
ENDBRANCH   2  15
TORSDOF 5
ENDMDL
MODEL 5
REMARK VINA RESULT:      -5.7      2.758      4.449
REMARK  Name = 193428
REMARK  5 active torsions:
REMARK  status: ('A' for Active; 'I' for Inactive)
REMARK    1  A    between atoms: N_2  and  C1*_15
REMARK    2  A    between atoms: C2*_14  and  O2*_18
REMARK    3  A    between atoms: C3*_16  and  O3*_20
REMARK    4  A    between atoms: C4*_17  and  C5*_22
REMARK    5  A    between atoms: C5*_22  and  O5*_23
REMARK                            x       y       z     vdW  Elec       q    Type
REMARK                         _______ _______ _______ _____ _____    ______ ____
ROOT
ATOM      1  O   UNL     1     -35.858  20.261   2.634  0.00  0.00    -0.221 OA
ATOM      2  N   UNL     1     -34.808  24.108   3.601  0.00  0.00    -0.249 N 
ATOM      3  N   UNL     1     -35.106  23.416   5.928  0.00  0.00    -0.303 N 
ATOM      4  N   UNL     1     -35.679  21.311   5.447  0.00  0.00    -0.305 N 
ATOM      5  N   UNL     1     -35.238  22.375   1.940  0.00  0.00    -0.179 NA
ATOM      6  C   UNL     1     -35.103  23.214   4.578  0.00  0.00    +0.126 C 
ATOM      7  C   UNL     1     -34.912  23.578   2.320  0.00  0.00    +0.235 C 
ATOM      8  C   UNL     1     -35.455  21.926   4.247  0.00  0.00    +0.158 C 
ATOM      9  C   UNL     1     -35.545  21.415   2.903  0.00  0.00    +0.168 C 
ATOM     10  C   UNL     1     -35.458  22.248   6.425  0.00  0.00    +0.183 C 
ATOM     11  H   UNL     1     -34.893  24.244   6.417  0.00  0.00    +0.150 HD
ATOM     12  H   UNL     1     -35.950  20.375   5.582  0.00  0.00    +0.149 HD
ENDROOT
BRANCH   2  15
ATOM     13  O4* UNL     1     -35.649  26.257   3.965  0.00  0.00    -0.333 OA
ATOM     14  C2* UNL     1     -33.580  26.088   2.823  0.00  0.00    +0.187 C 
ATOM     15  C1* UNL     1     -34.452  25.465   3.900  0.00  0.00    +0.225 C 
ATOM     16  C3* UNL     1     -33.965  27.549   2.912  0.00  0.00    +0.171 C 
ATOM     17  C4* UNL     1     -35.458  27.468   3.201  0.00  0.00    +0.175 C 
BRANCH  14  18
ATOM     18  O2* UNL     1     -32.202  25.881   3.054  0.00  0.00    -0.378 OA
ATOM     19  H2* UNL     1     -31.725  25.902   2.210  0.00  0.00    +0.211 HD
ENDBRANCH  14  18
BRANCH  16  20
ATOM     20  O3* UNL     1     -33.333  28.160   4.037  0.00  0.00    -0.379 OA
ATOM     21  H3* UNL     1     -33.392  27.567   4.801  0.00  0.00    +0.211 HD
ENDBRANCH  16  20
BRANCH  17  22
ATOM     22  C5* UNL     1     -36.311  27.373   1.943  0.00  0.00    +0.169 C 
BRANCH  22  23
ATOM     23  O5* UNL     1     -37.622  26.981   2.311  0.00  0.00    -0.379 OA
ATOM     24  H5* UNL     1     -37.706  27.000   3.277  0.00  0.00    +0.211 HD
ENDBRANCH  22  23
ENDBRANCH  17  22
ENDBRANCH   2  15
TORSDOF 5
ENDMDL
MODEL 6
REMARK VINA RESULT:      -5.6      2.038      3.143
REMARK  Name = 193428
REMARK  5 active torsions:
REMARK  status: ('A' for Active; 'I' for Inactive)
REMARK    1  A    between atoms: N_2  and  C1*_15
REMARK    2  A    between atoms: C2*_14  and  O2*_18
REMARK    3  A    between atoms: C3*_16  and  O3*_20
REMARK    4  A    between atoms: C4*_17  and  C5*_22
REMARK    5  A    between atoms: C5*_22  and  O5*_23
REMARK                            x       y       z     vdW  Elec       q    Type
REMARK                         _______ _______ _______ _____ _____    ______ ____
ROOT
ATOM      1  O   UNL     1     -37.417  24.156  -1.559  0.00  0.00    -0.221 OA
ATOM      2  N   UNL     1     -36.984  23.210   2.410  0.00  0.00    -0.249 N 
ATOM      3  N   UNL     1     -38.116  21.115   1.852  0.00  0.00    -0.303 N 
ATOM      4  N   UNL     1     -38.371  21.588  -0.316  0.00  0.00    -0.305 N 
ATOM      5  N   UNL     1     -36.672  24.750   0.545  0.00  0.00    -0.179 NA
ATOM      6  C   UNL     1     -37.590  22.341   1.563  0.00  0.00    +0.126 C 
ATOM      7  C   UNL     1     -36.569  24.383   1.792  0.00  0.00    +0.235 C 
ATOM      8  C   UNL     1     -37.733  22.664   0.233  0.00  0.00    +0.158 C 
ATOM      9  C   UNL     1     -37.280  23.892  -0.370  0.00  0.00    +0.168 C 
ATOM     10  C   UNL     1     -38.581  20.686   0.696  0.00  0.00    +0.183 C 
ATOM     11  H   UNL     1     -38.143  20.658   2.724  0.00  0.00    +0.150 HD
ATOM     12  H   UNL     1     -38.631  21.482  -1.259  0.00  0.00    +0.149 HD
ENDROOT
BRANCH   2  15
ATOM     13  O4* UNL     1     -36.798  24.157   4.538  0.00  0.00    -0.333 OA
ATOM     14  C2* UNL     1     -35.523  22.207   4.111  0.00  0.00    +0.187 C 
ATOM     15  C1* UNL     1     -36.829  22.921   3.807  0.00  0.00    +0.225 C 
ATOM     16  C3* UNL     1     -35.225  22.681   5.517  0.00  0.00    +0.171 C 
ATOM     17  C4* UNL     1     -35.696  24.128   5.472  0.00  0.00    +0.175 C 
BRANCH  14  18
ATOM     18  O2* UNL     1     -35.643  20.801   4.033  0.00  0.00    -0.378 OA
ATOM     19  H2* UNL     1     -36.581  20.555   4.046  0.00  0.00    +0.211 HD
ENDBRANCH  14  18
BRANCH  16  20
ATOM     20  O3* UNL     1     -36.039  21.983   6.459  0.00  0.00    -0.379 OA
ATOM     21  H3* UNL     1     -36.524  21.277   6.004  0.00  0.00    +0.211 HD
ENDBRANCH  16  20
BRANCH  17  22
ATOM     22  C5* UNL     1     -34.629  25.094   4.974  0.00  0.00    +0.169 C 
BRANCH  22  23
ATOM     23  O5* UNL     1     -34.811  26.343   5.618  0.00  0.00    -0.379 OA
ATOM     24  H5* UNL     1     -34.466  26.293   6.523  0.00  0.00    +0.211 HD
ENDBRANCH  22  23
ENDBRANCH  17  22
ENDBRANCH   2  15
TORSDOF 5
ENDMDL
MODEL 7
REMARK VINA RESULT:      -5.6      2.815      5.338
REMARK  Name = 193428
REMARK  5 active torsions:
REMARK  status: ('A' for Active; 'I' for Inactive)
REMARK    1  A    between atoms: N_2  and  C1*_15
REMARK    2  A    between atoms: C2*_14  and  O2*_18
REMARK    3  A    between atoms: C3*_16  and  O3*_20
REMARK    4  A    between atoms: C4*_17  and  C5*_22
REMARK    5  A    between atoms: C5*_22  and  O5*_23
REMARK                            x       y       z     vdW  Elec       q    Type
REMARK                         _______ _______ _______ _____ _____    ______ ____
ROOT
ATOM      1  O   UNL     1     -33.472  25.996   5.904  0.00  0.00    -0.221 OA
ATOM      2  N   UNL     1     -36.959  24.975   3.999  0.00  0.00    -0.249 N 
ATOM      3  N   UNL     1     -36.459  22.683   4.691  0.00  0.00    -0.303 N 
ATOM      4  N   UNL     1     -34.556  23.195   5.743  0.00  0.00    -0.305 N 
ATOM      5  N   UNL     1     -35.318  26.646   4.678  0.00  0.00    -0.179 NA
ATOM      6  C   UNL     1     -36.211  24.023   4.610  0.00  0.00    +0.126 C 
ATOM      7  C   UNL     1     -36.414  26.250   4.093  0.00  0.00    +0.235 C 
ATOM      8  C   UNL     1     -35.042  24.372   5.247  0.00  0.00    +0.158 C 
ATOM      9  C   UNL     1     -34.515  25.710   5.328  0.00  0.00    +0.168 C 
ATOM     10  C   UNL     1     -35.441  22.211   5.381  0.00  0.00    +0.183 C 
ATOM     11  H   UNL     1     -37.224  22.185   4.320  0.00  0.00    +0.150 HD
ATOM     12  H   UNL     1     -33.726  23.077   6.259  0.00  0.00    +0.149 HD
ENDROOT
BRANCH   2  15
ATOM     13  O4* UNL     1     -37.884  23.713   2.263  0.00  0.00    -0.333 OA
ATOM     14  C2* UNL     1     -38.801  25.865   2.639  0.00  0.00    +0.187 C 
ATOM     15  C1* UNL     1     -38.176  24.654   3.309  0.00  0.00    +0.225 C 
ATOM     16  C3* UNL     1     -39.504  25.241   1.453  0.00  0.00    +0.171 C 
ATOM     17  C4* UNL     1     -38.527  24.146   1.044  0.00  0.00    +0.175 C 
BRANCH  14  18
ATOM     18  O2* UNL     1     -39.694  26.554   3.490  0.00  0.00    -0.378 OA
ATOM     19  H2* UNL     1     -40.488  26.803   2.992  0.00  0.00    +0.211 HD
ENDBRANCH  14  18
BRANCH  16  20
ATOM     20  O3* UNL     1     -40.717  24.614   1.869  0.00  0.00    -0.379 OA
ATOM     21  H3* UNL     1     -41.416  25.282   1.941  0.00  0.00    +0.211 HD
ENDBRANCH  16  20
BRANCH  17  22
ATOM     22  C5* UNL     1     -37.447  24.630   0.085  0.00  0.00    +0.169 C 
BRANCH  22  23
ATOM     23  O5* UNL     1     -36.200  24.102   0.503  0.00  0.00    -0.379 OA
ATOM     24  H5* UNL     1     -36.133  24.156   1.469  0.00  0.00    +0.211 HD
ENDBRANCH  22  23
ENDBRANCH  17  22
ENDBRANCH   2  15
TORSDOF 5
ENDMDL
MODEL 8
REMARK VINA RESULT:      -5.6      2.425      5.013
REMARK  Name = 193428
REMARK  5 active torsions:
REMARK  status: ('A' for Active; 'I' for Inactive)
REMARK    1  A    between atoms: N_2  and  C1*_15
REMARK    2  A    between atoms: C2*_14  and  O2*_18
REMARK    3  A    between atoms: C3*_16  and  O3*_20
REMARK    4  A    between atoms: C4*_17  and  C5*_22
REMARK    5  A    between atoms: C5*_22  and  O5*_23
REMARK                            x       y       z     vdW  Elec       q    Type
REMARK                         _______ _______ _______ _____ _____    ______ ____
ROOT
ATOM      1  O   UNL     1     -37.051  27.835   1.859  0.00  0.00    -0.221 OA
ATOM      2  N   UNL     1     -36.727  23.814   2.609  0.00  0.00    -0.249 N 
ATOM      3  N   UNL     1     -36.038  24.469   4.862  0.00  0.00    -0.303 N 
ATOM      4  N   UNL     1     -36.204  26.668   4.498  0.00  0.00    -0.305 N 
ATOM      5  N   UNL     1     -37.230  25.662   1.099  0.00  0.00    -0.179 NA
ATOM      6  C   UNL     1     -36.444  24.716   3.582  0.00  0.00    +0.126 C 
ATOM      7  C   UNL     1     -37.106  24.401   1.408  0.00  0.00    +0.235 C 
ATOM      8  C   UNL     1     -36.554  26.063   3.324  0.00  0.00    +0.158 C 
ATOM      9  C   UNL     1     -36.958  26.630   2.063  0.00  0.00    +0.168 C 
ATOM     10  C   UNL     1     -35.900  25.669   5.390  0.00  0.00    +0.183 C 
ATOM     11  H   UNL     1     -35.883  23.597   5.291  0.00  0.00    +0.150 HD
ATOM     12  H   UNL     1     -36.173  27.636   4.670  0.00  0.00    +0.149 HD
ENDROOT
BRANCH   2  15
ATOM     13  O4* UNL     1     -35.233  22.019   2.683  0.00  0.00    -0.333 OA
ATOM     14  C2* UNL     1     -37.394  21.588   1.813  0.00  0.00    +0.187 C 
ATOM     15  C1* UNL     1     -36.610  22.401   2.829  0.00  0.00    +0.225 C 
ATOM     16  C3* UNL     1     -36.576  20.317   1.729  0.00  0.00    +0.171 C 
ATOM     17  C4* UNL     1     -35.153  20.846   1.845  0.00  0.00    +0.175 C 
BRANCH  14  18
ATOM     18  O2* UNL     1     -38.724  21.345   2.224  0.00  0.00    -0.378 OA
ATOM     19  H2* UNL     1     -38.987  20.450   1.956  0.00  0.00    +0.211 HD
ENDBRANCH  14  18
BRANCH  16  20
ATOM     20  O3* UNL     1     -36.831  19.488   2.864  0.00  0.00    -0.379 OA
ATOM     21  H3* UNL     1     -36.653  19.989   3.675  0.00  0.00    +0.211 HD
ENDBRANCH  16  20
BRANCH  17  22
ATOM     22  C5* UNL     1     -34.554  21.259   0.507  0.00  0.00    +0.169 C 
BRANCH  22  23
ATOM     23  O5* UNL     1     -33.958  22.537   0.651  0.00  0.00    -0.379 OA
ATOM     24  H5* UNL     1     -34.651  23.206   0.765  0.00  0.00    +0.211 HD
ENDBRANCH  22  23
ENDBRANCH  17  22
ENDBRANCH   2  15
TORSDOF 5
ENDMDL
MODEL 9
REMARK VINA RESULT:      -5.6      2.371      4.757
REMARK  Name = 193428
REMARK  5 active torsions:
REMARK  status: ('A' for Active; 'I' for Inactive)
REMARK    1  A    between atoms: N_2  and  C1*_15
REMARK    2  A    between atoms: C2*_14  and  O2*_18
REMARK    3  A    between atoms: C3*_16  and  O3*_20
REMARK    4  A    between atoms: C4*_17  and  C5*_22
REMARK    5  A    between atoms: C5*_22  and  O5*_23
REMARK                            x       y       z     vdW  Elec       q    Type
REMARK                         _______ _______ _______ _____ _____    ______ ____
ROOT
ATOM      1  O   UNL     1     -39.772  25.843   3.268  0.00  0.00    -0.221 OA
ATOM      2  N   UNL     1     -36.888  22.948   2.904  0.00  0.00    -0.249 N 
ATOM      3  N   UNL     1     -35.534  24.362   4.369  0.00  0.00    -0.303 N 
ATOM      4  N   UNL     1     -37.077  25.961   4.597  0.00  0.00    -0.305 N 
ATOM      5  N   UNL     1     -39.103  23.822   2.374  0.00  0.00    -0.179 NA
ATOM      6  C   UNL     1     -36.659  24.049   3.662  0.00  0.00    +0.126 C 
ATOM      7  C   UNL     1     -38.142  22.943   2.304  0.00  0.00    +0.235 C 
ATOM      8  C   UNL     1     -37.630  25.017   3.779  0.00  0.00    +0.158 C 
ATOM      9  C   UNL     1     -38.923  24.969   3.145  0.00  0.00    +0.168 C 
ATOM     10  C   UNL     1     -35.818  25.523   4.923  0.00  0.00    +0.183 C 
ATOM     11  H   UNL     1     -34.703  23.840   4.447  0.00  0.00    +0.150 HD
ATOM     12  H   UNL     1     -37.502  26.798   4.895  0.00  0.00    +0.149 HD
ENDROOT
BRANCH   2  15
ATOM     13  O4* UNL     1     -34.773  22.469   2.034  0.00  0.00    -0.333 OA
ATOM     14  C2* UNL     1     -36.403  20.755   1.909  0.00  0.00    +0.187 C 
ATOM     15  C1* UNL     1     -35.898  21.923   2.740  0.00  0.00    +0.225 C 
ATOM     16  C3* UNL     1     -35.130  20.261   1.255  0.00  0.00    +0.171 C 
ATOM     17  C4* UNL     1     -34.389  21.562   0.978  0.00  0.00    +0.175 C 
BRANCH  14  18
ATOM     18  O2* UNL     1     -37.023  19.759   2.696  0.00  0.00    -0.378 OA
ATOM     19  H2* UNL     1     -37.046  20.045   3.622  0.00  0.00    +0.211 HD
ENDBRANCH  14  18
BRANCH  16  20
ATOM     20  O3* UNL     1     -34.356  19.504   2.185  0.00  0.00    -0.379 OA
ATOM     21  H3* UNL     1     -34.122  20.064   2.941  0.00  0.00    +0.211 HD
ENDBRANCH  16  20
BRANCH  17  22
ATOM     22  C5* UNL     1     -34.767  22.198  -0.353  0.00  0.00    +0.169 C 
BRANCH  22  23
ATOM     23  O5* UNL     1     -34.759  23.607  -0.202  0.00  0.00    -0.379 OA
ATOM     24  H5* UNL     1     -34.107  23.994  -0.807  0.00  0.00    +0.211 HD
ENDBRANCH  22  23
ENDBRANCH  17  22
ENDBRANCH   2  15
TORSDOF 5
ENDMDL
