MODEL 1
REMARK VINA RESULT:      -6.9      0.000      0.000
REMARK  Name = 5464096
REMARK  10 active torsions:
REMARK  status: ('A' for Active; 'I' for Inactive)
REMARK    1  A    between atoms: N_1  and  CA_4
REMARK    2  A    between atoms: N_1  and  CA_20
REMARK    3  A    between atoms: CA_4  and  C_15
REMARK    4  A    between atoms: CA_13  and  C_17
REMARK    5  A    between atoms: C_17  and  O_18
REMARK    6  A    between atoms: CA_20  and  C_22
REMARK    7  A    between atoms: CA_20  and  C_25
REMARK    8  A    between atoms: C_22  and  O_23
REMARK    9  A    between atoms: C_25  and  C_26
REMARK   10  A    between atoms: C_26  and  C_27
REMARK                            x       y       z     vdW  Elec       q    Type
REMARK                         _______ _______ _______ _____ _____    ______ ____
ROOT
ATOM      1  N   UNL     1     -36.592  23.737   4.408  0.00  0.00    +0.399 N 
ATOM      2  H1  UNL     1     -37.202  23.510   5.194  0.00  0.00    -0.083 HD
ATOM      3  H2  UNL     1     -36.386  24.736   4.390  0.00  0.00    -0.083 HD
ENDROOT
BRANCH   1   4
ATOM      4  CA  UNL     1     -37.262  23.382   3.169  0.00  0.00    +0.018 C 
ATOM      5  CB  UNL     1     -38.525  24.197   2.980  0.00  0.00    -0.014 C 
BRANCH   4  15
ATOM      6  O   UNL     1     -35.714  24.755   1.997  0.00  0.00    -0.277 OA
ATOM      7  N   UNL     1     -36.115  22.652   1.120  0.00  0.00    -0.275 N 
ATOM      8  C   UNL     1     -35.532  21.611  -0.955  0.00  0.00    +0.020 C 
ATOM      9  C   UNL     1     -35.319  22.860  -0.086  0.00  0.00    +0.076 C 
ATOM     10  C   UNL     1     -36.712  20.872  -0.330  0.00  0.00    +0.033 C 
ATOM     11  C   UNL     1     -34.202  20.862  -0.932  0.00  0.00    +0.002 C 
ATOM     12  C   UNL     1     -33.812  22.937   0.187  0.00  0.00    +0.020 C 
ATOM     13  CA  UNL     1     -36.762  21.345   1.119  0.00  0.00    +0.174 C 
ATOM     14  C   UNL     1     -33.180  21.980  -0.815  0.00  0.00    +0.002 C 
ATOM     15  C   UNL     1     -36.293  23.667   2.050  0.00  0.00    +0.206 C 
BRANCH  13  17
ATOM     16  OXT UNL     1     -34.787  20.437   2.177  0.00  0.00    -0.248 OA
ATOM     17  C   UNL     1     -36.000  20.426   2.025  0.00  0.00    +0.332 C 
BRANCH  17  18
ATOM     18  O   UNL     1     -36.841  19.572   2.659  0.00  0.00    -0.479 OA
ATOM     19  H   UNL     1     -37.557  19.908   3.163  0.00  0.00    +0.295 HD
ENDBRANCH  17  18
ENDBRANCH  13  17
ENDBRANCH   4  15
ENDBRANCH   1   4
BRANCH   1  20
ATOM     20  CA  UNL     1     -35.338  23.008   4.554  0.00  0.00    +0.041 C 
BRANCH  20  22
ATOM     21  OXT UNL     1     -36.080  22.108   6.691  0.00  0.00    -0.253 OA
ATOM     22  C   UNL     1     -35.575  21.924   5.591  0.00  0.00    +0.293 C 
BRANCH  22  23
ATOM     23  O   UNL     1     -35.185  20.697   5.159  0.00  0.00    -0.482 OA
ATOM     24  H   UNL     1     -35.768  19.967   5.235  0.00  0.00    +0.295 HD
ENDBRANCH  22  23
ENDBRANCH  20  22
BRANCH  20  25
ATOM     25  C   UNL     1     -34.238  23.978   5.009  0.00  0.00    -0.006 C 
BRANCH  25  26
ATOM     26  C   UNL     1     -34.756  25.319   5.549  0.00  0.00    +0.025 C 
BRANCH  26  27
ATOM     27  C   UNL     1     -33.757  26.448   5.483  0.00  0.00    -0.022 C 
ATOM     28  C   UNL     1     -33.504  27.085   4.267  0.00  0.00    -0.004 C 
ATOM     29  C   UNL     1     -33.085  26.856   6.636  0.00  0.00    -0.004 C 
ATOM     30  C   UNL     1     -32.581  28.129   4.205  0.00  0.00    -0.000 C 
ATOM     31  C   UNL     1     -32.163  27.899   6.573  0.00  0.00    -0.000 C 
ATOM     32  C   UNL     1     -31.910  28.536   5.357  0.00  0.00    -0.000 C 
ENDBRANCH  26  27
ENDBRANCH  25  26
ENDBRANCH  20  25
ENDBRANCH   1  20
TORSDOF 10
ENDMDL
MODEL 2
REMARK VINA RESULT:      -6.6      2.065      4.117
REMARK  Name = 5464096
REMARK  10 active torsions:
REMARK  status: ('A' for Active; 'I' for Inactive)
REMARK    1  A    between atoms: N_1  and  CA_4
REMARK    2  A    between atoms: N_1  and  CA_20
REMARK    3  A    between atoms: CA_4  and  C_15
REMARK    4  A    between atoms: CA_13  and  C_17
REMARK    5  A    between atoms: C_17  and  O_18
REMARK    6  A    between atoms: CA_20  and  C_22
REMARK    7  A    between atoms: CA_20  and  C_25
REMARK    8  A    between atoms: C_22  and  O_23
REMARK    9  A    between atoms: C_25  and  C_26
REMARK   10  A    between atoms: C_26  and  C_27
REMARK                            x       y       z     vdW  Elec       q    Type
REMARK                         _______ _______ _______ _____ _____    ______ ____
ROOT
ATOM      1  N   UNL     1     -36.738  22.693   3.891  0.00  0.00    +0.399 N 
ATOM      2  H1  UNL     1     -37.185  21.826   4.192  0.00  0.00    -0.083 HD
ATOM      3  H2  UNL     1     -37.342  23.493   4.082  0.00  0.00    -0.083 HD
ENDROOT
BRANCH   1   4
ATOM      4  CA  UNL     1     -36.493  22.630   2.461  0.00  0.00    +0.018 C 
ATOM      5  CB  UNL     1     -35.702  21.390   2.097  0.00  0.00    -0.014 C 
BRANCH   4  15
ATOM      6  O   UNL     1     -38.487  21.546   1.751  0.00  0.00    -0.277 OA
ATOM      7  N   UNL     1     -38.278  23.791   1.231  0.00  0.00    -0.275 N 
ATOM      8  C   UNL     1     -39.529  25.262  -0.183  0.00  0.00    +0.020 C 
ATOM      9  C   UNL     1     -39.494  23.853   0.427  0.00  0.00    +0.076 C 
ATOM     10  C   UNL     1     -38.140  25.848   0.056  0.00  0.00    +0.033 C 
ATOM     11  C   UNL     1     -40.675  25.986   0.519  0.00  0.00    +0.002 C 
ATOM     12  C   UNL     1     -40.778  23.716   1.255  0.00  0.00    +0.020 C 
ATOM     13  CA  UNL     1     -37.571  25.067   1.237  0.00  0.00    +0.174 C 
ATOM     14  C   UNL     1     -41.665  24.869   0.804  0.00  0.00    +0.002 C 
ATOM     15  C   UNL     1     -37.842  22.596   1.787  0.00  0.00    +0.206 C 
BRANCH  13  17
ATOM     16  OXT UNL     1     -38.446  25.279   3.481  0.00  0.00    -0.248 OA
ATOM     17  C   UNL     1     -37.840  25.764   2.537  0.00  0.00    +0.332 C 
BRANCH  17  18
ATOM     18  O   UNL     1     -37.317  27.014   2.527  0.00  0.00    -0.479 OA
ATOM     19  H   UNL     1     -37.402  27.551   1.763  0.00  0.00    +0.295 HD
ENDBRANCH  17  18
ENDBRANCH  13  17
ENDBRANCH   4  15
ENDBRANCH   1   4
BRANCH   1  20
ATOM     20  CA  UNL     1     -35.493  22.866   4.629  0.00  0.00    +0.041 C 
BRANCH  20  22
ATOM     21  OXT UNL     1     -35.912  22.160   6.922  0.00  0.00    -0.253 OA
ATOM     22  C   UNL     1     -35.528  21.889   5.791  0.00  0.00    +0.293 C 
BRANCH  22  23
ATOM     23  O   UNL     1     -35.105  20.647   5.439  0.00  0.00    -0.482 OA
ATOM     24  H   UNL     1     -34.790  20.057   6.095  0.00  0.00    +0.295 HD
ENDBRANCH  22  23
ENDBRANCH  20  22
BRANCH  20  25
ATOM     25  C   UNL     1     -35.396  24.315   5.128  0.00  0.00    -0.006 C 
BRANCH  25  26
ATOM     26  C   UNL     1     -34.640  25.264   4.186  0.00  0.00    +0.025 C 
BRANCH  26  27
ATOM     27  C   UNL     1     -33.762  26.272   4.885  0.00  0.00    -0.022 C 
ATOM     28  C   UNL     1     -33.078  27.234   4.143  0.00  0.00    -0.004 C 
ATOM     29  C   UNL     1     -33.633  26.242   6.274  0.00  0.00    -0.004 C 
ATOM     30  C   UNL     1     -32.265  28.167   4.789  0.00  0.00    -0.000 C 
ATOM     31  C   UNL     1     -32.822  27.174   6.919  0.00  0.00    -0.000 C 
ATOM     32  C   UNL     1     -32.137  28.137   6.176  0.00  0.00    -0.000 C 
ENDBRANCH  26  27
ENDBRANCH  25  26
ENDBRANCH  20  25
ENDBRANCH   1  20
TORSDOF 10
ENDMDL
MODEL 3
REMARK VINA RESULT:      -6.5      2.601      4.875
REMARK  Name = 5464096
REMARK  10 active torsions:
REMARK  status: ('A' for Active; 'I' for Inactive)
REMARK    1  A    between atoms: N_1  and  CA_4
REMARK    2  A    between atoms: N_1  and  CA_20
REMARK    3  A    between atoms: CA_4  and  C_15
REMARK    4  A    between atoms: CA_13  and  C_17
REMARK    5  A    between atoms: C_17  and  O_18
REMARK    6  A    between atoms: CA_20  and  C_22
REMARK    7  A    between atoms: CA_20  and  C_25
REMARK    8  A    between atoms: C_22  and  O_23
REMARK    9  A    between atoms: C_25  and  C_26
REMARK   10  A    between atoms: C_26  and  C_27
REMARK                            x       y       z     vdW  Elec       q    Type
REMARK                         _______ _______ _______ _____ _____    ______ ____
ROOT
ATOM      1  N   UNL     1     -36.976  22.344   3.160  0.00  0.00    +0.399 N 
ATOM      2  H1  UNL     1     -37.567  21.620   2.751  0.00  0.00    -0.083 HD
ATOM      3  H2  UNL     1     -37.393  22.705   4.018  0.00  0.00    -0.083 HD
ENDROOT
BRANCH   1   4
ATOM      4  CA  UNL     1     -36.845  23.439   2.215  0.00  0.00    +0.018 C 
ATOM      5  CB  UNL     1     -35.485  23.424   1.548  0.00  0.00    -0.014 C 
BRANCH   4  15
ATOM      6  O   UNL     1     -38.000  22.205   0.543  0.00  0.00    -0.277 OA
ATOM      7  N   UNL     1     -38.796  24.327   1.010  0.00  0.00    -0.275 N 
ATOM      8  C   UNL     1     -40.400  25.741  -0.065  0.00  0.00    +0.020 C 
ATOM      9  C   UNL     1     -39.790  24.331  -0.059  0.00  0.00    +0.076 C 
ATOM     10  C   UNL     1     -39.484  26.589   0.814  0.00  0.00    +0.033 C 
ATOM     11  C   UNL     1     -41.829  25.574   0.445  0.00  0.00    +0.002 C 
ATOM     12  C   UNL     1     -40.955  23.365   0.191  0.00  0.00    +0.020 C 
ATOM     13  CA  UNL     1     -38.771  25.596   1.727  0.00  0.00    +0.174 C 
ATOM     14  C   UNL     1     -42.212  24.190  -0.051  0.00  0.00    +0.002 C 
ATOM     15  C   UNL     1     -37.927  23.258   1.181  0.00  0.00    +0.206 C 
BRANCH  13  17
ATOM     16  OXT UNL     1     -39.575  24.387   3.660  0.00  0.00    -0.248 OA
ATOM     17  C   UNL     1     -39.492  25.431   3.031  0.00  0.00    +0.332 C 
BRANCH  17  18
ATOM     18  O   UNL     1     -40.048  26.604   3.422  0.00  0.00    -0.479 OA
ATOM     19  H   UNL     1     -39.852  27.393   2.956  0.00  0.00    +0.295 HD
ENDBRANCH  17  18
ENDBRANCH  13  17
ENDBRANCH   4  15
ENDBRANCH   1   4
BRANCH   1  20
ATOM     20  CA  UNL     1     -35.675  21.770   3.482  0.00  0.00    +0.041 C 
BRANCH  20  22
ATOM     21  OXT UNL     1     -34.556  19.868   2.453  0.00  0.00    -0.253 OA
ATOM     22  C   UNL     1     -35.597  20.428   2.776  0.00  0.00    +0.293 C 
BRANCH  22  23
ATOM     23  O   UNL     1     -36.821  19.885   2.555  0.00  0.00    -0.482 OA
ATOM     24  H   UNL     1     -37.369  20.226   1.875  0.00  0.00    +0.295 HD
ENDBRANCH  22  23
ENDBRANCH  20  22
BRANCH  20  25
ATOM     25  C   UNL     1     -35.558  21.603   5.003  0.00  0.00    -0.006 C 
BRANCH  25  26
ATOM     26  C   UNL     1     -34.636  22.625   5.687  0.00  0.00    +0.025 C 
BRANCH  26  27
ATOM     27  C   UNL     1     -34.824  24.047   5.220  0.00  0.00    -0.022 C 
ATOM     28  C   UNL     1     -33.819  24.678   4.485  0.00  0.00    -0.004 C 
ATOM     29  C   UNL     1     -36.001  24.733   5.521  0.00  0.00    -0.004 C 
ATOM     30  C   UNL     1     -33.992  25.993   4.052  0.00  0.00    -0.000 C 
ATOM     31  C   UNL     1     -36.173  26.047   5.089  0.00  0.00    -0.000 C 
ATOM     32  C   UNL     1     -35.168  26.677   4.354  0.00  0.00    -0.000 C 
ENDBRANCH  26  27
ENDBRANCH  25  26
ENDBRANCH  20  25
ENDBRANCH   1  20
TORSDOF 10
ENDMDL
MODEL 4
REMARK VINA RESULT:      -6.3      1.634      2.287
REMARK  Name = 5464096
REMARK  10 active torsions:
REMARK  status: ('A' for Active; 'I' for Inactive)
REMARK    1  A    between atoms: N_1  and  CA_4
REMARK    2  A    between atoms: N_1  and  CA_20
REMARK    3  A    between atoms: CA_4  and  C_15
REMARK    4  A    between atoms: CA_13  and  C_17
REMARK    5  A    between atoms: C_17  and  O_18
REMARK    6  A    between atoms: CA_20  and  C_22
REMARK    7  A    between atoms: CA_20  and  C_25
REMARK    8  A    between atoms: C_22  and  O_23
REMARK    9  A    between atoms: C_25  and  C_26
REMARK   10  A    between atoms: C_26  and  C_27
REMARK                            x       y       z     vdW  Elec       q    Type
REMARK                         _______ _______ _______ _____ _____    ______ ____
ROOT
ATOM      1  N   UNL     1     -35.291  24.365   2.159  0.00  0.00    +0.399 N 
ATOM      2  H1  UNL     1     -35.968  25.111   2.316  0.00  0.00    -0.083 HD
ATOM      3  H2  UNL     1     -34.415  24.746   1.798  0.00  0.00    -0.083 HD
ENDROOT
BRANCH   1   4
ATOM      4  CA  UNL     1     -35.827  23.434   1.182  0.00  0.00    +0.018 C 
ATOM      5  CB  UNL     1     -36.625  24.160   0.118  0.00  0.00    -0.014 C 
BRANCH   4  15
ATOM      6  O   UNL     1     -33.651  23.377   0.225  0.00  0.00    -0.277 OA
ATOM      7  N   UNL     1     -34.776  21.361   0.377  0.00  0.00    -0.275 N 
ATOM      8  C   UNL     1     -34.354  19.185  -0.525  0.00  0.00    +0.020 C 
ATOM      9  C   UNL     1     -33.770  20.595  -0.351  0.00  0.00    +0.076 C 
ATOM     10  C   UNL     1     -35.829  19.302  -0.152  0.00  0.00    +0.033 C 
ATOM     11  C   UNL     1     -33.519  18.281   0.379  0.00  0.00    +0.002 C 
ATOM     12  C   UNL     1     -32.459  20.421   0.425  0.00  0.00    +0.020 C 
ATOM     13  CA  UNL     1     -35.922  20.537   0.741  0.00  0.00    +0.174 C 
ATOM     14  C   UNL     1     -32.147  18.932   0.346  0.00  0.00    +0.002 C 
ATOM     15  C   UNL     1     -34.649  22.733   0.553  0.00  0.00    +0.206 C 
BRANCH  13  17
ATOM     16  OXT UNL     1     -34.801  20.254   2.864  0.00  0.00    -0.248 OA
ATOM     17  C   UNL     1     -35.819  20.175   2.192  0.00  0.00    +0.332 C 
BRANCH  17  18
ATOM     18  O   UNL     1     -37.015  19.744   2.664  0.00  0.00    -0.479 OA
ATOM     19  H   UNL     1     -37.737  19.633   2.077  0.00  0.00    +0.295 HD
ENDBRANCH  17  18
ENDBRANCH  13  17
ENDBRANCH   4  15
ENDBRANCH   1   4
BRANCH   1  20
ATOM     20  CA  UNL     1     -35.017  23.697   3.426  0.00  0.00    +0.041 C 
BRANCH  20  22
ATOM     21  OXT UNL     1     -37.244  24.293   4.212  0.00  0.00    -0.253 OA
ATOM     22  C   UNL     1     -36.358  23.454   4.096  0.00  0.00    +0.293 C 
BRANCH  22  23
ATOM     23  O   UNL     1     -36.493  22.179   4.543  0.00  0.00    -0.482 OA
ATOM     24  H   UNL     1     -36.779  22.018   5.421  0.00  0.00    +0.295 HD
ENDBRANCH  22  23
ENDBRANCH  20  22
BRANCH  20  25
ATOM     25  C   UNL     1     -34.122  24.596   4.290  0.00  0.00    -0.006 C 
BRANCH  25  26
ATOM     26  C   UNL     1     -34.090  26.069   3.855  0.00  0.00    +0.025 C 
BRANCH  26  27
ATOM     27  C   UNL     1     -33.315  26.977   4.779  0.00  0.00    -0.022 C 
ATOM     28  C   UNL     1     -33.247  26.690   6.143  0.00  0.00    -0.004 C 
ATOM     29  C   UNL     1     -32.667  28.103   4.271  0.00  0.00    -0.004 C 
ATOM     30  C   UNL     1     -32.532  27.529   6.998  0.00  0.00    -0.000 C 
ATOM     31  C   UNL     1     -31.952  28.941   5.125  0.00  0.00    -0.000 C 
ATOM     32  C   UNL     1     -31.884  28.654   6.489  0.00  0.00    -0.000 C 
ENDBRANCH  26  27
ENDBRANCH  25  26
ENDBRANCH  20  25
ENDBRANCH   1  20
TORSDOF 10
ENDMDL
MODEL 5
REMARK VINA RESULT:      -6.2      2.461      6.751
REMARK  Name = 5464096
REMARK  10 active torsions:
REMARK  status: ('A' for Active; 'I' for Inactive)
REMARK    1  A    between atoms: N_1  and  CA_4
REMARK    2  A    between atoms: N_1  and  CA_20
REMARK    3  A    between atoms: CA_4  and  C_15
REMARK    4  A    between atoms: CA_13  and  C_17
REMARK    5  A    between atoms: C_17  and  O_18
REMARK    6  A    between atoms: CA_20  and  C_22
REMARK    7  A    between atoms: CA_20  and  C_25
REMARK    8  A    between atoms: C_22  and  O_23
REMARK    9  A    between atoms: C_25  and  C_26
REMARK   10  A    between atoms: C_26  and  C_27
REMARK                            x       y       z     vdW  Elec       q    Type
REMARK                         _______ _______ _______ _____ _____    ______ ____
ROOT
ATOM      1  N   UNL     1     -36.598  19.939   1.913  0.00  0.00    +0.399 N 
ATOM      2  H1  UNL     1     -37.389  19.382   2.235  0.00  0.00    -0.083 HD
ATOM      3  H2  UNL     1     -35.775  19.759   2.488  0.00  0.00    -0.083 HD
ENDROOT
BRANCH   1   4
ATOM      4  CA  UNL     1     -36.934  21.348   2.016  0.00  0.00    +0.018 C 
ATOM      5  CB  UNL     1     -38.434  21.544   2.115  0.00  0.00    -0.014 C 
BRANCH   4  15
ATOM      6  O   UNL     1     -35.616  21.102   3.980  0.00  0.00    -0.277 OA
ATOM      7  N   UNL     1     -36.432  23.220   3.530  0.00  0.00    -0.275 N 
ATOM      8  C   UNL     1     -36.509  25.244   4.804  0.00  0.00    +0.020 C 
ATOM      9  C   UNL     1     -35.958  23.810   4.777  0.00  0.00    +0.076 C 
ATOM     10  C   UNL     1     -37.553  25.305   3.693  0.00  0.00    +0.033 C 
ATOM     11  C   UNL     1     -35.297  26.153   4.615  0.00  0.00    +0.002 C 
ATOM     12  C   UNL     1     -34.432  23.939   4.848  0.00  0.00    +0.020 C 
ATOM     13  CA  UNL     1     -37.181  24.182   2.729  0.00  0.00    +0.174 C 
ATOM     14  C   UNL     1     -34.175  25.376   5.283  0.00  0.00    +0.002 C 
ATOM     15  C   UNL     1     -36.264  21.868   3.263  0.00  0.00    +0.206 C 
BRANCH  13  17
ATOM     16  OXT UNL     1     -35.139  24.349   1.446  0.00  0.00    -0.248 OA
ATOM     17  C   UNL     1     -36.303  24.677   1.620  0.00  0.00    +0.332 C 
BRANCH  17  18
ATOM     18  O   UNL     1     -36.978  25.547   0.828  0.00  0.00    -0.479 OA
ATOM     19  H   UNL     1     -37.340  25.255   0.014  0.00  0.00    +0.295 HD
ENDBRANCH  17  18
ENDBRANCH  13  17
ENDBRANCH   4  15
ENDBRANCH   1   4
BRANCH   1  20
ATOM     20  CA  UNL     1     -36.289  19.573   0.536  0.00  0.00    +0.041 C 
BRANCH  20  22
ATOM     21  OXT UNL     1     -38.345  19.043  -0.656  0.00  0.00    -0.253 OA
ATOM     22  C   UNL     1     -37.416  18.677   0.053  0.00  0.00    +0.293 C 
BRANCH  22  23
ATOM     23  O   UNL     1     -37.277  17.394   0.474  0.00  0.00    -0.482 OA
ATOM     24  H   UNL     1     -36.432  16.988   0.469  0.00  0.00    +0.295 HD
ENDBRANCH  22  23
ENDBRANCH  20  22
BRANCH  20  25
ATOM     25  C   UNL     1     -34.942  18.838   0.497  0.00  0.00    -0.006 C 
BRANCH  25  26
ATOM     26  C   UNL     1     -33.842  19.477   1.359  0.00  0.00    +0.025 C 
BRANCH  26  27
ATOM     27  C   UNL     1     -32.439  19.249   0.853  0.00  0.00    -0.022 C 
ATOM     28  C   UNL     1     -31.820  20.213   0.056  0.00  0.00    -0.004 C 
ATOM     29  C   UNL     1     -31.760  18.075   1.180  0.00  0.00    -0.004 C 
ATOM     30  C   UNL     1     -30.522  20.003  -0.412  0.00  0.00    -0.000 C 
ATOM     31  C   UNL     1     -30.463  17.866   0.712  0.00  0.00    -0.000 C 
ATOM     32  C   UNL     1     -29.844  18.830  -0.084  0.00  0.00    -0.000 C 
ENDBRANCH  26  27
ENDBRANCH  25  26
ENDBRANCH  20  25
ENDBRANCH   1  20
TORSDOF 10
ENDMDL
MODEL 6
REMARK VINA RESULT:      -6.1      4.071      7.966
REMARK  Name = 5464096
REMARK  10 active torsions:
REMARK  status: ('A' for Active; 'I' for Inactive)
REMARK    1  A    between atoms: N_1  and  CA_4
REMARK    2  A    between atoms: N_1  and  CA_20
REMARK    3  A    between atoms: CA_4  and  C_15
REMARK    4  A    between atoms: CA_13  and  C_17
REMARK    5  A    between atoms: C_17  and  O_18
REMARK    6  A    between atoms: CA_20  and  C_22
REMARK    7  A    between atoms: CA_20  and  C_25
REMARK    8  A    between atoms: C_22  and  O_23
REMARK    9  A    between atoms: C_25  and  C_26
REMARK   10  A    between atoms: C_26  and  C_27
REMARK                            x       y       z     vdW  Elec       q    Type
REMARK                         _______ _______ _______ _____ _____    ______ ____
ROOT
ATOM      1  N   UNL     1     -35.330  27.515   3.696  0.00  0.00    +0.399 N 
ATOM      2  H1  UNL     1     -35.589  28.443   3.362  0.00  0.00    -0.083 HD
ATOM      3  H2  UNL     1     -35.678  27.364   4.643  0.00  0.00    -0.083 HD
ENDROOT
BRANCH   1   4
ATOM      4  CA  UNL     1     -33.882  27.402   3.712  0.00  0.00    +0.018 C 
ATOM      5  CB  UNL     1     -33.412  26.277   2.812  0.00  0.00    -0.014 C 
BRANCH   4  15
ATOM      6  O   UNL     1     -34.017  29.433   2.483  0.00  0.00    -0.277 OA
ATOM      7  N   UNL     1     -32.053  29.044   3.643  0.00  0.00    -0.275 N 
ATOM      8  C   UNL     1     -29.917  30.124   3.643  0.00  0.00    +0.020 C 
ATOM      9  C   UNL     1     -31.358  30.216   3.119  0.00  0.00    +0.076 C 
ATOM     10  C   UNL     1     -29.771  28.709   4.197  0.00  0.00    +0.033 C 
ATOM     11  C   UNL     1     -29.780  31.247   4.668  0.00  0.00    +0.002 C 
ATOM     12  C   UNL     1     -31.919  31.542   3.647  0.00  0.00    +0.020 C 
ATOM     13  CA  UNL     1     -31.192  28.251   4.512  0.00  0.00    +0.174 C 
ATOM     14  C   UNL     1     -30.703  32.324   4.124  0.00  0.00    +0.002 C 
ATOM     15  C   UNL     1     -33.334  28.718   3.220  0.00  0.00    +0.206 C 
BRANCH  13  17
ATOM     16  OXT UNL     1     -32.232  29.471   6.321  0.00  0.00    -0.248 OA
ATOM     17  C   UNL     1     -31.556  28.528   5.939  0.00  0.00    +0.332 C 
BRANCH  17  18
ATOM     18  O   UNL     1     -31.029  27.585   6.759  0.00  0.00    -0.479 OA
ATOM     19  H   UNL     1     -30.114  27.597   6.959  0.00  0.00    +0.295 HD
ENDBRANCH  17  18
ENDBRANCH  13  17
ENDBRANCH   4  15
ENDBRANCH   1   4
BRANCH   1  20
ATOM     20  CA  UNL     1     -35.924  26.513   2.819  0.00  0.00    +0.041 C 
BRANCH  20  22
ATOM     21  OXT UNL     1     -35.982  27.606   0.645  0.00  0.00    -0.253 OA
ATOM     22  C   UNL     1     -36.566  27.261   1.664  0.00  0.00    +0.293 C 
BRANCH  22  23
ATOM     23  O   UNL     1     -37.889  27.492   1.866  0.00  0.00    -0.482 OA
ATOM     24  H   UNL     1     -38.385  27.960   1.223  0.00  0.00    +0.295 HD
ENDBRANCH  22  23
ENDBRANCH  20  22
BRANCH  20  25
ATOM     25  C   UNL     1     -36.968  25.707   3.605  0.00  0.00    -0.006 C 
BRANCH  25  26
ATOM     26  C   UNL     1     -36.472  25.168   4.956  0.00  0.00    +0.025 C 
BRANCH  26  27
ATOM     27  C   UNL     1     -35.965  23.747   4.914  0.00  0.00    -0.022 C 
ATOM     28  C   UNL     1     -35.399  23.176   6.054  0.00  0.00    -0.004 C 
ATOM     29  C   UNL     1     -36.062  23.005   3.737  0.00  0.00    -0.004 C 
ATOM     30  C   UNL     1     -34.930  21.862   6.016  0.00  0.00    -0.000 C 
ATOM     31  C   UNL     1     -35.594  21.692   3.700  0.00  0.00    -0.000 C 
ATOM     32  C   UNL     1     -35.027  21.120   4.840  0.00  0.00    -0.000 C 
ENDBRANCH  26  27
ENDBRANCH  25  26
ENDBRANCH  20  25
ENDBRANCH   1  20
TORSDOF 10
ENDMDL
MODEL 7
REMARK VINA RESULT:      -6.1      2.207      6.434
REMARK  Name = 5464096
REMARK  10 active torsions:
REMARK  status: ('A' for Active; 'I' for Inactive)
REMARK    1  A    between atoms: N_1  and  CA_4
REMARK    2  A    between atoms: N_1  and  CA_20
REMARK    3  A    between atoms: CA_4  and  C_15
REMARK    4  A    between atoms: CA_13  and  C_17
REMARK    5  A    between atoms: C_17  and  O_18
REMARK    6  A    between atoms: CA_20  and  C_22
REMARK    7  A    between atoms: CA_20  and  C_25
REMARK    8  A    between atoms: C_22  and  O_23
REMARK    9  A    between atoms: C_25  and  C_26
REMARK   10  A    between atoms: C_26  and  C_27
REMARK                            x       y       z     vdW  Elec       q    Type
REMARK                         _______ _______ _______ _____ _____    ______ ____
ROOT
ATOM      1  N   UNL     1     -38.243  22.621   2.187  0.00  0.00    +0.399 N 
ATOM      2  H1  UNL     1     -39.123  22.426   2.664  0.00  0.00    -0.083 HD
ATOM      3  H2  UNL     1     -37.450  22.389   2.787  0.00  0.00    -0.083 HD
ENDROOT
BRANCH   1   4
ATOM      4  CA  UNL     1     -38.179  24.037   1.867  0.00  0.00    +0.018 C 
ATOM      5  CB  UNL     1     -39.521  24.546   1.380  0.00  0.00    -0.014 C 
BRANCH   4  15
ATOM      6  O   UNL     1     -38.552  24.768   4.099  0.00  0.00    -0.277 OA
ATOM      7  N   UNL     1     -36.544  25.375   3.124  0.00  0.00    -0.275 N 
ATOM      8  C   UNL     1     -34.810  26.894   3.769  0.00  0.00    +0.020 C 
ATOM      9  C   UNL     1     -36.113  26.223   4.231  0.00  0.00    +0.076 C 
ATOM     10  C   UNL     1     -34.723  26.632   2.268  0.00  0.00    +0.033 C 
ATOM     11  C   UNL     1     -33.703  26.264   4.610  0.00  0.00    +0.002 C 
ATOM     12  C   UNL     1     -35.760  25.435   5.498  0.00  0.00    +0.020 C 
ATOM     13  CA  UNL     1     -35.588  25.400   2.023  0.00  0.00    +0.174 C 
ATOM     14  C   UNL     1     -34.399  25.966   5.928  0.00  0.00    +0.002 C 
ATOM     15  C   UNL     1     -37.786  24.754   3.133  0.00  0.00    +0.206 C 
BRANCH  13  17
ATOM     16  OXT UNL     1     -34.944  23.218   2.843  0.00  0.00    -0.248 OA
ATOM     17  C   UNL     1     -34.775  24.141   2.060  0.00  0.00    +0.332 C 
BRANCH  17  18
ATOM     18  O   UNL     1     -33.817  24.162   1.100  0.00  0.00    -0.479 OA
ATOM     19  H   UNL     1     -33.036  24.662   1.229  0.00  0.00    +0.295 HD
ENDBRANCH  17  18
ENDBRANCH  13  17
ENDBRANCH   4  15
ENDBRANCH   1   4
BRANCH   1  20
ATOM     20  CA  UNL     1     -38.165  21.806   0.981  0.00  0.00    +0.041 C 
BRANCH  20  22
ATOM     21  OXT UNL     1     -39.827  20.367  -0.067  0.00  0.00    -0.253 OA
ATOM     22  C   UNL     1     -39.444  20.989   0.916  0.00  0.00    +0.293 C 
BRANCH  22  23
ATOM     23  O   UNL     1     -40.124  20.995   2.091  0.00  0.00    -0.482 OA
ATOM     24  H   UNL     1     -39.677  20.806   2.892  0.00  0.00    +0.295 HD
ENDBRANCH  22  23
ENDBRANCH  20  22
BRANCH  20  25
ATOM     25  C   UNL     1     -36.931  20.897   1.061  0.00  0.00    -0.006 C 
BRANCH  25  26
ATOM     26  C   UNL     1     -35.777  21.307   0.134  0.00  0.00    +0.025 C 
BRANCH  26  27
ATOM     27  C   UNL     1     -34.487  20.559   0.372  0.00  0.00    -0.022 C 
ATOM     28  C   UNL     1     -34.455  19.497   1.276  0.00  0.00    -0.004 C 
ATOM     29  C   UNL     1     -33.329  20.929  -0.311  0.00  0.00    -0.004 C 
ATOM     30  C   UNL     1     -33.264  18.805   1.496  0.00  0.00    -0.000 C 
ATOM     31  C   UNL     1     -32.139  20.237  -0.091  0.00  0.00    -0.000 C 
ATOM     32  C   UNL     1     -32.106  19.174   0.813  0.00  0.00    -0.000 C 
ENDBRANCH  26  27
ENDBRANCH  25  26
ENDBRANCH  20  25
ENDBRANCH   1  20
TORSDOF 10
ENDMDL
MODEL 8
REMARK VINA RESULT:      -6.1      5.134      7.225
REMARK  Name = 5464096
REMARK  10 active torsions:
REMARK  status: ('A' for Active; 'I' for Inactive)
REMARK    1  A    between atoms: N_1  and  CA_4
REMARK    2  A    between atoms: N_1  and  CA_20
REMARK    3  A    between atoms: CA_4  and  C_15
REMARK    4  A    between atoms: CA_13  and  C_17
REMARK    5  A    between atoms: C_17  and  O_18
REMARK    6  A    between atoms: CA_20  and  C_22
REMARK    7  A    between atoms: CA_20  and  C_25
REMARK    8  A    between atoms: C_22  and  O_23
REMARK    9  A    between atoms: C_25  and  C_26
REMARK   10  A    between atoms: C_26  and  C_27
REMARK                            x       y       z     vdW  Elec       q    Type
REMARK                         _______ _______ _______ _____ _____    ______ ____
ROOT
ATOM      1  N   UNL     1     -35.187  29.103   3.375  0.00  0.00    +0.399 N 
ATOM      2  H1  UNL     1     -34.531  28.961   4.144  0.00  0.00    -0.083 HD
ATOM      3  H2  UNL     1     -36.132  29.248   3.733  0.00  0.00    -0.083 HD
ENDROOT
BRANCH   1   4
ATOM      4  CA  UNL     1     -35.190  27.923   2.528  0.00  0.00    +0.018 C 
ATOM      5  CB  UNL     1     -34.444  28.180   1.234  0.00  0.00    -0.014 C 
BRANCH   4  15
ATOM      6  O   UNL     1     -33.517  27.077   3.989  0.00  0.00    -0.277 OA
ATOM      7  N   UNL     1     -35.068  25.558   3.190  0.00  0.00    -0.275 N 
ATOM      8  C   UNL     1     -35.200  23.170   3.259  0.00  0.00    +0.020 C 
ATOM      9  C   UNL     1     -34.419  24.389   3.772  0.00  0.00    +0.076 C 
ATOM     10  C   UNL     1     -36.086  23.694   2.133  0.00  0.00    +0.033 C 
ATOM     11  C   UNL     1     -35.941  22.615   4.473  0.00  0.00    +0.002 C 
ATOM     12  C   UNL     1     -34.512  24.340   5.303  0.00  0.00    +0.020 C 
ATOM     13  CA  UNL     1     -36.239  25.188   2.403  0.00  0.00    +0.174 C 
ATOM     14  C   UNL     1     -35.004  22.936   5.625  0.00  0.00    +0.002 C 
ATOM     15  C   UNL     1     -34.510  26.824   3.305  0.00  0.00    +0.206 C 
BRANCH  13  17
ATOM     16  OXT UNL     1     -37.889  24.795   4.125  0.00  0.00    -0.248 OA
ATOM     17  C   UNL     1     -37.473  25.480   3.203  0.00  0.00    +0.332 C 
BRANCH  17  18
ATOM     18  O   UNL     1     -38.071  26.614   2.763  0.00  0.00    -0.479 OA
ATOM     19  H   UNL     1     -37.560  27.284   2.352  0.00  0.00    +0.295 HD
ENDBRANCH  17  18
ENDBRANCH  13  17
ENDBRANCH   4  15
ENDBRANCH   1   4
BRANCH   1  20
ATOM     20  CA  UNL     1     -34.789  30.288   2.624  0.00  0.00    +0.041 C 
BRANCH  20  22
ATOM     21  OXT UNL     1     -33.013  31.907   3.011  0.00  0.00    -0.253 OA
ATOM     22  C   UNL     1     -33.552  30.847   3.304  0.00  0.00    +0.293 C 
BRANCH  22  23
ATOM     23  O   UNL     1     -33.105  30.050   4.308  0.00  0.00    -0.482 OA
ATOM     24  H   UNL     1     -32.983  29.133   4.159  0.00  0.00    +0.295 HD
ENDBRANCH  22  23
ENDBRANCH  20  22
BRANCH  20  25
ATOM     25  C   UNL     1     -35.937  31.307   2.640  0.00  0.00    -0.006 C 
BRANCH  25  26
ATOM     26  C   UNL     1     -36.181  32.013   1.298  0.00  0.00    +0.025 C 
BRANCH  26  27
ATOM     27  C   UNL     1     -36.944  33.311   1.403  0.00  0.00    -0.022 C 
ATOM     28  C   UNL     1     -38.257  33.311   1.876  0.00  0.00    -0.004 C 
ATOM     29  C   UNL     1     -36.339  34.510   1.028  0.00  0.00    -0.004 C 
ATOM     30  C   UNL     1     -38.963  34.510   1.974  0.00  0.00    -0.000 C 
ATOM     31  C   UNL     1     -37.045  35.708   1.126  0.00  0.00    -0.000 C 
ATOM     32  C   UNL     1     -38.357  35.708   1.599  0.00  0.00    -0.000 C 
ENDBRANCH  26  27
ENDBRANCH  25  26
ENDBRANCH  20  25
ENDBRANCH   1  20
TORSDOF 10
ENDMDL
MODEL 9
REMARK VINA RESULT:      -6.0      3.563      6.611
REMARK  Name = 5464096
REMARK  10 active torsions:
REMARK  status: ('A' for Active; 'I' for Inactive)
REMARK    1  A    between atoms: N_1  and  CA_4
REMARK    2  A    between atoms: N_1  and  CA_20
REMARK    3  A    between atoms: CA_4  and  C_15
REMARK    4  A    between atoms: CA_13  and  C_17
REMARK    5  A    between atoms: C_17  and  O_18
REMARK    6  A    between atoms: CA_20  and  C_22
REMARK    7  A    between atoms: CA_20  and  C_25
REMARK    8  A    between atoms: C_22  and  O_23
REMARK    9  A    between atoms: C_25  and  C_26
REMARK   10  A    between atoms: C_26  and  C_27
REMARK                            x       y       z     vdW  Elec       q    Type
REMARK                         _______ _______ _______ _____ _____    ______ ____
ROOT
ATOM      1  N   UNL     1     -37.318  26.522   2.400  0.00  0.00    +0.399 N 
ATOM      2  H1  UNL     1     -37.752  27.331   2.845  0.00  0.00    -0.083 HD
ATOM      3  H2  UNL     1     -36.625  26.102   3.020  0.00  0.00    -0.083 HD
ENDROOT
BRANCH   1   4
ATOM      4  CA  UNL     1     -36.650  26.949   1.184  0.00  0.00    +0.018 C 
ATOM      5  CB  UNL     1     -37.589  26.887  -0.004  0.00  0.00    -0.014 C 
BRANCH   4  15
ATOM      6  O   UNL     1     -36.989  29.301   1.253  0.00  0.00    -0.277 OA
ATOM      7  N   UNL     1     -34.871  28.537   1.784  0.00  0.00    -0.275 N 
ATOM      8  C   UNL     1     -32.771  29.639   2.106  0.00  0.00    +0.020 C 
ATOM      9  C   UNL     1     -34.275  29.865   1.887  0.00  0.00    +0.076 C 
ATOM     10  C   UNL     1     -32.528  28.164   1.799  0.00  0.00    +0.033 C 
ATOM     11  C   UNL     1     -32.498  30.063   3.547  0.00  0.00    +0.002 C 
ATOM     12  C   UNL     1     -34.768  30.659   3.103  0.00  0.00    +0.020 C 
ATOM     13  CA  UNL     1     -33.881  27.485   1.987  0.00  0.00    +0.174 C 
ATOM     14  C   UNL     1     -33.504  31.178   3.775  0.00  0.00    +0.002 C 
ATOM     15  C   UNL     1     -36.197  28.369   1.408  0.00  0.00    +0.206 C 
BRANCH  13  17
ATOM     16  OXT UNL     1     -34.864  27.310   4.189  0.00  0.00    -0.248 OA
ATOM     17  C   UNL     1     -34.034  26.936   3.374  0.00  0.00    +0.332 C 
BRANCH  17  18
ATOM     18  O   UNL     1     -33.120  25.962   3.606  0.00  0.00    -0.479 OA
ATOM     19  H   UNL     1     -33.397  25.128   3.930  0.00  0.00    +0.295 HD
ENDBRANCH  17  18
ENDBRANCH  13  17
ENDBRANCH   4  15
ENDBRANCH   1   4
BRANCH   1  20
ATOM     20  CA  UNL     1     -38.346  25.529   2.114  0.00  0.00    +0.041 C 
BRANCH  20  22
ATOM     21  OXT UNL     1     -40.294  26.785   2.859  0.00  0.00    -0.253 OA
ATOM     22  C   UNL     1     -39.527  25.843   3.015  0.00  0.00    +0.293 C 
BRANCH  22  23
ATOM     23  O   UNL     1     -39.668  24.942   4.021  0.00  0.00    -0.482 OA
ATOM     24  H   UNL     1     -39.477  25.192   4.904  0.00  0.00    +0.295 HD
ENDBRANCH  22  23
ENDBRANCH  20  22
BRANCH  20  25
ATOM     25  C   UNL     1     -37.790  24.127   2.399  0.00  0.00    -0.006 C 
BRANCH  25  26
ATOM     26  C   UNL     1     -36.271  24.077   2.621  0.00  0.00    +0.025 C 
BRANCH  26  27
ATOM     27  C   UNL     1     -35.843  23.316   3.852  0.00  0.00    -0.022 C 
ATOM     28  C   UNL     1     -35.732  23.977   5.076  0.00  0.00    -0.004 C 
ATOM     29  C   UNL     1     -35.558  21.953   3.768  0.00  0.00    -0.004 C 
ATOM     30  C   UNL     1     -35.337  23.274   6.215  0.00  0.00    -0.000 C 
ATOM     31  C   UNL     1     -35.163  21.251   4.906  0.00  0.00    -0.000 C 
ATOM     32  C   UNL     1     -35.053  21.912   6.130  0.00  0.00    -0.000 C 
ENDBRANCH  26  27
ENDBRANCH  25  26
ENDBRANCH  20  25
ENDBRANCH   1  20
TORSDOF 10
ENDMDL
