MODEL 1
REMARK VINA RESULT:      -6.5      0.000      0.000
REMARK  Name = 54675783
REMARK  7 active torsions:
REMARK  status: ('A' for Active; 'I' for Inactive)
REMARK    1  A    between atoms: C_4  and  O_33
REMARK    2  A    between atoms: C_7  and  N_26
REMARK    3  A    between atoms: C_11  and  O_35
REMARK    4  A    between atoms: C_14  and  C_23
REMARK    5  A    between atoms: C_15  and  O_37
REMARK    6  A    between atoms: C_17  and  N_30
REMARK    7  A    between atoms: C_18  and  O_39
REMARK                            x       y       z     vdW  Elec       q    Type
REMARK                         _______ _______ _______ _____ _____    ______ ____
ROOT
ATOM      1  O   UNL     1     -38.267  24.682   4.142  0.00  0.00    -0.289 OA
ATOM      2  O   UNL     1     -32.856  27.921   2.411  0.00  0.00    -0.293 OA
ATOM      3  C   UNL     1     -34.727  25.188   3.937  0.00  0.00    +0.027 C 
ATOM      4  C   UNL     1     -36.141  25.771   3.779  0.00  0.00    +0.191 C 
ATOM      5  C   UNL     1     -34.386  24.201   2.804  0.00  0.00    +0.006 C 
ATOM      6  C   UNL     1     -35.387  23.042   2.695  0.00  0.00    +0.033 C 
ATOM      7  C   UNL     1     -33.666  26.304   3.976  0.00  0.00    +0.009 C 
ATOM      8  C   UNL     1     -36.815  23.521   2.669  0.00  0.00    +0.049 C 
ATOM      9  C   UNL     1     -37.171  24.653   3.581  0.00  0.00    +0.203 C 
ATOM     10  C   UNL     1     -35.024  22.201   1.451  0.00  0.00    +0.032 C 
ATOM     11  C   UNL     1     -36.243  26.809   2.678  0.00  0.00    +0.149 C 
ATOM     12  C   UNL     1     -33.824  27.274   2.816  0.00  0.00    +0.161 C 
ATOM     13  C   UNL     1     -36.144  21.313   0.977  0.00  0.00    -0.003 C 
ATOM     14  C   UNL     1     -35.177  27.482   2.198  0.00  0.00    +0.118 C 
ATOM     15  C   UNL     1     -37.778  22.934   1.932  0.00  0.00    +0.135 C 
ATOM     16  C   UNL     1     -37.485  21.694   1.178  0.00  0.00    +0.064 C 
ATOM     17  C   UNL     1     -35.840  20.140   0.268  0.00  0.00    +0.044 C 
ATOM     18  C   UNL     1     -38.498  20.848   0.694  0.00  0.00    +0.136 C 
ATOM     19  C   UNL     1     -36.859  19.323  -0.214  0.00  0.00    +0.017 C 
ATOM     20  C   UNL     1     -38.187  19.675   0.003  0.00  0.00    +0.038 C 
ENDROOT
BRANCH  14  23
ATOM     21  O   UNL     1     -36.061  29.408   1.165  0.00  0.00    -0.270 OA
ATOM     22  N   UNL     1     -34.541  28.121  -0.000  0.00  0.00    -0.325 N 
ATOM     23  C   UNL     1     -35.316  28.439   1.085  0.00  0.00    +0.248 C 
ATOM     24  H   UNL     1     -34.556  28.693  -0.802  0.00  0.00    +0.145 HD
ATOM     25  H   UNL     1     -33.968  27.319   0.021  0.00  0.00    +0.145 HD
ENDBRANCH  14  23
BRANCH   7  26
ATOM     26  N   UNL     1     -33.699  27.111   5.194  0.00  0.00    +0.390 N 
ATOM     27  C   UNL     1     -32.568  28.036   5.222  0.00  0.00    -0.100 C 
ATOM     28  C   UNL     1     -33.688  26.250   6.375  0.00  0.00    -0.100 C 
ATOM     29  H   UNL     1     -34.561  27.656   5.200  0.00  0.00    -0.079 HD
ENDBRANCH   7  26
BRANCH  17  30
ATOM     30  N   UNL     1     -34.502  19.761   0.013  0.00  0.00    -0.304 N 
ATOM     31  C   UNL     1     -33.866  20.119  -1.238  0.00  0.00    +0.112 C 
ATOM     32  C   UNL     1     -33.756  19.006   0.999  0.00  0.00    +0.112 C 
ENDBRANCH  17  30
BRANCH   4  33
ATOM     33  O   UNL     1     -36.514  26.398   5.012  0.00  0.00    -0.373 OA
ATOM     34  H   UNL     1     -37.242  27.020   4.850  0.00  0.00    +0.211 HD
ENDBRANCH   4  33
BRANCH  11  35
ATOM     35  O   UNL     1     -37.542  27.006   2.242  0.00  0.00    -0.507 OA
ATOM     36  H   UNL     1     -37.719  27.629   1.563  0.00  0.00    +0.292 HD
ENDBRANCH  11  35
BRANCH  15  37
ATOM     37  O   UNL     1     -39.065  23.435   1.884  0.00  0.00    -0.506 OA
ATOM     38  H   UNL     1     -39.358  24.038   2.538  0.00  0.00    +0.292 HD
ENDBRANCH  15  37
BRANCH  18  39
ATOM     39  O   UNL     1     -39.826  21.105   0.892  0.00  0.00    -0.505 OA
ATOM     40  H   UNL     1     -40.460  20.801   0.273  0.00  0.00    +0.292 HD
ENDBRANCH  18  39
TORSDOF 7
ENDMDL
MODEL 2
REMARK VINA RESULT:      -6.5      2.639      7.573
REMARK  Name = 54675783
REMARK  7 active torsions:
REMARK  status: ('A' for Active; 'I' for Inactive)
REMARK    1  A    between atoms: C_4  and  O_33
REMARK    2  A    between atoms: C_7  and  N_26
REMARK    3  A    between atoms: C_11  and  O_35
REMARK    4  A    between atoms: C_14  and  C_23
REMARK    5  A    between atoms: C_15  and  O_37
REMARK    6  A    between atoms: C_17  and  N_30
REMARK    7  A    between atoms: C_18  and  O_39
REMARK                            x       y       z     vdW  Elec       q    Type
REMARK                         _______ _______ _______ _____ _____    ______ ____
ROOT
ATOM      1  O   UNL     1     -36.194  25.939   5.929  0.00  0.00    -0.289 OA
ATOM      2  O   UNL     1     -36.853  22.735   0.267  0.00  0.00    -0.293 OA
ATOM      3  C   UNL     1     -36.889  25.674   2.425  0.00  0.00    +0.027 C 
ATOM      4  C   UNL     1     -36.676  24.963   3.772  0.00  0.00    +0.191 C 
ATOM      5  C   UNL     1     -35.567  26.223   1.853  0.00  0.00    +0.006 C 
ATOM      6  C   UNL     1     -34.852  27.186   2.811  0.00  0.00    +0.033 C 
ATOM      7  C   UNL     1     -37.537  24.730   1.394  0.00  0.00    +0.009 C 
ATOM      8  C   UNL     1     -34.719  26.618   4.199  0.00  0.00    +0.049 C 
ATOM      9  C   UNL     1     -35.889  25.856   4.739  0.00  0.00    +0.203 C 
ATOM     10  C   UNL     1     -33.487  27.561   2.193  0.00  0.00    +0.032 C 
ATOM     11  C   UNL     1     -36.027  23.600   3.636  0.00  0.00    +0.149 C 
ATOM     12  C   UNL     1     -36.798  23.405   1.300  0.00  0.00    +0.161 C 
ATOM     13  C   UNL     1     -32.513  28.135   3.189  0.00  0.00    -0.003 C 
ATOM     14  C   UNL     1     -36.042  22.887   2.490  0.00  0.00    +0.118 C 
ATOM     15  C   UNL     1     -33.646  26.830   4.985  0.00  0.00    +0.135 C 
ATOM     16  C   UNL     1     -32.569  27.745   4.541  0.00  0.00    +0.064 C 
ATOM     17  C   UNL     1     -31.504  29.003   2.744  0.00  0.00    +0.044 C 
ATOM     18  C   UNL     1     -31.623  28.283   5.430  0.00  0.00    +0.136 C 
ATOM     19  C   UNL     1     -30.569  29.516   3.638  0.00  0.00    +0.017 C 
ATOM     20  C   UNL     1     -30.632  29.159   4.981  0.00  0.00    +0.038 C 
ENDROOT
BRANCH  14  23
ATOM     21  O   UNL     1     -35.522  20.704   3.213  0.00  0.00    -0.270 OA
ATOM     22  N   UNL     1     -34.514  21.511   1.299  0.00  0.00    -0.325 N 
ATOM     23  C   UNL     1     -35.345  21.592   2.388  0.00  0.00    +0.248 C 
ATOM     24  H   UNL     1     -33.998  20.689   1.133  0.00  0.00    +0.145 HD
ATOM     25  H   UNL     1     -34.432  22.276   0.684  0.00  0.00    +0.145 HD
ENDBRANCH  14  23
BRANCH   7  26
ATOM     26  N   UNL     1     -38.931  24.404   1.684  0.00  0.00    +0.390 N 
ATOM     27  C   UNL     1     -39.456  23.479   0.681  0.00  0.00    -0.100 C 
ATOM     28  C   UNL     1     -39.739  25.621   1.732  0.00  0.00    -0.100 C 
ATOM     29  H   UNL     1     -38.977  23.950   2.596  0.00  0.00    -0.079 HD
ENDBRANCH   7  26
BRANCH  17  30
ATOM     30  N   UNL     1     -31.400  29.372   1.382  0.00  0.00    -0.304 N 
ATOM     31  C   UNL     1     -30.589  28.589   0.473  0.00  0.00    +0.112 C 
ATOM     32  C   UNL     1     -32.097  30.541   0.887  0.00  0.00    +0.112 C 
ENDBRANCH  17  30
BRANCH   4  33
ATOM     33  O   UNL     1     -37.952  24.783   4.397  0.00  0.00    -0.373 OA
ATOM     34  H   UNL     1     -37.834  24.329   5.247  0.00  0.00    +0.211 HD
ENDBRANCH   4  33
BRANCH  11  35
ATOM     35  O   UNL     1     -35.443  23.160   4.812  0.00  0.00    -0.507 OA
ATOM     36  H   UNL     1     -35.978  22.815   5.501  0.00  0.00    +0.292 HD
ENDBRANCH  11  35
BRANCH  15  37
ATOM     37  O   UNL     1     -33.528  26.245   6.232  0.00  0.00    -0.506 OA
ATOM     38  H   UNL     1     -34.121  25.567   6.488  0.00  0.00    +0.292 HD
ENDBRANCH  15  37
BRANCH  18  39
ATOM     39  O   UNL     1     -31.634  28.009   6.769  0.00  0.00    -0.505 OA
ATOM     40  H   UNL     1     -30.877  28.189   7.291  0.00  0.00    +0.292 HD
ENDBRANCH  18  39
TORSDOF 7
ENDMDL
MODEL 3
REMARK VINA RESULT:      -6.4      3.286      7.749
REMARK  Name = 54675783
REMARK  7 active torsions:
REMARK  status: ('A' for Active; 'I' for Inactive)
REMARK    1  A    between atoms: C_4  and  O_33
REMARK    2  A    between atoms: C_7  and  N_26
REMARK    3  A    between atoms: C_11  and  O_35
REMARK    4  A    between atoms: C_14  and  C_23
REMARK    5  A    between atoms: C_15  and  O_37
REMARK    6  A    between atoms: C_17  and  N_30
REMARK    7  A    between atoms: C_18  and  O_39
REMARK                            x       y       z     vdW  Elec       q    Type
REMARK                         _______ _______ _______ _____ _____    ______ ____
ROOT
ATOM      1  O   UNL     1     -36.553  19.805   2.319  0.00  0.00    -0.289 OA
ATOM      2  O   UNL     1     -31.960  20.343  -2.306  0.00  0.00    -0.293 OA
ATOM      3  C   UNL     1     -35.053  21.245  -0.598  0.00  0.00    +0.027 C 
ATOM      4  C   UNL     1     -35.096  20.086   0.411  0.00  0.00    +0.191 C 
ATOM      5  C   UNL     1     -34.446  22.520   0.021  0.00  0.00    +0.006 C 
ATOM      6  C   UNL     1     -35.190  22.990   1.279  0.00  0.00    +0.033 C 
ATOM      7  C   UNL     1     -34.251  20.859  -1.856  0.00  0.00    +0.009 C 
ATOM      8  C   UNL     1     -35.395  21.875   2.271  0.00  0.00    +0.049 C 
ATOM      9  C   UNL     1     -35.757  20.531   1.722  0.00  0.00    +0.203 C 
ATOM     10  C   UNL     1     -34.418  24.183   1.883  0.00  0.00    +0.032 C 
ATOM     11  C   UNL     1     -33.739  19.463   0.668  0.00  0.00    +0.149 C 
ATOM     12  C   UNL     1     -32.892  20.278  -1.501  0.00  0.00    +0.161 C 
ATOM     13  C   UNL     1     -34.771  24.463   3.320  0.00  0.00    -0.003 C 
ATOM     14  C   UNL     1     -32.701  19.575  -0.187  0.00  0.00    +0.118 C 
ATOM     15  C   UNL     1     -35.344  22.054   3.606  0.00  0.00    +0.135 C 
ATOM     16  C   UNL     1     -35.184  23.416   4.167  0.00  0.00    +0.064 C 
ATOM     17  C   UNL     1     -34.615  25.763   3.827  0.00  0.00    +0.044 C 
ATOM     18  C   UNL     1     -35.477  23.718   5.507  0.00  0.00    +0.136 C 
ATOM     19  C   UNL     1     -34.898  26.038   5.162  0.00  0.00    +0.017 C 
ATOM     20  C   UNL     1     -35.333  25.017   6.000  0.00  0.00    +0.038 C 
ENDROOT
BRANCH  14  23
ATOM     21  O   UNL     1     -31.265  17.849   0.530  0.00  0.00    -0.270 OA
ATOM     22  N   UNL     1     -30.349  19.884  -0.061  0.00  0.00    -0.325 N 
ATOM     23  C   UNL     1     -31.381  19.002   0.133  0.00  0.00    +0.248 C 
ATOM     24  H   UNL     1     -29.421  19.606   0.123  0.00  0.00    +0.145 HD
ATOM     25  H   UNL     1     -30.533  20.796  -0.384  0.00  0.00    +0.145 HD
ENDBRANCH  14  23
BRANCH   7  26
ATOM     26  N   UNL     1     -34.914  19.869  -2.700  0.00  0.00    +0.390 N 
ATOM     27  C   UNL     1     -34.079  19.543  -3.854  0.00  0.00    -0.100 C 
ATOM     28  C   UNL     1     -36.220  20.362  -3.134  0.00  0.00    -0.100 C 
ATOM     29  H   UNL     1     -35.056  19.018  -2.155  0.00  0.00    -0.079 HD
ENDBRANCH   7  26
BRANCH  17  30
ATOM     30  N   UNL     1     -34.158  26.821   3.008  0.00  0.00    -0.304 N 
ATOM     31  C   UNL     1     -32.740  27.092   2.888  0.00  0.00    +0.112 C 
ATOM     32  C   UNL     1     -35.103  27.649   2.288  0.00  0.00    +0.112 C 
ENDBRANCH  17  30
BRANCH   4  33
ATOM     33  O   UNL     1     -35.959  19.066  -0.106  0.00  0.00    -0.373 OA
ATOM     34  H   UNL     1     -36.232  18.478   0.617  0.00  0.00    +0.211 HD
ENDBRANCH   4  33
BRANCH  11  35
ATOM     35  O   UNL     1     -33.687  18.750   1.854  0.00  0.00    -0.507 OA
ATOM     36  H   UNL     1     -33.842  19.186   2.670  0.00  0.00    +0.292 HD
ENDBRANCH  11  35
BRANCH  15  37
ATOM     37  O   UNL     1     -35.477  21.000   4.488  0.00  0.00    -0.506 OA
ATOM     38  H   UNL     1     -35.273  20.129   4.211  0.00  0.00    +0.292 HD
ENDBRANCH  15  37
BRANCH  18  39
ATOM     39  O   UNL     1     -35.938  22.780   6.388  0.00  0.00    -0.505 OA
ATOM     40  H   UNL     1     -36.610  23.002   7.002  0.00  0.00    +0.292 HD
ENDBRANCH  18  39
TORSDOF 7
ENDMDL
MODEL 4
REMARK VINA RESULT:      -6.4      3.349      5.795
REMARK  Name = 54675783
REMARK  7 active torsions:
REMARK  status: ('A' for Active; 'I' for Inactive)
REMARK    1  A    between atoms: C_4  and  O_33
REMARK    2  A    between atoms: C_7  and  N_26
REMARK    3  A    between atoms: C_11  and  O_35
REMARK    4  A    between atoms: C_14  and  C_23
REMARK    5  A    between atoms: C_15  and  O_37
REMARK    6  A    between atoms: C_17  and  N_30
REMARK    7  A    between atoms: C_18  and  O_39
REMARK                            x       y       z     vdW  Elec       q    Type
REMARK                         _______ _______ _______ _____ _____    ______ ____
ROOT
ATOM      1  O   UNL     1     -35.463  20.961   3.771  0.00  0.00    -0.289 OA
ATOM      2  O   UNL     1     -39.340  24.304  -0.299  0.00  0.00    -0.293 OA
ATOM      3  C   UNL     1     -36.329  23.737   1.680  0.00  0.00    +0.027 C 
ATOM      4  C   UNL     1     -36.781  22.462   2.410  0.00  0.00    +0.191 C 
ATOM      5  C   UNL     1     -35.468  23.412   0.443  0.00  0.00    +0.006 C 
ATOM      6  C   UNL     1     -34.228  22.572   0.778  0.00  0.00    +0.033 C 
ATOM      7  C   UNL     1     -37.538  24.589   1.248  0.00  0.00    +0.009 C 
ATOM      8  C   UNL     1     -34.565  21.365   1.613  0.00  0.00    +0.049 C 
ATOM      9  C   UNL     1     -35.584  21.545   2.694  0.00  0.00    +0.203 C 
ATOM     10  C   UNL     1     -33.522  22.198  -0.544  0.00  0.00    +0.032 C 
ATOM     11  C   UNL     1     -37.882  21.712   1.687  0.00  0.00    +0.149 C 
ATOM     12  C   UNL     1     -38.572  23.763   0.499  0.00  0.00    +0.161 C 
ATOM     13  C   UNL     1     -32.566  21.042  -0.409  0.00  0.00    -0.003 C 
ATOM     14  C   UNL     1     -38.691  22.291   0.774  0.00  0.00    +0.118 C 
ATOM     15  C   UNL     1     -33.942  20.177   1.480  0.00  0.00    +0.135 C 
ATOM     16  C   UNL     1     -32.796  20.039   0.552  0.00  0.00    +0.064 C 
ATOM     17  C   UNL     1     -31.485  20.936  -1.298  0.00  0.00    +0.044 C 
ATOM     18  C   UNL     1     -31.894  18.964   0.623  0.00  0.00    +0.136 C 
ATOM     19  C   UNL     1     -30.609  19.857  -1.219  0.00  0.00    +0.017 C 
ATOM     20  C   UNL     1     -30.812  18.874  -0.255  0.00  0.00    +0.038 C 
ENDROOT
BRANCH  14  23
ATOM     21  O   UNL     1     -40.616  20.936   0.646  0.00  0.00    -0.270 OA
ATOM     22  N   UNL     1     -39.524  21.502  -1.307  0.00  0.00    -0.325 N 
ATOM     23  C   UNL     1     -39.710  21.508   0.052  0.00  0.00    +0.248 C 
ATOM     24  H   UNL     1     -40.147  21.009  -1.888  0.00  0.00    +0.145 HD
ATOM     25  H   UNL     1     -38.765  21.991  -1.702  0.00  0.00    +0.145 HD
ENDBRANCH  14  23
BRANCH   7  26
ATOM     26  N   UNL     1     -38.244  25.221   2.360  0.00  0.00    +0.390 N 
ATOM     27  C   UNL     1     -39.339  26.052   1.861  0.00  0.00    -0.100 C 
ATOM     28  C   UNL     1     -37.319  26.018   3.163  0.00  0.00    -0.100 C 
ATOM     29  H   UNL     1     -38.639  24.490   2.953  0.00  0.00    -0.079 HD
ENDBRANCH   7  26
BRANCH  17  30
ATOM     30  N   UNL     1     -31.259  21.907  -2.301  0.00  0.00    -0.304 N 
ATOM     31  C   UNL     1     -30.440  23.069  -2.023  0.00  0.00    +0.112 C 
ATOM     32  C   UNL     1     -31.852  21.753  -3.614  0.00  0.00    +0.112 C 
ENDBRANCH  17  30
BRANCH   4  33
ATOM     33  O   UNL     1     -37.274  22.830   3.704  0.00  0.00    -0.373 OA
ATOM     34  H   UNL     1     -36.996  23.736   3.909  0.00  0.00    +0.211 HD
ENDBRANCH   4  33
BRANCH  11  35
ATOM     35  O   UNL     1     -37.983  20.389   2.079  0.00  0.00    -0.507 OA
ATOM     36  H   UNL     1     -38.371  19.757   1.505  0.00  0.00    +0.292 HD
ENDBRANCH  11  35
BRANCH  15  37
ATOM     37  O   UNL     1     -34.315  19.072   2.220  0.00  0.00    -0.506 OA
ATOM     38  H   UNL     1     -35.157  19.045   2.630  0.00  0.00    +0.292 HD
ENDBRANCH  15  37
BRANCH  18  39
ATOM     39  O   UNL     1     -32.004  17.974   1.559  0.00  0.00    -0.505 OA
ATOM     40  H   UNL     1     -32.409  17.159   1.335  0.00  0.00    +0.292 HD
ENDBRANCH  18  39
TORSDOF 7
ENDMDL
MODEL 5
REMARK VINA RESULT:      -6.2      2.011      2.646
REMARK  Name = 54675783
REMARK  7 active torsions:
REMARK  status: ('A' for Active; 'I' for Inactive)
REMARK    1  A    between atoms: C_4  and  O_33
REMARK    2  A    between atoms: C_7  and  N_26
REMARK    3  A    between atoms: C_11  and  O_35
REMARK    4  A    between atoms: C_14  and  C_23
REMARK    5  A    between atoms: C_15  and  O_37
REMARK    6  A    between atoms: C_17  and  N_30
REMARK    7  A    between atoms: C_18  and  O_39
REMARK                            x       y       z     vdW  Elec       q    Type
REMARK                         _______ _______ _______ _____ _____    ______ ____
ROOT
ATOM      1  O   UNL     1     -36.754  24.192   4.470  0.00  0.00    -0.289 OA
ATOM      2  O   UNL     1     -35.966  29.099   0.218  0.00  0.00    -0.293 OA
ATOM      3  C   UNL     1     -34.835  26.473   2.482  0.00  0.00    +0.027 C 
ATOM      4  C   UNL     1     -36.201  26.084   3.071  0.00  0.00    +0.191 C 
ATOM      5  C   UNL     1     -34.422  25.533   1.332  0.00  0.00    +0.006 C 
ATOM      6  C   UNL     1     -34.376  24.057   1.748  0.00  0.00    +0.033 C 
ATOM      7  C   UNL     1     -34.841  27.927   1.974  0.00  0.00    +0.009 C 
ATOM      8  C   UNL     1     -35.632  23.625   2.459  0.00  0.00    +0.049 C 
ATOM      9  C   UNL     1     -36.235  24.593   3.427  0.00  0.00    +0.203 C 
ATOM     10  C   UNL     1     -34.086  23.206   0.493  0.00  0.00    +0.032 C 
ATOM     11  C   UNL     1     -37.369  26.460   2.181  0.00  0.00    +0.149 C 
ATOM     12  C   UNL     1     -36.025  28.201   1.061  0.00  0.00    +0.161 C 
ATOM     13  C   UNL     1     -34.436  21.750   0.658  0.00  0.00    -0.003 C 
ATOM     14  C   UNL     1     -37.291  27.408   1.223  0.00  0.00    +0.118 C 
ATOM     15  C   UNL     1     -36.176  22.400   2.319  0.00  0.00    +0.135 C 
ATOM     16  C   UNL     1     -35.482  21.365   1.518  0.00  0.00    +0.064 C 
ATOM     17  C   UNL     1     -33.760  20.788  -0.109  0.00  0.00    +0.044 C 
ATOM     18  C   UNL     1     -35.793  19.999   1.620  0.00  0.00    +0.136 C 
ATOM     19  C   UNL     1     -34.092  19.440  -0.003  0.00  0.00    +0.017 C 
ATOM     20  C   UNL     1     -35.105  19.046   0.865  0.00  0.00    +0.038 C 
ENDROOT
BRANCH  14  23
ATOM     21  O   UNL     1     -39.556  27.899   0.793  0.00  0.00    -0.270 OA
ATOM     22  N   UNL     1     -38.101  27.714  -0.989  0.00  0.00    -0.325 N 
ATOM     23  C   UNL     1     -38.435  27.698   0.341  0.00  0.00    +0.248 C 
ATOM     24  H   UNL     1     -38.790  27.897  -1.669  0.00  0.00    +0.145 HD
ATOM     25  H   UNL     1     -37.172  27.541  -1.266  0.00  0.00    +0.145 HD
ENDBRANCH  14  23
BRANCH   7  26
ATOM     26  N   UNL     1     -34.903  28.926   3.038  0.00  0.00    +0.390 N 
ATOM     27  C   UNL     1     -35.295  30.225   2.494  0.00  0.00    -0.100 C 
ATOM     28  C   UNL     1     -33.615  29.022   3.721  0.00  0.00    -0.100 C 
ATOM     29  H   UNL     1     -35.607  28.635   3.717  0.00  0.00    -0.079 HD
ENDBRANCH   7  26
BRANCH  17  30
ATOM     30  N   UNL     1     -32.737  21.155  -1.014  0.00  0.00    -0.304 N 
ATOM     31  C   UNL     1     -33.067  21.559  -2.366  0.00  0.00    +0.112 C 
ATOM     32  C   UNL     1     -31.350  21.125  -0.601  0.00  0.00    +0.112 C 
ENDBRANCH  17  30
BRANCH   4  33
ATOM     33  O   UNL     1     -36.365  26.762   4.323  0.00  0.00    -0.373 OA
ATOM     34  H   UNL     1     -37.090  27.403   4.250  0.00  0.00    +0.211 HD
ENDBRANCH   4  33
BRANCH  11  35
ATOM     35  O   UNL     1     -38.521  25.749   2.472  0.00  0.00    -0.507 OA
ATOM     36  H   UNL     1     -39.127  25.539   1.788  0.00  0.00    +0.292 HD
ENDBRANCH  11  35
BRANCH  15  37
ATOM     37  O   UNL     1     -37.363  22.055   2.937  0.00  0.00    -0.506 OA
ATOM     38  H   UNL     1     -38.180  22.252   2.525  0.00  0.00    +0.292 HD
ENDBRANCH  15  37
BRANCH  18  39
ATOM     39  O   UNL     1     -36.753  19.526   2.470  0.00  0.00    -0.505 OA
ATOM     40  H   UNL     1     -37.216  20.117   3.031  0.00  0.00    +0.292 HD
ENDBRANCH  18  39
TORSDOF 7
ENDMDL
MODEL 6
REMARK VINA RESULT:      -6.1      3.269      6.841
REMARK  Name = 54675783
REMARK  7 active torsions:
REMARK  status: ('A' for Active; 'I' for Inactive)
REMARK    1  A    between atoms: C_4  and  O_33
REMARK    2  A    between atoms: C_7  and  N_26
REMARK    3  A    between atoms: C_11  and  O_35
REMARK    4  A    between atoms: C_14  and  C_23
REMARK    5  A    between atoms: C_15  and  O_37
REMARK    6  A    between atoms: C_17  and  N_30
REMARK    7  A    between atoms: C_18  and  O_39
REMARK                            x       y       z     vdW  Elec       q    Type
REMARK                         _______ _______ _______ _____ _____    ______ ____
ROOT
ATOM      1  O   UNL     1     -34.748  27.662   4.234  0.00  0.00    -0.289 OA
ATOM      2  O   UNL     1     -37.539  21.937   2.748  0.00  0.00    -0.293 OA
ATOM      3  C   UNL     1     -36.397  25.333   2.068  0.00  0.00    +0.027 C 
ATOM      4  C   UNL     1     -35.979  25.717   3.498  0.00  0.00    +0.191 C 
ATOM      5  C   UNL     1     -35.194  24.858   1.230  0.00  0.00    +0.006 C 
ATOM      6  C   UNL     1     -34.068  25.898   1.151  0.00  0.00    +0.033 C 
ATOM      7  C   UNL     1     -37.475  24.233   2.080  0.00  0.00    +0.009 C 
ATOM      8  C   UNL     1     -33.686  26.430   2.507  0.00  0.00    +0.049 C 
ATOM      9  C   UNL     1     -34.797  26.694   3.474  0.00  0.00    +0.203 C 
ATOM     10  C   UNL     1     -32.872  25.265   0.407  0.00  0.00    +0.032 C 
ATOM     11  C   UNL     1     -35.681  24.520   4.379  0.00  0.00    +0.149 C 
ATOM     12  C   UNL     1     -37.074  23.059   2.959  0.00  0.00    +0.161 C 
ATOM     13  C   UNL     1     -31.572  25.991   0.629  0.00  0.00    -0.003 C 
ATOM     14  C   UNL     1     -36.148  23.280   4.121  0.00  0.00    +0.118 C 
ATOM     15  C   UNL     1     -32.421  26.746   2.848  0.00  0.00    +0.135 C 
ATOM     16  C   UNL     1     -31.340  26.678   1.837  0.00  0.00    +0.064 C 
ATOM     17  C   UNL     1     -30.565  25.915  -0.346  0.00  0.00    +0.044 C 
ATOM     18  C   UNL     1     -30.102  27.318   2.014  0.00  0.00    +0.136 C 
ATOM     19  C   UNL     1     -29.340  26.546  -0.146  0.00  0.00    +0.017 C 
ATOM     20  C   UNL     1     -29.111  27.250   1.032  0.00  0.00    +0.038 C 
ENDROOT
BRANCH  14  23
ATOM     21  O   UNL     1     -35.897  22.182   6.192  0.00  0.00    -0.270 OA
ATOM     22  N   UNL     1     -35.319  21.058   4.261  0.00  0.00    -0.325 N 
ATOM     23  C   UNL     1     -35.782  22.134   4.973  0.00  0.00    +0.248 C 
ATOM     24  H   UNL     1     -35.045  20.236   4.731  0.00  0.00    +0.145 HD
ATOM     25  H   UNL     1     -35.259  21.106   3.279  0.00  0.00    +0.145 HD
ENDBRANCH  14  23
BRANCH   7  26
ATOM     26  N   UNL     1     -38.777  24.684   2.567  0.00  0.00    +0.390 N 
ATOM     27  C   UNL     1     -39.765  23.615   2.440  0.00  0.00    -0.100 C 
ATOM     28  C   UNL     1     -39.209  25.873   1.835  0.00  0.00    -0.100 C 
ATOM     29  H   UNL     1     -38.689  24.927   3.554  0.00  0.00    -0.079 HD
ENDBRANCH   7  26
BRANCH  17  30
ATOM     30  N   UNL     1     -30.757  25.193  -1.546  0.00  0.00    -0.304 N 
ATOM     31  C   UNL     1     -31.291  25.853  -2.719  0.00  0.00    +0.112 C 
ATOM     32  C   UNL     1     -30.427  23.784  -1.612  0.00  0.00    +0.112 C 
ENDBRANCH  17  30
BRANCH   4  33
ATOM     33  O   UNL     1     -37.049  26.453   4.102  0.00  0.00    -0.373 OA
ATOM     34  H   UNL     1     -37.584  26.872   3.409  0.00  0.00    +0.211 HD
ENDBRANCH   4  33
BRANCH  11  35
ATOM     35  O   UNL     1     -34.905  24.840   5.480  0.00  0.00    -0.507 OA
ATOM     36  H   UNL     1     -34.801  25.736   5.736  0.00  0.00    +0.292 HD
ENDBRANCH  11  35
BRANCH  15  37
ATOM     37  O   UNL     1     -32.094  27.175   4.120  0.00  0.00    -0.506 OA
ATOM     38  H   UNL     1     -31.534  27.917   4.234  0.00  0.00    +0.292 HD
ENDBRANCH  15  37
BRANCH  18  39
ATOM     39  O   UNL     1     -29.808  28.055   3.127  0.00  0.00    -0.505 OA
ATOM     40  H   UNL     1     -28.917  28.251   3.338  0.00  0.00    +0.292 HD
ENDBRANCH  18  39
TORSDOF 7
ENDMDL
MODEL 7
REMARK VINA RESULT:      -5.8      2.508      7.546
REMARK  Name = 54675783
REMARK  7 active torsions:
REMARK  status: ('A' for Active; 'I' for Inactive)
REMARK    1  A    between atoms: C_4  and  O_33
REMARK    2  A    between atoms: C_7  and  N_26
REMARK    3  A    between atoms: C_11  and  O_35
REMARK    4  A    between atoms: C_14  and  C_23
REMARK    5  A    between atoms: C_15  and  O_37
REMARK    6  A    between atoms: C_17  and  N_30
REMARK    7  A    between atoms: C_18  and  O_39
REMARK                            x       y       z     vdW  Elec       q    Type
REMARK                         _______ _______ _______ _____ _____    ______ ____
ROOT
ATOM      1  O   UNL     1     -38.123  22.339   2.953  0.00  0.00    -0.289 OA
ATOM      2  O   UNL     1     -34.560  19.643  -1.823  0.00  0.00    -0.293 OA
ATOM      3  C   UNL     1     -36.499  22.295  -0.240  0.00  0.00    +0.027 C 
ATOM      4  C   UNL     1     -36.995  21.508   0.984  0.00  0.00    +0.191 C 
ATOM      5  C   UNL     1     -35.250  23.137   0.090  0.00  0.00    +0.006 C 
ATOM      6  C   UNL     1     -35.475  24.118   1.248  0.00  0.00    +0.033 C 
ATOM      7  C   UNL     1     -36.182  21.353  -1.417  0.00  0.00    +0.009 C 
ATOM      8  C   UNL     1     -36.088  23.450   2.452  0.00  0.00    +0.049 C 
ATOM      9  C   UNL     1     -37.155  22.432   2.197  0.00  0.00    +0.203 C 
ATOM     10  C   UNL     1     -34.130  24.802   1.574  0.00  0.00    +0.032 C 
ATOM     11  C   UNL     1     -36.127  20.311   1.321  0.00  0.00    +0.149 C 
ATOM     12  C   UNL     1     -35.278  20.207  -0.994  0.00  0.00    +0.161 C 
ATOM     13  C   UNL     1     -34.096  25.447   2.935  0.00  0.00    -0.003 C 
ATOM     14  C   UNL     1     -35.301  19.725   0.429  0.00  0.00    +0.118 C 
ATOM     15  C   UNL     1     -35.777  23.782   3.720  0.00  0.00    +0.135 C 
ATOM     16  C   UNL     1     -34.870  24.922   3.988  0.00  0.00    +0.064 C 
ATOM     17  C   UNL     1     -33.232  26.530   3.163  0.00  0.00    +0.044 C 
ATOM     18  C   UNL     1     -34.787  25.538   5.248  0.00  0.00    +0.136 C 
ATOM     19  C   UNL     1     -33.155  27.118   4.422  0.00  0.00    +0.017 C 
ATOM     20  C   UNL     1     -33.936  26.625   5.463  0.00  0.00    +0.038 C 
ENDROOT
BRANCH  14  23
ATOM     21  O   UNL     1     -33.473  18.763   1.564  0.00  0.00    -0.270 OA
ATOM     22  N   UNL     1     -34.815  17.405   0.266  0.00  0.00    -0.325 N 
ATOM     23  C   UNL     1     -34.432  18.601   0.818  0.00  0.00    +0.248 C 
ATOM     24  H   UNL     1     -34.303  16.585   0.459  0.00  0.00    +0.145 HD
ATOM     25  H   UNL     1     -35.602  17.365  -0.325  0.00  0.00    +0.145 HD
ENDBRANCH  14  23
BRANCH   7  26
ATOM     26  N   UNL     1     -37.364  20.744  -2.023  0.00  0.00    +0.390 N 
ATOM     27  C   UNL     1     -36.972  19.831  -3.095  0.00  0.00    -0.100 C 
ATOM     28  C   UNL     1     -38.265  21.776  -2.530  0.00  0.00    -0.100 C 
ATOM     29  H   UNL     1     -37.857  20.208  -1.308  0.00  0.00    -0.079 HD
ENDBRANCH   7  26
BRANCH  17  30
ATOM     30  N   UNL     1     -32.411  27.044   2.133  0.00  0.00    -0.304 N 
ATOM     31  C   UNL     1     -31.047  26.581   1.986  0.00  0.00    +0.112 C 
ATOM     32  C   UNL     1     -32.924  28.045   1.220  0.00  0.00    +0.112 C 
ENDBRANCH  17  30
BRANCH   4  33
ATOM     33  O   UNL     1     -38.318  21.030   0.711  0.00  0.00    -0.373 OA
ATOM     34  H   UNL     1     -38.266  20.231   0.163  0.00  0.00    +0.211 HD
ENDBRANCH   4  33
BRANCH  11  35
ATOM     35  O   UNL     1     -36.291  19.875   2.624  0.00  0.00    -0.507 OA
ATOM     36  H   UNL     1     -36.685  20.439   3.262  0.00  0.00    +0.292 HD
ENDBRANCH  11  35
BRANCH  15  37
ATOM     37  O   UNL     1     -36.312  23.110   4.801  0.00  0.00    -0.506 OA
ATOM     38  H   UNL     1     -37.042  23.472   5.264  0.00  0.00    +0.292 HD
ENDBRANCH  15  37
BRANCH  18  39
ATOM     39  O   UNL     1     -35.542  25.136   6.314  0.00  0.00    -0.505 OA
ATOM     40  H   UNL     1     -36.021  25.766   6.814  0.00  0.00    +0.292 HD
ENDBRANCH  18  39
TORSDOF 7
ENDMDL
MODEL 8
REMARK VINA RESULT:      -5.8      2.835      7.166
REMARK  Name = 54675783
REMARK  7 active torsions:
REMARK  status: ('A' for Active; 'I' for Inactive)
REMARK    1  A    between atoms: C_4  and  O_33
REMARK    2  A    between atoms: C_7  and  N_26
REMARK    3  A    between atoms: C_11  and  O_35
REMARK    4  A    between atoms: C_14  and  C_23
REMARK    5  A    between atoms: C_15  and  O_37
REMARK    6  A    between atoms: C_17  and  N_30
REMARK    7  A    between atoms: C_18  and  O_39
REMARK                            x       y       z     vdW  Elec       q    Type
REMARK                         _______ _______ _______ _____ _____    ______ ____
ROOT
ATOM      1  O   UNL     1     -37.461  26.836   2.315  0.00  0.00    -0.289 OA
ATOM      2  O   UNL     1     -35.102  20.867   3.571  0.00  0.00    -0.293 OA
ATOM      3  C   UNL     1     -35.859  23.747   1.465  0.00  0.00    +0.027 C 
ATOM      4  C   UNL     1     -36.685  24.553   2.481  0.00  0.00    +0.191 C 
ATOM      5  C   UNL     1     -34.392  24.216   1.422  0.00  0.00    +0.006 C 
ATOM      6  C   UNL     1     -34.247  25.710   1.098  0.00  0.00    +0.033 C 
ATOM      7  C   UNL     1     -35.903  22.240   1.784  0.00  0.00    +0.009 C 
ATOM      8  C   UNL     1     -35.131  26.569   1.964  0.00  0.00    +0.049 C 
ATOM      9  C   UNL     1     -36.508  26.059   2.252  0.00  0.00    +0.203 C 
ATOM     10  C   UNL     1     -32.755  26.090   1.216  0.00  0.00    +0.032 C 
ATOM     11  C   UNL     1     -36.396  24.182   3.921  0.00  0.00    +0.149 C 
ATOM     12  C   UNL     1     -35.564  21.961   3.239  0.00  0.00    +0.161 C 
ATOM     13  C   UNL     1     -32.521  27.572   1.353  0.00  0.00    -0.003 C 
ATOM     14  C   UNL     1     -35.843  23.004   4.283  0.00  0.00    +0.118 C 
ATOM     15  C   UNL     1     -34.767  27.786   2.413  0.00  0.00    +0.135 C 
ATOM     16  C   UNL     1     -33.487  28.388   1.973  0.00  0.00    +0.064 C 
ATOM     17  C   UNL     1     -31.302  28.119   0.924  0.00  0.00    +0.044 C 
ATOM     18  C   UNL     1     -33.215  29.761   2.105  0.00  0.00    +0.136 C 
ATOM     19  C   UNL     1     -31.047  29.479   1.075  0.00  0.00    +0.017 C 
ATOM     20  C   UNL     1     -32.005  30.300   1.662  0.00  0.00    +0.038 C 
ENDROOT
BRANCH  14  23
ATOM     21  O   UNL     1     -34.857  23.483   6.370  0.00  0.00    -0.270 OA
ATOM     22  N   UNL     1     -36.047  21.520   6.127  0.00  0.00    -0.325 N 
ATOM     23  C   UNL     1     -35.524  22.711   5.692  0.00  0.00    +0.248 C 
ATOM     24  H   UNL     1     -35.895  21.224   7.054  0.00  0.00    +0.145 HD
ATOM     25  H   UNL     1     -36.573  20.959   5.511  0.00  0.00    +0.145 HD
ENDBRANCH  14  23
BRANCH   7  26
ATOM     26  N   UNL     1     -37.202  21.620   1.538  0.00  0.00    +0.390 N 
ATOM     27  C   UNL     1     -37.121  20.174   1.733  0.00  0.00    -0.100 C 
ATOM     28  C   UNL     1     -37.668  21.931   0.188  0.00  0.00    -0.100 C 
ATOM     29  H   UNL     1     -37.875  21.998   2.206  0.00  0.00    -0.079 HD
ENDBRANCH   7  26
BRANCH  17  30
ATOM     30  N   UNL     1     -30.298  27.312   0.340  0.00  0.00    -0.304 N 
ATOM     31  C   UNL     1     -29.212  26.798   1.148  0.00  0.00    +0.112 C 
ATOM     32  C   UNL     1     -30.344  26.996  -1.072  0.00  0.00    +0.112 C 
ENDBRANCH  17  30
BRANCH   4  33
ATOM     33  O   UNL     1     -38.075  24.307   2.233  0.00  0.00    -0.373 OA
ATOM     34  H   UNL     1     -38.252  24.385   1.282  0.00  0.00    +0.211 HD
ENDBRANCH   4  33
BRANCH  11  35
ATOM     35  O   UNL     1     -36.780  25.162   4.820  0.00  0.00    -0.507 OA
ATOM     36  H   UNL     1     -36.205  25.410   5.519  0.00  0.00    +0.292 HD
ENDBRANCH  11  35
BRANCH  15  37
ATOM     37  O   UNL     1     -35.576  28.525   3.255  0.00  0.00    -0.506 OA
ATOM     38  H   UNL     1     -35.646  28.292   4.160  0.00  0.00    +0.292 HD
ENDBRANCH  15  37
BRANCH  18  39
ATOM     39  O   UNL     1     -34.114  30.639   2.641  0.00  0.00    -0.505 OA
ATOM     40  H   UNL     1     -34.165  31.516   2.314  0.00  0.00    +0.292 HD
ENDBRANCH  18  39
TORSDOF 7
ENDMDL
MODEL 9
REMARK VINA RESULT:      -5.7      2.065      3.046
REMARK  Name = 54675783
REMARK  7 active torsions:
REMARK  status: ('A' for Active; 'I' for Inactive)
REMARK    1  A    between atoms: C_4  and  O_33
REMARK    2  A    between atoms: C_7  and  N_26
REMARK    3  A    between atoms: C_11  and  O_35
REMARK    4  A    between atoms: C_14  and  C_23
REMARK    5  A    between atoms: C_15  and  O_37
REMARK    6  A    between atoms: C_17  and  N_30
REMARK    7  A    between atoms: C_18  and  O_39
REMARK                            x       y       z     vdW  Elec       q    Type
REMARK                         _______ _______ _______ _____ _____    ______ ____
ROOT
ATOM      1  O   UNL     1     -39.287  21.891   2.464  0.00  0.00    -0.289 OA
ATOM      2  O   UNL     1     -33.748  25.343   2.044  0.00  0.00    -0.293 OA
ATOM      3  C   UNL     1     -35.802  22.497   3.035  0.00  0.00    +0.027 C 
ATOM      4  C   UNL     1     -37.170  23.050   2.602  0.00  0.00    +0.191 C 
ATOM      5  C   UNL     1     -35.196  21.570   1.962  0.00  0.00    +0.006 C 
ATOM      6  C   UNL     1     -36.110  20.392   1.600  0.00  0.00    +0.033 C 
ATOM      7  C   UNL     1     -34.812  23.638   3.340  0.00  0.00    +0.009 C 
ATOM      8  C   UNL     1     -37.517  20.835   1.290  0.00  0.00    +0.049 C 
ATOM      9  C   UNL     1     -38.096  21.915   2.148  0.00  0.00    +0.203 C 
ATOM     10  C   UNL     1     -35.464  19.617   0.431  0.00  0.00    +0.032 C 
ATOM     11  C   UNL     1     -37.074  24.132   1.545  0.00  0.00    +0.149 C 
ATOM     12  C   UNL     1     -34.756  24.653   2.210  0.00  0.00    +0.161 C 
ATOM     13  C   UNL     1     -36.428  18.722  -0.303  0.00  0.00    -0.003 C 
ATOM     14  C   UNL     1     -35.955  24.854   1.327  0.00  0.00    +0.118 C 
ATOM     15  C   UNL     1     -38.282  20.256   0.344  0.00  0.00    +0.135 C 
ATOM     16  C   UNL     1     -37.793  19.058  -0.377  0.00  0.00    +0.064 C 
ATOM     17  C   UNL     1     -35.940  17.589  -0.975  0.00  0.00    +0.044 C 
ATOM     18  C   UNL     1     -38.652  18.209  -1.096  0.00  0.00    +0.136 C 
ATOM     19  C   UNL     1     -36.805  16.768  -1.692  0.00  0.00    +0.017 C 
ATOM     20  C   UNL     1     -38.161  17.076  -1.749  0.00  0.00    +0.038 C 
ENDROOT
BRANCH  14  23
ATOM     21  O   UNL     1     -36.005  25.534  -0.930  0.00  0.00    -0.270 OA
ATOM     22  N   UNL     1     -35.693  27.132   0.706  0.00  0.00    -0.325 N 
ATOM     23  C   UNL     1     -35.889  25.855   0.247  0.00  0.00    +0.248 C 
ATOM     24  H   UNL     1     -35.633  27.882   0.070  0.00  0.00    +0.145 HD
ATOM     25  H   UNL     1     -35.611  27.301   1.673  0.00  0.00    +0.145 HD
ENDBRANCH  14  23
BRANCH   7  26
ATOM     26  N   UNL     1     -35.130  24.389   4.552  0.00  0.00    +0.390 N 
ATOM     27  C   UNL     1     -34.133  25.433   4.779  0.00  0.00    -0.100 C 
ATOM     28  C   UNL     1     -35.203  23.490   5.703  0.00  0.00    -0.100 C 
ATOM     29  H   UNL     1     -36.040  24.833   4.431  0.00  0.00    -0.079 HD
ENDBRANCH   7  26
BRANCH  17  30
ATOM     30  N   UNL     1     -34.566  17.257  -0.954  0.00  0.00    -0.304 N 
ATOM     31  C   UNL     1     -33.650  17.875  -1.891  0.00  0.00    +0.112 C 
ATOM     32  C   UNL     1     -34.062  16.291   0.000  0.00  0.00    +0.112 C 
ENDBRANCH  17  30
BRANCH   4  33
ATOM     33  O   UNL     1     -37.817  23.612   3.750  0.00  0.00    -0.373 OA
ATOM     34  H   UNL     1     -38.772  23.454   3.692  0.00  0.00    +0.211 HD
ENDBRANCH   4  33
BRANCH  11  35
ATOM     35  O   UNL     1     -38.258  24.315   0.850  0.00  0.00    -0.507 OA
ATOM     36  H   UNL     1     -38.260  24.292  -0.088  0.00  0.00    +0.292 HD
ENDBRANCH  11  35
BRANCH  15  37
ATOM     37  O   UNL     1     -39.546  20.724   0.042  0.00  0.00    -0.506 OA
ATOM     38  H   UNL     1     -40.153  20.175  -0.413  0.00  0.00    +0.292 HD
ENDBRANCH  15  37
BRANCH  18  39
ATOM     39  O   UNL     1     -39.999  18.423  -1.175  0.00  0.00    -0.505 OA
ATOM     40  H   UNL     1     -40.374  18.769  -1.961  0.00  0.00    +0.292 HD
ENDBRANCH  18  39
TORSDOF 7
ENDMDL
