MODEL 1
REMARK VINA RESULT:      -7.0      0.000      0.000
REMARK  Name = 53395141
REMARK  6 active torsions:
REMARK  status: ('A' for Active; 'I' for Inactive)
REMARK    1  A    between atoms: N_2  and  S_16
REMARK    2  A    between atoms: C_4  and  C_24
REMARK    3  A    between atoms: C_5  and  C_20
REMARK    4  A    between atoms: C_6  and  C_10
REMARK    5  A    between atoms: C_23  and  C_28
REMARK    6  A    between atoms: C_29  and  O_32
REMARK                            x       y       z     vdW  Elec       q    Type
REMARK                         _______ _______ _______ _____ _____    ______ ____
ROOT
ATOM      1  N   UNL     1     -35.191  18.699  -0.135  0.00  0.00    -0.335 NA
ATOM      2  N   UNL     1     -36.864  17.625  -1.405  0.00  0.00    -0.116 N 
ATOM      3  N   UNL     1     -37.408  19.633  -0.292  0.00  0.00    -0.331 NA
ATOM      4  C   UNL     1     -35.718  20.749   1.011  0.00  0.00    +0.124 C 
ATOM      5  C   UNL     1     -34.849  19.738   0.655  0.00  0.00    +0.110 C 
ATOM      6  C   UNL     1     -36.998  20.644   0.504  0.00  0.00    +0.133 C 
ATOM      7  C   UNL     1     -36.467  18.710  -0.567  0.00  0.00    +0.221 C 
ATOM      8  C   UNL     1     -35.820  17.003  -2.269  0.00  0.00    +0.153 C 
ENDROOT
BRANCH   6  10
ATOM      9  F   UNL     1     -40.973  24.408   1.561  0.00  0.00    -0.204 F 
ATOM     10  C   UNL     1     -38.029  21.620   0.779  0.00  0.00    +0.027 C 
ATOM     11  C   UNL     1     -38.877  21.450   1.873  0.00  0.00    +0.005 C 
ATOM     12  C   UNL     1     -38.175  22.733  -0.051  0.00  0.00    +0.005 C 
ATOM     13  C   UNL     1     -39.873  22.392   2.137  0.00  0.00    +0.030 C 
ATOM     14  C   UNL     1     -39.169  23.675   0.214  0.00  0.00    +0.030 C 
ATOM     15  C   UNL     1     -40.018  23.504   1.307  0.00  0.00    +0.140 C 
ENDBRANCH   6  10
BRANCH   2  16
ATOM     16  S   UNL     1     -38.136  16.605  -0.835  0.00  0.00    +0.068 S 
ATOM     17  O   UNL     1     -39.395  17.327  -0.884  0.00  0.00    -0.154 OA
ATOM     18  O   UNL     1     -37.727  15.937   0.387  0.00  0.00    -0.154 OA
ATOM     19  C   UNL     1     -38.201  15.373  -2.120  0.00  0.00    +0.201 C 
ENDBRANCH   2  16
BRANCH   5  20
ATOM     20  C   UNL     1     -33.435  19.734   1.138  0.00  0.00    +0.050 C 
ATOM     21  C   UNL     1     -32.931  18.316   1.460  0.00  0.00    +0.007 C 
ATOM     22  C   UNL     1     -32.476  20.421   0.150  0.00  0.00    +0.007 C 
ENDBRANCH   5  20
BRANCH   4  24
ATOM     23  C   UNL     1     -35.594  21.982   3.181  0.00  0.00    +0.013 C 
ATOM     24  C   UNL     1     -35.297  21.862   1.878  0.00  0.00    -0.014 C 
BRANCH  23  28
ATOM     25  O   UNL     1     -34.395  24.034   3.184  0.00  0.00    -0.448 OA
ATOM     26  O   UNL     1     -33.378  26.052   3.036  0.00  0.00    -0.250 OA
ATOM     27  C   UNL     1     -36.341  23.891   4.608  0.00  0.00    +0.078 C 
ATOM     28  C   UNL     1     -35.154  23.135   4.022  0.00  0.00    +0.193 C 
ATOM     29  C   UNL     1     -35.876  25.121   5.388  0.00  0.00    +0.126 C 
ATOM     30  C   UNL     1     -34.416  25.478   5.126  0.00  0.00    +0.139 C 
ATOM     31  C   UNL     1     -34.026  25.241   3.689  0.00  0.00    +0.320 C 
BRANCH  29  32
ATOM     32  O   UNL     1     -36.714  26.222   5.038  0.00  0.00    -0.384 OA
ATOM     33  H   UNL     1     -36.229  26.822   4.450  0.00  0.00    +0.210 HD
ENDBRANCH  29  32
ENDBRANCH  23  28
ENDBRANCH   4  24
TORSDOF 6
ENDMDL
MODEL 2
REMARK VINA RESULT:      -6.8      3.455      8.481
REMARK  Name = 53395141
REMARK  6 active torsions:
REMARK  status: ('A' for Active; 'I' for Inactive)
REMARK    1  A    between atoms: N_2  and  S_16
REMARK    2  A    between atoms: C_4  and  C_24
REMARK    3  A    between atoms: C_5  and  C_20
REMARK    4  A    between atoms: C_6  and  C_10
REMARK    5  A    between atoms: C_23  and  C_28
REMARK    6  A    between atoms: C_29  and  O_32
REMARK                            x       y       z     vdW  Elec       q    Type
REMARK                         _______ _______ _______ _____ _____    ______ ____
ROOT
ATOM      1  N   UNL     1     -37.329  22.878   1.470  0.00  0.00    -0.335 NA
ATOM      2  N   UNL     1     -35.977  24.282   2.799  0.00  0.00    -0.116 N 
ATOM      3  N   UNL     1     -35.006  22.357   1.843  0.00  0.00    -0.331 NA
ATOM      4  C   UNL     1     -36.364  20.907   0.483  0.00  0.00    +0.124 C 
ATOM      5  C   UNL     1     -37.420  21.763   0.716  0.00  0.00    +0.110 C 
ATOM      6  C   UNL     1     -35.168  21.257   1.077  0.00  0.00    +0.133 C 
ATOM      7  C   UNL     1     -36.110  23.111   1.994  0.00  0.00    +0.221 C 
ATOM      8  C   UNL     1     -36.851  25.445   2.473  0.00  0.00    +0.153 C 
ENDROOT
BRANCH   6  10
ATOM      9  F   UNL     1     -30.525  18.222   0.510  0.00  0.00    -0.204 F 
ATOM     10  C   UNL     1     -33.964  20.468   0.930  0.00  0.00    +0.027 C 
ATOM     11  C   UNL     1     -33.837  19.256   1.607  0.00  0.00    +0.005 C 
ATOM     12  C   UNL     1     -32.930  20.922   0.110  0.00  0.00    +0.005 C 
ATOM     13  C   UNL     1     -32.674  18.497   1.465  0.00  0.00    +0.030 C 
ATOM     14  C   UNL     1     -31.768  20.163  -0.031  0.00  0.00    +0.030 C 
ATOM     15  C   UNL     1     -31.640  18.950   0.647  0.00  0.00    +0.140 C 
ENDBRANCH   6  10
BRANCH   2  16
ATOM     16  S   UNL     1     -35.525  24.064   4.451  0.00  0.00    +0.068 S 
ATOM     17  O   UNL     1     -34.080  24.136   4.572  0.00  0.00    -0.154 OA
ATOM     18  O   UNL     1     -36.249  22.942   5.019  0.00  0.00    -0.154 OA
ATOM     19  C   UNL     1     -36.176  25.548   5.192  0.00  0.00    +0.201 C 
ENDBRANCH   2  16
BRANCH   5  20
ATOM     20  C   UNL     1     -38.770  21.498   0.130  0.00  0.00    +0.050 C 
ATOM     21  C   UNL     1     -39.877  21.475   1.199  0.00  0.00    +0.007 C 
ATOM     22  C   UNL     1     -39.133  22.498  -0.981  0.00  0.00    +0.007 C 
ENDBRANCH   5  20
BRANCH   4  24
ATOM     23  C   UNL     1     -37.045  18.538   0.066  0.00  0.00    +0.013 C 
ATOM     24  C   UNL     1     -36.515  19.700  -0.347  0.00  0.00    -0.014 C 
BRANCH  23  28
ATOM     25  O   UNL     1     -36.123  16.408  -0.444  0.00  0.00    -0.448 OA
ATOM     26  O   UNL     1     -35.273  14.328  -0.731  0.00  0.00    -0.250 OA
ATOM     27  C   UNL     1     -38.519  16.647  -0.632  0.00  0.00    +0.078 C 
ATOM     28  C   UNL     1     -37.169  17.334  -0.809  0.00  0.00    +0.193 C 
ATOM     29  C   UNL     1     -38.594  15.366  -1.463  0.00  0.00    +0.126 C 
ATOM     30  C   UNL     1     -37.235  14.915  -1.990  0.00  0.00    +0.139 C 
ATOM     31  C   UNL     1     -36.132  15.164  -0.992  0.00  0.00    +0.320 C 
BRANCH  29  32
ATOM     32  O   UNL     1     -39.167  14.338  -0.657  0.00  0.00    -0.384 OA
ATOM     33  H   UNL     1     -38.463  13.876  -0.174  0.00  0.00    +0.210 HD
ENDBRANCH  29  32
ENDBRANCH  23  28
ENDBRANCH   4  24
TORSDOF 6
ENDMDL
MODEL 3
REMARK VINA RESULT:      -6.8      5.743      9.356
REMARK  Name = 53395141
REMARK  6 active torsions:
REMARK  status: ('A' for Active; 'I' for Inactive)
REMARK    1  A    between atoms: N_2  and  S_16
REMARK    2  A    between atoms: C_4  and  C_24
REMARK    3  A    between atoms: C_5  and  C_20
REMARK    4  A    between atoms: C_6  and  C_10
REMARK    5  A    between atoms: C_23  and  C_28
REMARK    6  A    between atoms: C_29  and  O_32
REMARK                            x       y       z     vdW  Elec       q    Type
REMARK                         _______ _______ _______ _____ _____    ______ ____
ROOT
ATOM      1  N   UNL     1     -33.730  28.652   2.938  0.00  0.00    -0.335 NA
ATOM      2  N   UNL     1     -31.652  28.314   4.001  0.00  0.00    -0.116 N 
ATOM      3  N   UNL     1     -33.254  26.583   4.079  0.00  0.00    -0.331 NA
ATOM      4  C   UNL     1     -35.383  26.904   3.002  0.00  0.00    +0.124 C 
ATOM      5  C   UNL     1     -34.947  28.158   2.627  0.00  0.00    +0.110 C 
ATOM      6  C   UNL     1     -34.486  26.152   3.733  0.00  0.00    +0.133 C 
ATOM      7  C   UNL     1     -32.947  27.824   3.654  0.00  0.00    +0.221 C 
ATOM      8  C   UNL     1     -31.008  29.281   3.066  0.00  0.00    +0.153 C 
ENDROOT
BRANCH   6  10
ATOM      9  F   UNL     1     -35.639  21.002   5.532  0.00  0.00    -0.204 F 
ATOM     10  C   UNL     1     -34.785  24.816   4.201  0.00  0.00    +0.027 C 
ATOM     11  C   UNL     1     -34.971  24.579   5.562  0.00  0.00    +0.005 C 
ATOM     12  C   UNL     1     -34.888  23.765   3.289  0.00  0.00    +0.005 C 
ATOM     13  C   UNL     1     -35.259  23.289   6.012  0.00  0.00    +0.030 C 
ATOM     14  C   UNL     1     -35.177  22.477   3.739  0.00  0.00    +0.030 C 
ATOM     15  C   UNL     1     -35.362  22.239   5.101  0.00  0.00    +0.140 C 
ENDBRANCH   6  10
BRANCH   2  16
ATOM     16  S   UNL     1     -31.284  28.466   5.682  0.00  0.00    +0.068 S 
ATOM     17  O   UNL     1     -30.086  27.703   5.986  0.00  0.00    -0.154 OA
ATOM     18  O   UNL     1     -32.487  28.279   6.471  0.00  0.00    -0.154 OA
ATOM     19  C   UNL     1     -30.838  30.186   5.789  0.00  0.00    +0.201 C 
ENDBRANCH   2  16
BRANCH   5  20
ATOM     20  C   UNL     1     -35.823  29.072   1.832  0.00  0.00    +0.050 C 
ATOM     21  C   UNL     1     -35.747  30.528   2.323  0.00  0.00    +0.007 C 
ATOM     22  C   UNL     1     -35.522  29.008   0.325  0.00  0.00    +0.007 C 
ENDBRANCH   5  20
BRANCH   4  24
ATOM     23  C   UNL     1     -37.038  25.805   1.484  0.00  0.00    +0.013 C 
ATOM     24  C   UNL     1     -36.722  26.410   2.640  0.00  0.00    -0.014 C 
BRANCH  23  28
ATOM     25  O   UNL     1     -38.605  24.045   1.790  0.00  0.00    -0.448 OA
ATOM     26  O   UNL     1     -40.077  22.397   2.286  0.00  0.00    -0.250 OA
ATOM     27  C   UNL     1     -39.481  26.293   1.660  0.00  0.00    +0.078 C 
ATOM     28  C   UNL     1     -38.414  25.328   1.155  0.00  0.00    +0.193 C 
ATOM     29  C   UNL     1     -40.884  25.744   1.397  0.00  0.00    +0.126 C 
ATOM     30  C   UNL     1     -40.885  24.268   1.011  0.00  0.00    +0.139 C 
ATOM     31  C   UNL     1     -39.843  23.484   1.769  0.00  0.00    +0.320 C 
BRANCH  29  32
ATOM     32  O   UNL     1     -41.672  25.938   2.570  0.00  0.00    -0.384 OA
ATOM     33  H   UNL     1     -41.814  26.888   2.709  0.00  0.00    +0.210 HD
ENDBRANCH  29  32
ENDBRANCH  23  28
ENDBRANCH   4  24
TORSDOF 6
ENDMDL
MODEL 4
REMARK VINA RESULT:      -6.8      5.819      9.402
REMARK  Name = 53395141
REMARK  6 active torsions:
REMARK  status: ('A' for Active; 'I' for Inactive)
REMARK    1  A    between atoms: N_2  and  S_16
REMARK    2  A    between atoms: C_4  and  C_24
REMARK    3  A    between atoms: C_5  and  C_20
REMARK    4  A    between atoms: C_6  and  C_10
REMARK    5  A    between atoms: C_23  and  C_28
REMARK    6  A    between atoms: C_29  and  O_32
REMARK                            x       y       z     vdW  Elec       q    Type
REMARK                         _______ _______ _______ _____ _____    ______ ____
ROOT
ATOM      1  N   UNL     1     -33.637  28.640   3.049  0.00  0.00    -0.335 NA
ATOM      2  N   UNL     1     -31.607  28.280   4.195  0.00  0.00    -0.116 N 
ATOM      3  N   UNL     1     -33.205  26.545   4.158  0.00  0.00    -0.331 NA
ATOM      4  C   UNL     1     -35.285  26.887   2.995  0.00  0.00    +0.124 C 
ATOM      5  C   UNL     1     -34.837  28.151   2.672  0.00  0.00    +0.110 C 
ATOM      6  C   UNL     1     -34.418  26.120   3.747  0.00  0.00    +0.133 C 
ATOM      7  C   UNL     1     -32.883  27.796   3.778  0.00  0.00    +0.221 C 
ATOM      8  C   UNL     1     -30.925  29.272   3.314  0.00  0.00    +0.153 C 
ENDROOT
BRANCH   6  10
ATOM      9  F   UNL     1     -35.633  20.923   5.364  0.00  0.00    -0.204 F 
ATOM     10  C   UNL     1     -34.734  24.771   4.168  0.00  0.00    +0.027 C 
ATOM     11  C   UNL     1     -34.902  24.484   5.522  0.00  0.00    +0.005 C 
ATOM     12  C   UNL     1     -34.871  23.760   3.217  0.00  0.00    +0.005 C 
ATOM     13  C   UNL     1     -35.205  23.183   5.926  0.00  0.00    +0.030 C 
ATOM     14  C   UNL     1     -35.175  22.459   3.621  0.00  0.00    +0.030 C 
ATOM     15  C   UNL     1     -35.341  22.171   4.976  0.00  0.00    +0.140 C 
ENDBRANCH   6  10
BRANCH   2  16
ATOM     16  S   UNL     1     -31.315  28.391   5.893  0.00  0.00    +0.068 S 
ATOM     17  O   UNL     1     -30.103  27.662   6.224  0.00  0.00    -0.154 OA
ATOM     18  O   UNL     1     -32.542  28.135   6.625  0.00  0.00    -0.154 OA
ATOM     19  C   UNL     1     -30.938  30.122   6.073  0.00  0.00    +0.201 C 
ENDBRANCH   2  16
BRANCH   5  20
ATOM     20  C   UNL     1     -35.680  29.083   1.861  0.00  0.00    +0.050 C 
ATOM     21  C   UNL     1     -35.659  30.520   2.412  0.00  0.00    +0.007 C 
ATOM     22  C   UNL     1     -35.288  29.084   0.374  0.00  0.00    +0.007 C 
ENDBRANCH   5  20
BRANCH   4  24
ATOM     23  C   UNL     1     -37.652  26.176   3.371  0.00  0.00    +0.013 C 
ATOM     24  C   UNL     1     -36.605  26.399   2.561  0.00  0.00    -0.014 C 
BRANCH  23  28
ATOM     25  O   UNL     1     -39.474  26.604   1.908  0.00  0.00    -0.448 OA
ATOM     26  O   UNL     1     -41.075  27.018   0.359  0.00  0.00    -0.250 OA
ATOM     27  C   UNL     1     -38.847  24.295   2.242  0.00  0.00    +0.078 C 
ATOM     28  C   UNL     1     -38.972  25.671   2.889  0.00  0.00    +0.193 C 
ATOM     29  C   UNL     1     -40.188  23.835   1.671  0.00  0.00    +0.126 C 
ATOM     30  C   UNL     1     -41.219  24.957   1.587  0.00  0.00    +0.139 C 
ATOM     31  C   UNL     1     -40.590  26.274   1.205  0.00  0.00    +0.320 C 
BRANCH  29  32
ATOM     32  O   UNL     1     -39.963  23.286   0.374  0.00  0.00    -0.384 OA
ATOM     33  H   UNL     1     -40.264  22.364   0.357  0.00  0.00    +0.210 HD
ENDBRANCH  29  32
ENDBRANCH  23  28
ENDBRANCH   4  24
TORSDOF 6
ENDMDL
MODEL 5
REMARK VINA RESULT:      -6.5      3.295      5.369
REMARK  Name = 53395141
REMARK  6 active torsions:
REMARK  status: ('A' for Active; 'I' for Inactive)
REMARK    1  A    between atoms: N_2  and  S_16
REMARK    2  A    between atoms: C_4  and  C_24
REMARK    3  A    between atoms: C_5  and  C_20
REMARK    4  A    between atoms: C_6  and  C_10
REMARK    5  A    between atoms: C_23  and  C_28
REMARK    6  A    between atoms: C_29  and  O_32
REMARK                            x       y       z     vdW  Elec       q    Type
REMARK                         _______ _______ _______ _____ _____    ______ ____
ROOT
ATOM      1  N   UNL     1     -35.595  19.044  -0.069  0.00  0.00    -0.335 NA
ATOM      2  N   UNL     1     -33.622  18.058   0.767  0.00  0.00    -0.116 N 
ATOM      3  N   UNL     1     -34.510  19.933   1.891  0.00  0.00    -0.331 NA
ATOM      4  C   UNL     1     -36.522  20.958   1.057  0.00  0.00    +0.124 C 
ATOM      5  C   UNL     1     -36.530  20.009   0.057  0.00  0.00    +0.110 C 
ATOM      6  C   UNL     1     -35.478  20.872   1.956  0.00  0.00    +0.133 C 
ATOM      7  C   UNL     1     -34.629  19.065   0.869  0.00  0.00    +0.221 C 
ATOM      8  C   UNL     1     -34.014  16.750   0.170  0.00  0.00    +0.153 C 
ENDROOT
BRANCH   6  10
ATOM      9  F   UNL     1     -34.885  24.401   6.233  0.00  0.00    -0.204 F 
ATOM     10  C   UNL     1     -35.324  21.789   3.065  0.00  0.00    +0.027 C 
ATOM     11  C   UNL     1     -35.074  23.139   2.825  0.00  0.00    +0.005 C 
ATOM     12  C   UNL     1     -35.427  21.320   4.375  0.00  0.00    +0.005 C 
ATOM     13  C   UNL     1     -34.925  24.022   3.896  0.00  0.00    +0.030 C 
ATOM     14  C   UNL     1     -35.279  22.202   5.446  0.00  0.00    +0.030 C 
ATOM     15  C   UNL     1     -35.027  23.553   5.205  0.00  0.00    +0.140 C 
ENDBRANCH   6  10
BRANCH   2  16
ATOM     16  S   UNL     1     -31.993  18.584   0.534  0.00  0.00    +0.068 S 
ATOM     17  O   UNL     1     -31.117  17.859   1.437  0.00  0.00    -0.154 OA
ATOM     18  O   UNL     1     -31.944  20.033   0.477  0.00  0.00    -0.154 OA
ATOM     19  C   UNL     1     -31.659  17.974  -1.105  0.00  0.00    +0.201 C 
ENDBRANCH   2  16
BRANCH   5  20
ATOM     20  C   UNL     1     -37.606  19.994  -0.981  0.00  0.00    +0.050 C 
ATOM     21  C   UNL     1     -37.040  19.931  -2.411  0.00  0.00    +0.007 C 
ATOM     22  C   UNL     1     -38.612  18.850  -0.763  0.00  0.00    +0.007 C 
ENDBRANCH   5  20
BRANCH   4  24
ATOM     23  C   UNL     1     -38.630  21.950   1.966  0.00  0.00    +0.013 C 
ATOM     24  C   UNL     1     -37.565  21.994   1.150  0.00  0.00    -0.014 C 
BRANCH  23  28
ATOM     25  O   UNL     1     -39.037  24.233   2.480  0.00  0.00    -0.448 OA
ATOM     26  O   UNL     1     -39.277  26.458   2.833  0.00  0.00    -0.250 OA
ATOM     27  C   UNL     1     -40.289  23.274   0.651  0.00  0.00    +0.078 C 
ATOM     28  C   UNL     1     -39.670  23.020   2.021  0.00  0.00    +0.193 C 
ATOM     29  C   UNL     1     -41.283  24.434   0.706  0.00  0.00    +0.126 C 
ATOM     30  C   UNL     1     -41.177  25.251   1.991  0.00  0.00    +0.139 C 
ATOM     31  C   UNL     1     -39.749  25.391   2.455  0.00  0.00    +0.320 C 
BRANCH  29  32
ATOM     32  O   UNL     1     -41.058  25.276  -0.423  0.00  0.00    -0.384 OA
ATOM     33  H   UNL     1     -41.881  25.365  -0.929  0.00  0.00    +0.210 HD
ENDBRANCH  29  32
ENDBRANCH  23  28
ENDBRANCH   4  24
TORSDOF 6
ENDMDL
MODEL 6
REMARK VINA RESULT:      -6.4      4.313      6.175
REMARK  Name = 53395141
REMARK  6 active torsions:
REMARK  status: ('A' for Active; 'I' for Inactive)
REMARK    1  A    between atoms: N_2  and  S_16
REMARK    2  A    between atoms: C_4  and  C_24
REMARK    3  A    between atoms: C_5  and  C_20
REMARK    4  A    between atoms: C_6  and  C_10
REMARK    5  A    between atoms: C_23  and  C_28
REMARK    6  A    between atoms: C_29  and  O_32
REMARK                            x       y       z     vdW  Elec       q    Type
REMARK                         _______ _______ _______ _____ _____    ______ ____
ROOT
ATOM      1  N   UNL     1     -38.790  25.359   0.431  0.00  0.00    -0.335 NA
ATOM      2  N   UNL     1     -40.373  23.638   0.741  0.00  0.00    -0.116 N 
ATOM      3  N   UNL     1     -38.430  23.637   2.079  0.00  0.00    -0.331 NA
ATOM      4  C   UNL     1     -36.799  25.383   1.782  0.00  0.00    +0.124 C 
ATOM      5  C   UNL     1     -37.612  25.905   0.798  0.00  0.00    +0.110 C 
ATOM      6  C   UNL     1     -37.262  24.236   2.395  0.00  0.00    +0.133 C 
ATOM      7  C   UNL     1     -39.133  24.243   1.103  0.00  0.00    +0.221 C 
ATOM      8  C   UNL     1     -41.455  24.532   0.236  0.00  0.00    +0.153 C 
ENDROOT
BRANCH   6  10
ATOM      9  F   UNL     1     -34.448  21.647   6.454  0.00  0.00    -0.204 F 
ATOM     10  C   UNL     1     -36.531  23.563   3.448  0.00  0.00    +0.027 C 
ATOM     11  C   UNL     1     -35.996  22.295   3.226  0.00  0.00    +0.005 C 
ATOM     12  C   UNL     1     -36.362  24.186   4.685  0.00  0.00    +0.005 C 
ATOM     13  C   UNL     1     -35.293  21.647   4.242  0.00  0.00    +0.030 C 
ATOM     14  C   UNL     1     -35.659  23.538   5.701  0.00  0.00    +0.030 C 
ATOM     15  C   UNL     1     -35.124  22.268   5.479  0.00  0.00    +0.140 C 
ENDBRANCH   6  10
BRANCH   2  16
ATOM     16  S   UNL     1     -40.320  22.026   0.124  0.00  0.00    +0.068 S 
ATOM     17  O   UNL     1     -40.574  21.086   1.201  0.00  0.00    -0.154 OA
ATOM     18  O   UNL     1     -39.158  21.859  -0.729  0.00  0.00    -0.154 OA
ATOM     19  C   UNL     1     -41.759  22.004  -0.926  0.00  0.00    +0.201 C 
ENDBRANCH   2  16
BRANCH   5  20
ATOM     20  C   UNL     1     -37.225  27.144   0.057  0.00  0.00    +0.050 C 
ATOM     21  C   UNL     1     -36.525  26.832  -1.278  0.00  0.00    +0.007 C 
ATOM     22  C   UNL     1     -38.421  28.082  -0.182  0.00  0.00    +0.007 C 
ENDBRANCH   5  20
BRANCH   4  24
ATOM     23  C   UNL     1     -35.376  27.030   3.012  0.00  0.00    +0.013 C 
ATOM     24  C   UNL     1     -35.519  26.015   2.146  0.00  0.00    -0.014 C 
BRANCH  23  28
ATOM     25  O   UNL     1     -33.759  27.346   4.724  0.00  0.00    -0.448 OA
ATOM     26  O   UNL     1     -32.209  27.441   6.374  0.00  0.00    -0.250 OA
ATOM     27  C   UNL     1     -32.940  27.097   2.466  0.00  0.00    +0.078 C 
ATOM     28  C   UNL     1     -34.058  27.648   3.344  0.00  0.00    +0.193 C 
ATOM     29  C   UNL     1     -31.585  27.670   2.881  0.00  0.00    +0.126 C 
ATOM     30  C   UNL     1     -31.622  28.370   4.236  0.00  0.00    +0.139 C 
ATOM     31  C   UNL     1     -32.531  27.665   5.211  0.00  0.00    +0.320 C 
BRANCH  29  32
ATOM     32  O   UNL     1     -30.634  26.607   2.911  0.00  0.00    -0.384 OA
ATOM     33  H   UNL     1     -29.768  26.939   2.626  0.00  0.00    +0.210 HD
ENDBRANCH  29  32
ENDBRANCH  23  28
ENDBRANCH   4  24
TORSDOF 6
ENDMDL
MODEL 7
REMARK VINA RESULT:      -6.3     13.610     16.384
REMARK  Name = 53395141
REMARK  6 active torsions:
REMARK  status: ('A' for Active; 'I' for Inactive)
REMARK    1  A    between atoms: N_2  and  S_16
REMARK    2  A    between atoms: C_4  and  C_24
REMARK    3  A    between atoms: C_5  and  C_20
REMARK    4  A    between atoms: C_6  and  C_10
REMARK    5  A    between atoms: C_23  and  C_28
REMARK    6  A    between atoms: C_29  and  O_32
REMARK                            x       y       z     vdW  Elec       q    Type
REMARK                         _______ _______ _______ _____ _____    ______ ____
ROOT
ATOM      1  N   UNL     1     -45.327  33.852   1.821  0.00  0.00    -0.335 NA
ATOM      2  N   UNL     1     -45.059  32.928   3.975  0.00  0.00    -0.116 N 
ATOM      3  N   UNL     1     -43.154  33.760   2.859  0.00  0.00    -0.331 NA
ATOM      4  C   UNL     1     -43.401  34.708   0.660  0.00  0.00    +0.124 C 
ATOM      5  C   UNL     1     -44.750  34.435   0.749  0.00  0.00    +0.110 C 
ATOM      6  C   UNL     1     -42.643  34.345   1.755  0.00  0.00    +0.133 C 
ATOM      7  C   UNL     1     -44.483  33.547   2.825  0.00  0.00    +0.221 C 
ATOM      8  C   UNL     1     -46.473  33.270   4.305  0.00  0.00    +0.153 C 
ENDROOT
BRANCH   6  10
ATOM      9  F   UNL     1     -37.137  35.190   2.019  0.00  0.00    -0.204 F 
ATOM     10  C   UNL     1     -41.214  34.564   1.822  0.00  0.00    +0.027 C 
ATOM     11  C   UNL     1     -40.341  33.672   1.200  0.00  0.00    +0.005 C 
ATOM     12  C   UNL     1     -40.710  35.669   2.510  0.00  0.00    +0.005 C 
ATOM     13  C   UNL     1     -38.963  33.883   1.268  0.00  0.00    +0.030 C 
ATOM     14  C   UNL     1     -39.333  35.880   2.577  0.00  0.00    +0.030 C 
ATOM     15  C   UNL     1     -38.460  34.987   1.955  0.00  0.00    +0.140 C 
ENDBRANCH   6  10
BRANCH   2  16
ATOM     16  S   UNL     1     -44.505  31.346   4.388  0.00  0.00    +0.068 S 
ATOM     17  O   UNL     1     -43.625  31.426   5.540  0.00  0.00    -0.154 OA
ATOM     18  O   UNL     1     -44.078  30.642   3.192  0.00  0.00    -0.154 OA
ATOM     19  C   UNL     1     -46.013  30.581   4.946  0.00  0.00    +0.201 C 
ENDBRANCH   2  16
BRANCH   5  20
ATOM     20  C   UNL     1     -45.680  34.777  -0.369  0.00  0.00    +0.050 C 
ATOM     21  C   UNL     1     -46.578  33.592  -0.767  0.00  0.00    +0.007 C 
ATOM     22  C   UNL     1     -46.545  36.010  -0.055  0.00  0.00    +0.007 C 
ENDBRANCH   5  20
BRANCH   4  24
ATOM     23  C   UNL     1     -42.672  36.665  -0.714  0.00  0.00    +0.013 C 
ATOM     24  C   UNL     1     -42.817  35.344  -0.534  0.00  0.00    -0.014 C 
BRANCH  23  28
ATOM     25  O   UNL     1     -42.194  38.703  -1.837  0.00  0.00    -0.448 OA
ATOM     26  O   UNL     1     -41.632  40.704  -2.740  0.00  0.00    -0.250 OA
ATOM     27  C   UNL     1     -40.611  36.898  -2.106  0.00  0.00    +0.078 C 
ATOM     28  C   UNL     1     -42.082  37.268  -1.946  0.00  0.00    +0.193 C 
ATOM     29  C   UNL     1     -40.000  37.599  -3.320  0.00  0.00    +0.126 C 
ATOM     30  C   UNL     1     -40.878  38.720  -3.868  0.00  0.00    +0.139 C 
ATOM     31  C   UNL     1     -41.577  39.479  -2.768  0.00  0.00    +0.320 C 
BRANCH  29  32
ATOM     32  O   UNL     1     -38.726  38.120  -2.947  0.00  0.00    -0.384 OA
ATOM     33  H   UNL     1     -38.848  38.863  -2.334  0.00  0.00    +0.210 HD
ENDBRANCH  29  32
ENDBRANCH  23  28
ENDBRANCH   4  24
TORSDOF 6
ENDMDL
MODEL 8
REMARK VINA RESULT:      -6.1      4.117      6.318
REMARK  Name = 53395141
REMARK  6 active torsions:
REMARK  status: ('A' for Active; 'I' for Inactive)
REMARK    1  A    between atoms: N_2  and  S_16
REMARK    2  A    between atoms: C_4  and  C_24
REMARK    3  A    between atoms: C_5  and  C_20
REMARK    4  A    between atoms: C_6  and  C_10
REMARK    5  A    between atoms: C_23  and  C_28
REMARK    6  A    between atoms: C_29  and  O_32
REMARK                            x       y       z     vdW  Elec       q    Type
REMARK                         _______ _______ _______ _____ _____    ______ ____
ROOT
ATOM      1  N   UNL     1     -38.391  23.607   0.271  0.00  0.00    -0.335 NA
ATOM      2  N   UNL     1     -38.088  21.422   1.104  0.00  0.00    -0.116 N 
ATOM      3  N   UNL     1     -37.072  23.216   2.250  0.00  0.00    -0.331 NA
ATOM      4  C   UNL     1     -37.365  25.457   1.419  0.00  0.00    +0.124 C 
ATOM      5  C   UNL     1     -38.134  24.925   0.404  0.00  0.00    +0.110 C 
ATOM      6  C   UNL     1     -36.855  24.547   2.323  0.00  0.00    +0.133 C 
ATOM      7  C   UNL     1     -37.838  22.822   1.215  0.00  0.00    +0.221 C 
ATOM      8  C   UNL     1     -39.378  20.999   0.485  0.00  0.00    +0.153 C 
ENDROOT
BRANCH   6  10
ATOM      9  F   UNL     1     -33.680  26.063   6.649  0.00  0.00    -0.204 F 
ATOM     10  C   UNL     1     -36.032  24.940   3.446  0.00  0.00    +0.027 C 
ATOM     11  C   UNL     1     -36.628  25.374   4.630  0.00  0.00    +0.005 C 
ATOM     12  C   UNL     1     -34.641  24.885   3.344  0.00  0.00    +0.005 C 
ATOM     13  C   UNL     1     -35.833  25.754   5.712  0.00  0.00    +0.030 C 
ATOM     14  C   UNL     1     -33.847  25.264   4.426  0.00  0.00    +0.030 C 
ATOM     15  C   UNL     1     -34.443  25.699   5.610  0.00  0.00    +0.140 C 
ENDBRANCH   6  10
BRANCH   2  16
ATOM     16  S   UNL     1     -36.725  20.384   0.889  0.00  0.00    +0.068 S 
ATOM     17  O   UNL     1     -36.346  19.811   2.168  0.00  0.00    -0.154 OA
ATOM     18  O   UNL     1     -35.729  21.040   0.061  0.00  0.00    -0.154 OA
ATOM     19  C   UNL     1     -37.435  19.066  -0.074  0.00  0.00    +0.201 C 
ENDBRANCH   2  16
BRANCH   5  20
ATOM     20  C   UNL     1     -38.745  25.804  -0.639  0.00  0.00    +0.050 C 
ATOM     21  C   UNL     1     -38.405  25.339  -2.067  0.00  0.00    +0.007 C 
ATOM     22  C   UNL     1     -40.269  25.933  -0.477  0.00  0.00    +0.007 C 
ENDBRANCH   5  20
BRANCH   4  24
ATOM     23  C   UNL     1     -36.012  27.530   1.074  0.00  0.00    +0.013 C 
ATOM     24  C   UNL     1     -37.111  26.904   1.521  0.00  0.00    -0.014 C 
BRANCH  23  28
ATOM     25  O   UNL     1     -37.057  29.663   0.994  0.00  0.00    -0.448 OA
ATOM     26  O   UNL     1     -38.183  31.627   1.064  0.00  0.00    -0.250 OA
ATOM     27  C   UNL     1     -35.269  29.369   2.591  0.00  0.00    +0.078 C 
ATOM     28  C   UNL     1     -35.791  29.001   1.207  0.00  0.00    +0.193 C 
ATOM     29  C   UNL     1     -35.137  30.885   2.741  0.00  0.00    +0.126 C 
ATOM     30  C   UNL     1     -35.849  31.659   1.635  0.00  0.00    +0.139 C 
ATOM     31  C   UNL     1     -37.142  31.000   1.226  0.00  0.00    +0.320 C 
BRANCH  29  32
ATOM     32  O   UNL     1     -35.666  31.261   4.012  0.00  0.00    -0.384 OA
ATOM     33  H   UNL     1     -36.557  31.626   3.896  0.00  0.00    +0.210 HD
ENDBRANCH  29  32
ENDBRANCH  23  28
ENDBRANCH   4  24
TORSDOF 6
ENDMDL
MODEL 9
REMARK VINA RESULT:      -6.0      5.615      8.556
REMARK  Name = 53395141
REMARK  6 active torsions:
REMARK  status: ('A' for Active; 'I' for Inactive)
REMARK    1  A    between atoms: N_2  and  S_16
REMARK    2  A    between atoms: C_4  and  C_24
REMARK    3  A    between atoms: C_5  and  C_20
REMARK    4  A    between atoms: C_6  and  C_10
REMARK    5  A    between atoms: C_23  and  C_28
REMARK    6  A    between atoms: C_29  and  O_32
REMARK                            x       y       z     vdW  Elec       q    Type
REMARK                         _______ _______ _______ _____ _____    ______ ____
ROOT
ATOM      1  N   UNL     1     -32.737  27.280   0.753  0.00  0.00    -0.335 NA
ATOM      2  N   UNL     1     -30.627  26.478   1.436  0.00  0.00    -0.116 N 
ATOM      3  N   UNL     1     -32.554  25.623   2.493  0.00  0.00    -0.331 NA
ATOM      4  C   UNL     1     -34.720  26.426   1.816  0.00  0.00    +0.124 C 
ATOM      5  C   UNL     1     -34.078  27.238   0.904  0.00  0.00    +0.110 C 
ATOM      6  C   UNL     1     -33.901  25.631   2.592  0.00  0.00    +0.133 C 
ATOM      7  C   UNL     1     -32.048  26.459   1.567  0.00  0.00    +0.221 C 
ATOM      8  C   UNL     1     -30.064  26.794   0.091  0.00  0.00    +0.153 C 
ENDROOT
BRANCH   6  10
ATOM      9  F   UNL     1     -35.883  22.122   6.445  0.00  0.00    -0.204 F 
ATOM     10  C   UNL     1     -34.416  24.721   3.592  0.00  0.00    +0.027 C 
ATOM     11  C   UNL     1     -34.418  25.091   4.937  0.00  0.00    +0.005 C 
ATOM     12  C   UNL     1     -34.910  23.474   3.210  0.00  0.00    +0.005 C 
ATOM     13  C   UNL     1     -34.913  24.212   5.901  0.00  0.00    +0.030 C 
ATOM     14  C   UNL     1     -35.406  22.595   4.175  0.00  0.00    +0.030 C 
ATOM     15  C   UNL     1     -35.407  22.965   5.520  0.00  0.00    +0.140 C 
ENDBRANCH   6  10
BRANCH   2  16
ATOM     16  S   UNL     1     -29.707  26.956   2.816  0.00  0.00    +0.068 S 
ATOM     17  O   UNL     1     -28.845  25.862   3.227  0.00  0.00    -0.154 OA
ATOM     18  O   UNL     1     -30.569  27.607   3.785  0.00  0.00    -0.154 OA
ATOM     19  C   UNL     1     -28.650  28.208   2.118  0.00  0.00    +0.201 C 
ENDBRANCH   2  16
BRANCH   5  20
ATOM     20  C   UNL     1     -34.851  28.147   0.004  0.00  0.00    +0.050 C 
ATOM     21  C   UNL     1     -34.842  29.605   0.498  0.00  0.00    +0.007 C 
ATOM     22  C   UNL     1     -34.362  28.082  -1.453  0.00  0.00    +0.007 C 
ENDBRANCH   5  20
BRANCH   4  24
ATOM     23  C   UNL     1     -37.026  25.680   1.199  0.00  0.00    +0.013 C 
ATOM     24  C   UNL     1     -36.188  26.416   1.944  0.00  0.00    -0.014 C 
BRANCH  23  28
ATOM     25  O   UNL     1     -39.010  24.375   1.122  0.00  0.00    -0.448 OA
ATOM     26  O   UNL     1     -40.814  23.008   1.191  0.00  0.00    -0.250 OA
ATOM     27  C   UNL     1     -38.918  26.149   2.759  0.00  0.00    +0.078 C 
ATOM     28  C   UNL     1     -38.510  25.709   1.357  0.00  0.00    +0.193 C 
ATOM     29  C   UNL     1     -40.436  26.084   2.933  0.00  0.00    +0.126 C 
ATOM     30  C   UNL     1     -41.132  25.305   1.821  0.00  0.00    +0.139 C 
ATOM     31  C   UNL     1     -40.321  24.116   1.371  0.00  0.00    +0.320 C 
BRANCH  29  32
ATOM     32  O   UNL     1     -40.720  25.483   4.196  0.00  0.00    -0.384 OA
ATOM     33  H   UNL     1     -40.278  25.985   4.899  0.00  0.00    +0.210 HD
ENDBRANCH  29  32
ENDBRANCH  23  28
ENDBRANCH   4  24
TORSDOF 6
ENDMDL
