MODEL 1
REMARK VINA RESULT:      -6.9      0.000      0.000
REMARK  Name = 5311105
REMARK  7 active torsions:
REMARK  status: ('A' for Active; 'I' for Inactive)
REMARK    1  A    between atoms: C_3  and  C_8
REMARK    2  A    between atoms: C_4  and  C_6
REMARK    3  A    between atoms: C_6  and  C_18
REMARK    4  A    between atoms: C_11  and  O_14
REMARK    5  A    between atoms: C_13  and  O_16
REMARK    6  A    between atoms: C_21  and  O_24
REMARK    7  A    between atoms: C_23  and  O_26
REMARK                            x       y       z     vdW  Elec       q    Type
REMARK                         _______ _______ _______ _____ _____    ______ ____
ROOT
ATOM      1  O   UNL     1     -35.275  21.036   4.694  0.00  0.00    -0.440 OA
ATOM      2  O   UNL     1     -35.172  22.119   6.735  0.00  0.00    -0.245 OA
ATOM      3  C   UNL     1     -35.528  21.535   3.395  0.00  0.00    +0.214 C 
ATOM      4  C   UNL     1     -35.630  23.307   4.680  0.00  0.00    +0.057 C 
ATOM      5  C   UNL     1     -35.739  22.851   3.340  0.00  0.00    +0.024 C 
ATOM      6  C   UNL     1     -35.335  22.132   5.528  0.00  0.00    +0.338 C 
ENDROOT
BRANCH   3   7
ATOM      7  C   UNL     1     -35.522  20.568   2.286  0.00  0.00    +0.025 C 
ATOM      8  C   UNL     1     -36.718  20.218   1.659  0.00  0.00    +0.039 C 
ATOM      9  C   UNL     1     -34.320  20.002   1.860  0.00  0.00    +0.003 C 
ATOM     10  C   UNL     1     -36.712  19.301   0.608  0.00  0.00    +0.167 C 
ATOM     11  C   UNL     1     -34.314  19.085   0.809  0.00  0.00    +0.040 C 
ATOM     12  C   UNL     1     -35.510  18.736   0.182  0.00  0.00    +0.167 C 
BRANCH  10  13
ATOM     13  O   UNL     1     -37.886  18.966   0.004  0.00  0.00    -0.503 OA
ATOM     14  H   UNL     1     -38.543  19.619  -0.139  0.00  0.00    +0.292 HD
ENDBRANCH  10  13
BRANCH  12  15
ATOM     15  O   UNL     1     -35.493  17.840  -0.844  0.00  0.00    -0.503 OA
ATOM     16  H   UNL     1     -36.048  17.968  -1.588  0.00  0.00    +0.292 HD
ENDBRANCH  12  15
ENDBRANCH   3   7
BRANCH   4  17
ATOM     17  C   UNL     1     -35.761  24.549   5.147  0.00  0.00    +0.059 C 
BRANCH  17  18
ATOM     18  C   UNL     1     -34.766  25.629   5.020  0.00  0.00    -0.014 C 
ATOM     19  C   UNL     1     -33.941  25.919   6.094  0.00  0.00    +0.036 C 
ATOM     20  C   UNL     1     -34.678  26.331   3.830  0.00  0.00    -0.001 C 
ATOM     21  C   UNL     1     -32.999  26.941   5.973  0.00  0.00    +0.167 C 
ATOM     22  C   UNL     1     -33.736  27.353   3.709  0.00  0.00    +0.039 C 
ATOM     23  C   UNL     1     -32.897  27.658   4.780  0.00  0.00    +0.167 C 
BRANCH  21  24
ATOM     24  O   UNL     1     -32.186  27.233   7.026  0.00  0.00    -0.503 OA
ATOM     25  H   UNL     1     -32.236  28.073   7.438  0.00  0.00    +0.292 HD
ENDBRANCH  21  24
BRANCH  23  26
ATOM     26  O   UNL     1     -31.982  28.658   4.651  0.00  0.00    -0.503 OA
ATOM     27  H   UNL     1     -31.067  28.469   4.721  0.00  0.00    +0.292 HD
ENDBRANCH  23  26
ENDBRANCH  17  18
ENDBRANCH   4  17
TORSDOF 7
ENDMDL
MODEL 2
REMARK VINA RESULT:      -6.8      2.458      8.973
REMARK  Name = 5311105
REMARK  7 active torsions:
REMARK  status: ('A' for Active; 'I' for Inactive)
REMARK    1  A    between atoms: C_3  and  C_8
REMARK    2  A    between atoms: C_4  and  C_6
REMARK    3  A    between atoms: C_6  and  C_18
REMARK    4  A    between atoms: C_11  and  O_14
REMARK    5  A    between atoms: C_13  and  O_16
REMARK    6  A    between atoms: C_21  and  O_24
REMARK    7  A    between atoms: C_23  and  O_26
REMARK                            x       y       z     vdW  Elec       q    Type
REMARK                         _______ _______ _______ _____ _____    ______ ____
ROOT
ATOM      1  O   UNL     1     -33.466  28.121   4.074  0.00  0.00    -0.440 OA
ATOM      2  O   UNL     1     -35.407  27.240   3.179  0.00  0.00    -0.245 OA
ATOM      3  C   UNL     1     -32.760  27.791   5.255  0.00  0.00    +0.214 C 
ATOM      4  C   UNL     1     -34.466  26.415   5.247  0.00  0.00    +0.057 C 
ATOM      5  C   UNL     1     -33.305  26.803   5.966  0.00  0.00    +0.024 C 
ATOM      6  C   UNL     1     -34.550  27.271   4.043  0.00  0.00    +0.338 C 
ENDROOT
BRANCH   3   7
ATOM      7  C   UNL     1     -31.535  28.553   5.546  0.00  0.00    +0.025 C 
ATOM      8  C   UNL     1     -30.570  28.022   6.401  0.00  0.00    +0.039 C 
ATOM      9  C   UNL     1     -31.339  29.807   4.966  0.00  0.00    +0.003 C 
ATOM     10  C   UNL     1     -29.409  28.744   6.677  0.00  0.00    +0.167 C 
ATOM     11  C   UNL     1     -30.178  30.529   5.242  0.00  0.00    +0.040 C 
ATOM     12  C   UNL     1     -29.212  29.997   6.097  0.00  0.00    +0.167 C 
BRANCH  10  13
ATOM     13  O   UNL     1     -28.474  28.216   7.515  0.00  0.00    -0.503 OA
ATOM     14  H   UNL     1     -28.725  27.908   8.364  0.00  0.00    +0.292 HD
ENDBRANCH  10  13
BRANCH  12  15
ATOM     15  O   UNL     1     -28.083  30.711   6.359  0.00  0.00    -0.503 OA
ATOM     16  H   UNL     1     -27.953  31.088   7.207  0.00  0.00    +0.292 HD
ENDBRANCH  12  15
ENDBRANCH   3   7
BRANCH   4  17
ATOM     17  C   UNL     1     -35.352  25.467   5.550  0.00  0.00    +0.059 C 
BRANCH  17  18
ATOM     18  C   UNL     1     -35.422  24.124   4.944  0.00  0.00    -0.014 C 
ATOM     19  C   UNL     1     -35.298  23.008   5.754  0.00  0.00    +0.036 C 
ATOM     20  C   UNL     1     -35.611  24.008   3.577  0.00  0.00    -0.001 C 
ATOM     21  C   UNL     1     -35.365  21.738   5.180  0.00  0.00    +0.167 C 
ATOM     22  C   UNL     1     -35.678  22.738   3.003  0.00  0.00    +0.039 C 
ATOM     23  C   UNL     1     -35.554  21.604   3.805  0.00  0.00    +0.167 C 
BRANCH  21  24
ATOM     24  O   UNL     1     -35.241  20.637   5.972  0.00  0.00    -0.503 OA
ATOM     25  H   UNL     1     -34.483  20.091   5.900  0.00  0.00    +0.292 HD
ENDBRANCH  21  24
BRANCH  23  26
ATOM     26  O   UNL     1     -35.621  20.369   3.234  0.00  0.00    -0.503 OA
ATOM     27  H   UNL     1     -34.855  19.833   3.187  0.00  0.00    +0.292 HD
ENDBRANCH  23  26
ENDBRANCH  17  18
ENDBRANCH   4  17
TORSDOF 7
ENDMDL
MODEL 3
REMARK VINA RESULT:      -6.8      3.006      7.522
REMARK  Name = 5311105
REMARK  7 active torsions:
REMARK  status: ('A' for Active; 'I' for Inactive)
REMARK    1  A    between atoms: C_3  and  C_8
REMARK    2  A    between atoms: C_4  and  C_6
REMARK    3  A    between atoms: C_6  and  C_18
REMARK    4  A    between atoms: C_11  and  O_14
REMARK    5  A    between atoms: C_13  and  O_16
REMARK    6  A    between atoms: C_21  and  O_24
REMARK    7  A    between atoms: C_23  and  O_26
REMARK                            x       y       z     vdW  Elec       q    Type
REMARK                         _______ _______ _______ _____ _____    ______ ____
ROOT
ATOM      1  O   UNL     1     -37.053  21.521   1.871  0.00  0.00    -0.440 OA
ATOM      2  O   UNL     1     -37.319  19.722   0.443  0.00  0.00    -0.245 OA
ATOM      3  C   UNL     1     -35.944  21.926   2.650  0.00  0.00    +0.214 C 
ATOM      4  C   UNL     1     -35.249  20.117   1.627  0.00  0.00    +0.057 C 
ATOM      5  C   UNL     1     -34.873  21.140   2.538  0.00  0.00    +0.024 C 
ATOM      6  C   UNL     1     -36.645  20.379   1.215  0.00  0.00    +0.338 C 
ENDROOT
BRANCH   3   7
ATOM      7  C   UNL     1     -36.099  23.141   3.467  0.00  0.00    +0.025 C 
ATOM      8  C   UNL     1     -37.077  24.079   3.142  0.00  0.00    +0.039 C 
ATOM      9  C   UNL     1     -35.267  23.352   4.567  0.00  0.00    +0.003 C 
ATOM     10  C   UNL     1     -37.224  25.231   3.916  0.00  0.00    +0.167 C 
ATOM     11  C   UNL     1     -35.414  24.503   5.341  0.00  0.00    +0.040 C 
ATOM     12  C   UNL     1     -36.393  25.442   5.016  0.00  0.00    +0.167 C 
BRANCH  10  13
ATOM     13  O   UNL     1     -38.182  26.142   3.589  0.00  0.00    -0.503 OA
ATOM     14  H   UNL     1     -38.537  26.706   4.248  0.00  0.00    +0.292 HD
ENDBRANCH  10  13
BRANCH  12  15
ATOM     15  O   UNL     1     -36.527  26.562   5.779  0.00  0.00    -0.503 OA
ATOM     16  H   UNL     1     -37.226  27.163   5.611  0.00  0.00    +0.292 HD
ENDBRANCH  12  15
ENDBRANCH   3   7
BRANCH   4  17
ATOM     17  C   UNL     1     -34.523  19.088   1.189  0.00  0.00    +0.059 C 
BRANCH  17  18
ATOM     18  C   UNL     1     -33.102  19.137   0.800  0.00  0.00    -0.014 C 
ATOM     19  C   UNL     1     -32.261  18.102   1.177  0.00  0.00    +0.036 C 
ATOM     20  C   UNL     1     -32.637  20.215   0.067  0.00  0.00    -0.001 C 
ATOM     21  C   UNL     1     -30.917  18.148   0.808  0.00  0.00    +0.167 C 
ATOM     22  C   UNL     1     -31.293  20.260  -0.302  0.00  0.00    +0.039 C 
ATOM     23  C   UNL     1     -30.432  19.228   0.069  0.00  0.00    +0.167 C 
BRANCH  21  24
ATOM     24  O   UNL     1     -30.085  17.135   1.179  0.00  0.00    -0.503 OA
ATOM     25  H   UNL     1     -29.522  16.736   0.545  0.00  0.00    +0.292 HD
ENDBRANCH  21  24
BRANCH  23  26
ATOM     26  O   UNL     1     -29.122  19.283  -0.295  0.00  0.00    -0.503 OA
ATOM     27  H   UNL     1     -28.452  19.285   0.360  0.00  0.00    +0.292 HD
ENDBRANCH  23  26
ENDBRANCH  17  18
ENDBRANCH   4  17
TORSDOF 7
ENDMDL
MODEL 4
REMARK VINA RESULT:      -6.7      3.059      4.632
REMARK  Name = 5311105
REMARK  7 active torsions:
REMARK  status: ('A' for Active; 'I' for Inactive)
REMARK    1  A    between atoms: C_3  and  C_8
REMARK    2  A    between atoms: C_4  and  C_6
REMARK    3  A    between atoms: C_6  and  C_18
REMARK    4  A    between atoms: C_11  and  O_14
REMARK    5  A    between atoms: C_13  and  O_16
REMARK    6  A    between atoms: C_21  and  O_24
REMARK    7  A    between atoms: C_23  and  O_26
REMARK                            x       y       z     vdW  Elec       q    Type
REMARK                         _______ _______ _______ _____ _____    ______ ____
ROOT
ATOM      1  O   UNL     1     -33.814  21.267   0.305  0.00  0.00    -0.440 OA
ATOM      2  O   UNL     1     -35.160  23.142   0.458  0.00  0.00    -0.245 OA
ATOM      3  C   UNL     1     -33.783  20.087   1.084  0.00  0.00    +0.214 C 
ATOM      4  C   UNL     1     -35.390  21.277   1.979  0.00  0.00    +0.057 C 
ATOM      5  C   UNL     1     -34.683  20.049   2.067  0.00  0.00    +0.024 C 
ATOM      6  C   UNL     1     -34.818  22.040   0.849  0.00  0.00    +0.338 C 
ENDROOT
BRANCH   3   7
ATOM      7  C   UNL     1     -32.790  19.063   0.720  0.00  0.00    +0.025 C 
ATOM      8  C   UNL     1     -33.154  17.718   0.688  0.00  0.00    +0.039 C 
ATOM      9  C   UNL     1     -31.483  19.440   0.406  0.00  0.00    +0.003 C 
ATOM     10  C   UNL     1     -32.212  16.748   0.344  0.00  0.00    +0.167 C 
ATOM     11  C   UNL     1     -30.542  18.470   0.061  0.00  0.00    +0.040 C 
ATOM     12  C   UNL     1     -30.906  17.124   0.029  0.00  0.00    +0.167 C 
BRANCH  10  13
ATOM     13  O   UNL     1     -32.579  15.437   0.317  0.00  0.00    -0.503 OA
ATOM     14  H   UNL     1     -32.974  15.045   1.072  0.00  0.00    +0.292 HD
ENDBRANCH  10  13
BRANCH  12  15
ATOM     15  O   UNL     1     -29.979  16.186  -0.309  0.00  0.00    -0.503 OA
ATOM     16  H   UNL     1     -30.228  15.286  -0.383  0.00  0.00    +0.292 HD
ENDBRANCH  12  15
ENDBRANCH   3   7
BRANCH   4  17
ATOM     17  C   UNL     1     -36.389  21.716   2.745  0.00  0.00    +0.059 C 
BRANCH  17  18
ATOM     18  C   UNL     1     -36.397  22.970   3.520  0.00  0.00    -0.014 C 
ATOM     19  C   UNL     1     -37.288  23.973   3.177  0.00  0.00    +0.036 C 
ATOM     20  C   UNL     1     -35.513  23.119   4.575  0.00  0.00    -0.001 C 
ATOM     21  C   UNL     1     -37.296  25.159   3.911  0.00  0.00    +0.167 C 
ATOM     22  C   UNL     1     -35.520  24.305   5.309  0.00  0.00    +0.039 C 
ATOM     23  C   UNL     1     -36.411  25.325   4.977  0.00  0.00    +0.167 C 
BRANCH  21  24
ATOM     24  O   UNL     1     -38.169  26.150   3.576  0.00  0.00    -0.503 OA
ATOM     25  H   UNL     1     -38.336  26.341   2.674  0.00  0.00    +0.292 HD
ENDBRANCH  21  24
BRANCH  23  26
ATOM     26  O   UNL     1     -36.409  26.479   5.700  0.00  0.00    -0.503 OA
ATOM     27  H   UNL     1     -37.168  27.028   5.709  0.00  0.00    +0.292 HD
ENDBRANCH  23  26
ENDBRANCH  17  18
ENDBRANCH   4  17
TORSDOF 7
ENDMDL
MODEL 5
REMARK VINA RESULT:      -6.5      3.146      4.933
REMARK  Name = 5311105
REMARK  7 active torsions:
REMARK  status: ('A' for Active; 'I' for Inactive)
REMARK    1  A    between atoms: C_3  and  C_8
REMARK    2  A    between atoms: C_4  and  C_6
REMARK    3  A    between atoms: C_6  and  C_18
REMARK    4  A    between atoms: C_11  and  O_14
REMARK    5  A    between atoms: C_13  and  O_16
REMARK    6  A    between atoms: C_21  and  O_24
REMARK    7  A    between atoms: C_23  and  O_26
REMARK                            x       y       z     vdW  Elec       q    Type
REMARK                         _______ _______ _______ _____ _____    ______ ____
ROOT
ATOM      1  O   UNL     1     -35.024  20.589  -0.129  0.00  0.00    -0.440 OA
ATOM      2  O   UNL     1     -37.068  21.648  -0.355  0.00  0.00    -0.245 OA
ATOM      3  C   UNL     1     -34.273  20.269   1.026  0.00  0.00    +0.214 C 
ATOM      4  C   UNL     1     -36.065  21.256   1.809  0.00  0.00    +0.057 C 
ATOM      5  C   UNL     1     -34.841  20.637   2.175  0.00  0.00    +0.024 C 
ATOM      6  C   UNL     1     -36.161  21.215   0.334  0.00  0.00    +0.338 C 
ENDROOT
BRANCH   3   7
ATOM      7  C   UNL     1     -32.988  19.580   0.826  0.00  0.00    +0.025 C 
ATOM      8  C   UNL     1     -31.972  20.194   0.095  0.00  0.00    +0.039 C 
ATOM      9  C   UNL     1     -32.785  18.310   1.371  0.00  0.00    +0.003 C 
ATOM     10  C   UNL     1     -30.754  19.540  -0.094  0.00  0.00    +0.167 C 
ATOM     11  C   UNL     1     -31.568  17.657   1.182  0.00  0.00    +0.040 C 
ATOM     12  C   UNL     1     -30.551  18.272   0.451  0.00  0.00    +0.167 C 
BRANCH  10  13
ATOM     13  O   UNL     1     -29.770  20.149  -0.812  0.00  0.00    -0.503 OA
ATOM     14  H   UNL     1     -29.115  19.634  -1.241  0.00  0.00    +0.292 HD
ENDBRANCH  10  13
BRANCH  12  15
ATOM     15  O   UNL     1     -29.367  17.625   0.273  0.00  0.00    -0.503 OA
ATOM     16  H   UNL     1     -29.110  17.344  -0.583  0.00  0.00    +0.292 HD
ENDBRANCH  12  15
ENDBRANCH   3   7
BRANCH   4  17
ATOM     17  C   UNL     1     -36.993  21.792   2.602  0.00  0.00    +0.059 C 
BRANCH  17  18
ATOM     18  C   UNL     1     -36.865  23.055   3.351  0.00  0.00    -0.014 C 
ATOM     19  C   UNL     1     -37.674  24.127   3.014  0.00  0.00    +0.036 C 
ATOM     20  C   UNL     1     -35.938  23.144   4.376  0.00  0.00    -0.001 C 
ATOM     21  C   UNL     1     -37.553  25.323   3.723  0.00  0.00    +0.167 C 
ATOM     22  C   UNL     1     -35.817  24.339   5.085  0.00  0.00    +0.039 C 
ATOM     23  C   UNL     1     -36.623  25.428   4.758  0.00  0.00    +0.167 C 
BRANCH  21  24
ATOM     24  O   UNL     1     -38.344  26.381   3.393  0.00  0.00    -0.503 OA
ATOM     25  H   UNL     1     -37.982  27.109   2.927  0.00  0.00    +0.292 HD
ENDBRANCH  21  24
BRANCH  23  26
ATOM     26  O   UNL     1     -36.496  26.590   5.456  0.00  0.00    -0.503 OA
ATOM     27  H   UNL     1     -36.441  27.407   5.002  0.00  0.00    +0.292 HD
ENDBRANCH  23  26
ENDBRANCH  17  18
ENDBRANCH   4  17
TORSDOF 7
ENDMDL
MODEL 6
REMARK VINA RESULT:      -6.4      5.580      7.768
REMARK  Name = 5311105
REMARK  7 active torsions:
REMARK  status: ('A' for Active; 'I' for Inactive)
REMARK    1  A    between atoms: C_3  and  C_8
REMARK    2  A    between atoms: C_4  and  C_6
REMARK    3  A    between atoms: C_6  and  C_18
REMARK    4  A    between atoms: C_11  and  O_14
REMARK    5  A    between atoms: C_13  and  O_16
REMARK    6  A    between atoms: C_21  and  O_24
REMARK    7  A    between atoms: C_23  and  O_26
REMARK                            x       y       z     vdW  Elec       q    Type
REMARK                         _______ _______ _______ _____ _____    ______ ____
ROOT
ATOM      1  O   UNL     1     -38.940  26.825   1.403  0.00  0.00    -0.440 OA
ATOM      2  O   UNL     1     -36.691  27.152   0.976  0.00  0.00    -0.245 OA
ATOM      3  C   UNL     1     -39.590  26.094   2.425  0.00  0.00    +0.214 C 
ATOM      4  C   UNL     1     -37.456  25.826   2.847  0.00  0.00    +0.057 C 
ATOM      5  C   UNL     1     -38.766  25.498   3.288  0.00  0.00    +0.024 C 
ATOM      6  C   UNL     1     -37.591  26.672   1.642  0.00  0.00    +0.338 C 
ENDROOT
BRANCH   3   7
ATOM      7  C   UNL     1     -41.061  26.085   2.419  0.00  0.00    +0.025 C 
ATOM      8  C   UNL     1     -41.768  26.748   3.421  0.00  0.00    +0.039 C 
ATOM      9  C   UNL     1     -41.750  25.412   1.408  0.00  0.00    +0.003 C 
ATOM     10  C   UNL     1     -43.163  26.738   3.415  0.00  0.00    +0.167 C 
ATOM     11  C   UNL     1     -43.145  25.403   1.402  0.00  0.00    +0.040 C 
ATOM     12  C   UNL     1     -43.852  26.067   2.405  0.00  0.00    +0.167 C 
BRANCH  10  13
ATOM     13  O   UNL     1     -43.842  27.388   4.401  0.00  0.00    -0.503 OA
ATOM     14  H   UNL     1     -43.458  27.485   5.250  0.00  0.00    +0.292 HD
ENDBRANCH  10  13
BRANCH  12  15
ATOM     15  O   UNL     1     -45.213  26.051   2.389  0.00  0.00    -0.503 OA
ATOM     16  H   UNL     1     -45.694  26.765   2.758  0.00  0.00    +0.292 HD
ENDBRANCH  12  15
ENDBRANCH   3   7
BRANCH   4  17
ATOM     17  C   UNL     1     -36.288  25.466   3.377  0.00  0.00    +0.059 C 
BRANCH  17  18
ATOM     18  C   UNL     1     -35.995  24.176   4.029  0.00  0.00    -0.014 C 
ATOM     19  C   UNL     1     -36.072  23.009   3.286  0.00  0.00    +0.036 C 
ATOM     20  C   UNL     1     -35.650  24.157   5.369  0.00  0.00    -0.001 C 
ATOM     21  C   UNL     1     -35.795  21.789   3.902  0.00  0.00    +0.167 C 
ATOM     22  C   UNL     1     -35.373  22.937   5.986  0.00  0.00    +0.039 C 
ATOM     23  C   UNL     1     -35.446  21.753   5.253  0.00  0.00    +0.167 C 
BRANCH  21  24
ATOM     24  O   UNL     1     -35.871  20.639   3.177  0.00  0.00    -0.503 OA
ATOM     25  H   UNL     1     -35.094  20.263   2.811  0.00  0.00    +0.292 HD
ENDBRANCH  21  24
BRANCH  23  26
ATOM     26  O   UNL     1     -35.174  20.568   5.865  0.00  0.00    -0.503 OA
ATOM     27  H   UNL     1     -35.830  19.901   5.908  0.00  0.00    +0.292 HD
ENDBRANCH  23  26
ENDBRANCH  17  18
ENDBRANCH   4  17
TORSDOF 7
ENDMDL
MODEL 7
REMARK VINA RESULT:      -6.4      2.265      3.770
REMARK  Name = 5311105
REMARK  7 active torsions:
REMARK  status: ('A' for Active; 'I' for Inactive)
REMARK    1  A    between atoms: C_3  and  C_8
REMARK    2  A    between atoms: C_4  and  C_6
REMARK    3  A    between atoms: C_6  and  C_18
REMARK    4  A    between atoms: C_11  and  O_14
REMARK    5  A    between atoms: C_13  and  O_16
REMARK    6  A    between atoms: C_21  and  O_24
REMARK    7  A    between atoms: C_23  and  O_26
REMARK                            x       y       z     vdW  Elec       q    Type
REMARK                         _______ _______ _______ _____ _____    ______ ____
ROOT
ATOM      1  O   UNL     1     -35.879  21.070   0.257  0.00  0.00    -0.440 OA
ATOM      2  O   UNL     1     -37.184  22.979   0.318  0.00  0.00    -0.245 OA
ATOM      3  C   UNL     1     -35.274  20.332   1.300  0.00  0.00    +0.214 C 
ATOM      4  C   UNL     1     -36.305  21.968   2.330  0.00  0.00    +0.057 C 
ATOM      5  C   UNL     1     -35.496  20.817   2.522  0.00  0.00    +0.024 C 
ATOM      6  C   UNL     1     -36.537  22.111   0.876  0.00  0.00    +0.338 C 
ENDROOT
BRANCH   3   7
ATOM      7  C   UNL     1     -34.494  19.142   0.922  0.00  0.00    +0.025 C 
ATOM      8  C   UNL     1     -33.233  18.930   1.476  0.00  0.00    +0.039 C 
ATOM      9  C   UNL     1     -35.019  18.225   0.009  0.00  0.00    +0.003 C 
ATOM     10  C   UNL     1     -32.494  17.801   1.117  0.00  0.00    +0.167 C 
ATOM     11  C   UNL     1     -34.281  17.097  -0.348  0.00  0.00    +0.040 C 
ATOM     12  C   UNL     1     -33.019  16.885   0.206  0.00  0.00    +0.167 C 
BRANCH  10  13
ATOM     13  O   UNL     1     -31.262  17.605   1.664  0.00  0.00    -0.503 OA
ATOM     14  H   UNL     1     -30.633  17.068   1.222  0.00  0.00    +0.292 HD
ENDBRANCH  10  13
BRANCH  12  15
ATOM     15  O   UNL     1     -32.307  15.780  -0.151  0.00  0.00    -0.503 OA
ATOM     16  H   UNL     1     -31.371  15.792  -0.109  0.00  0.00    +0.292 HD
ENDBRANCH  12  15
ENDBRANCH   3   7
BRANCH   4  17
ATOM     17  C   UNL     1     -36.793  22.802   3.248  0.00  0.00    +0.059 C 
BRANCH  17  18
ATOM     18  C   UNL     1     -36.028  23.835   3.972  0.00  0.00    -0.014 C 
ATOM     19  C   UNL     1     -36.193  25.165   3.626  0.00  0.00    +0.036 C 
ATOM     20  C   UNL     1     -35.162  23.452   4.981  0.00  0.00    -0.001 C 
ATOM     21  C   UNL     1     -35.470  26.142   4.310  0.00  0.00    +0.167 C 
ATOM     22  C   UNL     1     -34.439  24.429   5.666  0.00  0.00    +0.039 C 
ATOM     23  C   UNL     1     -34.592  25.773   5.330  0.00  0.00    +0.167 C 
BRANCH  21  24
ATOM     24  O   UNL     1     -35.625  27.452   3.973  0.00  0.00    -0.503 OA
ATOM     25  H   UNL     1     -36.134  27.685   3.221  0.00  0.00    +0.292 HD
ENDBRANCH  21  24
BRANCH  23  26
ATOM     26  O   UNL     1     -33.880  26.718   6.005  0.00  0.00    -0.503 OA
ATOM     27  H   UNL     1     -33.823  26.684   6.939  0.00  0.00    +0.292 HD
ENDBRANCH  23  26
ENDBRANCH  17  18
ENDBRANCH   4  17
TORSDOF 7
ENDMDL
MODEL 8
REMARK VINA RESULT:      -6.3      2.648      8.916
REMARK  Name = 5311105
REMARK  7 active torsions:
REMARK  status: ('A' for Active; 'I' for Inactive)
REMARK    1  A    between atoms: C_3  and  C_8
REMARK    2  A    between atoms: C_4  and  C_6
REMARK    3  A    between atoms: C_6  and  C_18
REMARK    4  A    between atoms: C_11  and  O_14
REMARK    5  A    between atoms: C_13  and  O_16
REMARK    6  A    between atoms: C_21  and  O_24
REMARK    7  A    between atoms: C_23  and  O_26
REMARK                            x       y       z     vdW  Elec       q    Type
REMARK                         _______ _______ _______ _____ _____    ______ ____
ROOT
ATOM      1  O   UNL     1     -33.709  28.694   3.706  0.00  0.00    -0.440 OA
ATOM      2  O   UNL     1     -35.633  28.282   2.491  0.00  0.00    -0.245 OA
ATOM      3  C   UNL     1     -32.840  27.810   4.388  0.00  0.00    +0.214 C 
ATOM      4  C   UNL     1     -34.376  26.500   3.535  0.00  0.00    +0.057 C 
ATOM      5  C   UNL     1     -33.189  26.525   4.314  0.00  0.00    +0.024 C 
ATOM      6  C   UNL     1     -34.690  27.895   3.158  0.00  0.00    +0.338 C 
ENDROOT
BRANCH   3   7
ATOM      7  C   UNL     1     -31.680  28.399   5.076  0.00  0.00    +0.025 C 
ATOM      8  C   UNL     1     -30.425  28.378   4.469  0.00  0.00    +0.039 C 
ATOM      9  C   UNL     1     -31.837  28.979   6.336  0.00  0.00    +0.003 C 
ATOM     10  C   UNL     1     -29.325  28.936   5.122  0.00  0.00    +0.167 C 
ATOM     11  C   UNL     1     -30.737  29.537   6.988  0.00  0.00    +0.040 C 
ATOM     12  C   UNL     1     -29.481  29.517   6.380  0.00  0.00    +0.167 C 
BRANCH  10  13
ATOM     13  O   UNL     1     -28.104  28.909   4.520  0.00  0.00    -0.503 OA
ATOM     14  H   UNL     1     -28.040  28.954   3.586  0.00  0.00    +0.292 HD
ENDBRANCH  10  13
BRANCH  12  15
ATOM     15  O   UNL     1     -28.416  30.064   7.026  0.00  0.00    -0.503 OA
ATOM     16  H   UNL     1     -28.297  29.916   7.944  0.00  0.00    +0.292 HD
ENDBRANCH  12  15
ENDBRANCH   3   7
BRANCH   4  17
ATOM     17  C   UNL     1     -35.113  25.448   3.178  0.00  0.00    +0.059 C 
BRANCH  17  18
ATOM     18  C   UNL     1     -35.205  24.170   3.908  0.00  0.00    -0.014 C 
ATOM     19  C   UNL     1     -35.431  23.001   3.201  0.00  0.00    +0.036 C 
ATOM     20  C   UNL     1     -35.065  24.166   5.286  0.00  0.00    -0.001 C 
ATOM     21  C   UNL     1     -35.517  21.792   3.892  0.00  0.00    +0.167 C 
ATOM     22  C   UNL     1     -35.152  22.957   5.976  0.00  0.00    +0.039 C 
ATOM     23  C   UNL     1     -35.378  21.771   5.280  0.00  0.00    +0.167 C 
BRANCH  21  24
ATOM     24  O   UNL     1     -35.741  20.640   3.201  0.00  0.00    -0.503 OA
ATOM     25  H   UNL     1     -35.192  20.414   2.476  0.00  0.00    +0.292 HD
ENDBRANCH  21  24
BRANCH  23  26
ATOM     26  O   UNL     1     -35.462  20.597   5.964  0.00  0.00    -0.503 OA
ATOM     27  H   UNL     1     -35.334  19.783   5.518  0.00  0.00    +0.292 HD
ENDBRANCH  23  26
ENDBRANCH  17  18
ENDBRANCH   4  17
TORSDOF 7
ENDMDL
MODEL 9
REMARK VINA RESULT:      -6.3      1.665      2.159
REMARK  Name = 5311105
REMARK  7 active torsions:
REMARK  status: ('A' for Active; 'I' for Inactive)
REMARK    1  A    between atoms: C_3  and  C_8
REMARK    2  A    between atoms: C_4  and  C_6
REMARK    3  A    between atoms: C_6  and  C_18
REMARK    4  A    between atoms: C_11  and  O_14
REMARK    5  A    between atoms: C_13  and  O_16
REMARK    6  A    between atoms: C_21  and  O_24
REMARK    7  A    between atoms: C_23  and  O_26
REMARK                            x       y       z     vdW  Elec       q    Type
REMARK                         _______ _______ _______ _____ _____    ______ ____
ROOT
ATOM      1  O   UNL     1     -36.030  21.995   3.992  0.00  0.00    -0.440 OA
ATOM      2  O   UNL     1     -34.762  22.793   5.753  0.00  0.00    -0.245 OA
ATOM      3  C   UNL     1     -36.947  22.655   3.141  0.00  0.00    +0.214 C 
ATOM      4  C   UNL     1     -36.245  24.228   4.495  0.00  0.00    +0.057 C 
ATOM      5  C   UNL     1     -37.102  23.954   3.396  0.00  0.00    +0.024 C 
ATOM      6  C   UNL     1     -35.572  22.963   4.859  0.00  0.00    +0.338 C 
ENDROOT
BRANCH   3   7
ATOM      7  C   UNL     1     -37.600  21.849   2.096  0.00  0.00    +0.025 C 
ATOM      8  C   UNL     1     -38.984  21.907   1.934  0.00  0.00    +0.039 C 
ATOM      9  C   UNL     1     -36.834  21.028   1.267  0.00  0.00    +0.003 C 
ATOM     10  C   UNL     1     -39.603  21.143   0.944  0.00  0.00    +0.167 C 
ATOM     11  C   UNL     1     -37.453  20.265   0.277  0.00  0.00    +0.040 C 
ATOM     12  C   UNL     1     -38.837  20.323   0.115  0.00  0.00    +0.167 C 
BRANCH  10  13
ATOM     13  O   UNL     1     -40.955  21.207   0.795  0.00  0.00    -0.503 OA
ATOM     14  H   UNL     1     -41.517  20.840   1.450  0.00  0.00    +0.292 HD
ENDBRANCH  10  13
BRANCH  12  15
ATOM     15  O   UNL     1     -39.430  19.574  -0.855  0.00  0.00    -0.503 OA
ATOM     16  H   UNL     1     -40.120  19.939  -1.373  0.00  0.00    +0.292 HD
ENDBRANCH  12  15
ENDBRANCH   3   7
BRANCH   4  17
ATOM     17  C   UNL     1     -36.044  25.387   5.122  0.00  0.00    +0.059 C 
BRANCH  17  18
ATOM     18  C   UNL     1     -34.837  26.227   5.020  0.00  0.00    -0.014 C 
ATOM     19  C   UNL     1     -33.964  26.291   6.094  0.00  0.00    +0.036 C 
ATOM     20  C   UNL     1     -34.600  26.934   3.854  0.00  0.00    -0.001 C 
ATOM     21  C   UNL     1     -32.821  27.085   5.997  0.00  0.00    +0.167 C 
ATOM     22  C   UNL     1     -33.458  27.728   3.757  0.00  0.00    +0.039 C 
ATOM     23  C   UNL     1     -32.569  27.804   4.829  0.00  0.00    +0.167 C 
BRANCH  21  24
ATOM     24  O   UNL     1     -31.961  27.154   7.051  0.00  0.00    -0.503 OA
ATOM     25  H   UNL     1     -31.901  26.439   7.655  0.00  0.00    +0.292 HD
ENDBRANCH  21  24
BRANCH  23  26
ATOM     26  O   UNL     1     -31.457  28.583   4.723  0.00  0.00    -0.503 OA
ATOM     27  H   UNL     1     -30.738  28.457   5.311  0.00  0.00    +0.292 HD
ENDBRANCH  23  26
ENDBRANCH  17  18
ENDBRANCH   4  17
TORSDOF 7
ENDMDL
