MODEL 1
REMARK VINA RESULT:      -5.4      0.000      0.000
REMARK  Name = 56599473
REMARK  5 active torsions:
REMARK  status: ('A' for Active; 'I' for Inactive)
REMARK    1  A    between atoms: C_5  and  S_20
REMARK    2  A    between atoms: C_7  and  S_22
REMARK    3  A    between atoms: C_7  and  C_24
REMARK    4  A    between atoms: C_15  and  N_19
REMARK    5  A    between atoms: C_24  and  O_25
REMARK                            x       y       z     vdW  Elec       q    Type
REMARK                         _______ _______ _______ _____ _____    ______ ____
ROOT
ATOM      1  O   UNL     1     -40.154  26.525   1.178  0.00  0.00    -0.272 OA
ATOM      2  O   UNL     1     -37.801  21.634   1.208  0.00  0.00    -0.272 OA
ATOM      3  N   UNL     1     -37.936  23.828   1.936  0.00  0.00    -0.243 N 
ATOM      4  N   UNL     1     -40.212  24.277   0.561  0.00  0.00    -0.261 N 
ATOM      5  C   UNL     1     -38.184  25.238   1.592  0.00  0.00    +0.177 C 
ATOM      6  C   UNL     1     -37.899  26.035   2.895  0.00  0.00    +0.066 C 
ATOM      7  C   UNL     1     -39.438  23.069   0.155  0.00  0.00    +0.197 C 
ATOM      8  C   UNL     1     -37.160  23.776   3.112  0.00  0.00    +0.053 C 
ATOM      9  C   UNL     1     -37.079  25.051   3.676  0.00  0.00    -0.005 C 
ATOM     10  C   UNL     1     -39.614  25.418   1.121  0.00  0.00    +0.253 C 
ATOM     11  C   UNL     1     -38.316  22.752   1.159  0.00  0.00    +0.259 C 
ATOM     12  C   UNL     1     -36.555  22.690   3.724  0.00  0.00    +0.039 C 
ATOM     13  C   UNL     1     -36.381  25.277   4.851  0.00  0.00    -0.001 C 
ATOM     14  C   UNL     1     -41.663  24.273   0.368  0.00  0.00    +0.116 C 
ATOM     15  C   UNL     1     -35.839  22.910   4.904  0.00  0.00    +0.144 C 
ATOM     16  C   UNL     1     -35.749  24.194   5.462  0.00  0.00    +0.024 C 
ENDROOT
BRANCH  15  19
ATOM     17  O   UNL     1     -35.004  20.760   4.909  0.00  0.00    -0.126 OA
ATOM     18  O   UNL     1     -34.847  21.946   6.749  0.00  0.00    -0.126 OA
ATOM     19  N   UNL     1     -35.199  21.819   5.552  0.00  0.00    +0.058 N 
ENDBRANCH  15  19
BRANCH   5  20
ATOM     20  S   UNL     1     -37.050  25.847   0.285  0.00  0.00    -0.113 S 
ATOM     21  C   UNL     1     -36.774  27.501   0.951  0.00  0.00    +0.071 C 
ENDBRANCH   5  20
BRANCH   7  22
ATOM     22  S   UNL     1     -38.672  23.280  -1.499  0.00  0.00    -0.112 S 
ATOM     23  C   UNL     1     -39.065  21.647  -2.158  0.00  0.00    +0.071 C 
ENDBRANCH   7  22
BRANCH   7  24
ATOM     24  C   UNL     1     -40.327  21.809   0.062  0.00  0.00    +0.175 C 
BRANCH  24  25
ATOM     25  O   UNL     1     -40.485  21.296   1.365  0.00  0.00    -0.379 OA
ATOM     26  H   UNL     1     -40.731  22.014   1.969  0.00  0.00    +0.211 HD
ENDBRANCH  24  25
ENDBRANCH   7  24
TORSDOF 5
ENDMDL
MODEL 2
REMARK VINA RESULT:      -5.3      4.275      5.707
REMARK  Name = 56599473
REMARK  5 active torsions:
REMARK  status: ('A' for Active; 'I' for Inactive)
REMARK    1  A    between atoms: C_5  and  S_20
REMARK    2  A    between atoms: C_7  and  S_22
REMARK    3  A    between atoms: C_7  and  C_24
REMARK    4  A    between atoms: C_15  and  N_19
REMARK    5  A    between atoms: C_24  and  O_25
REMARK                            x       y       z     vdW  Elec       q    Type
REMARK                         _______ _______ _______ _____ _____    ______ ____
ROOT
ATOM      1  O   UNL     1     -37.462  27.377   1.629  0.00  0.00    -0.272 OA
ATOM      2  O   UNL     1     -33.603  24.803   4.448  0.00  0.00    -0.272 OA
ATOM      3  N   UNL     1     -34.412  26.677   3.353  0.00  0.00    -0.243 N 
ATOM      4  N   UNL     1     -36.807  25.529   2.892  0.00  0.00    -0.261 N 
ATOM      5  C   UNL     1     -35.147  27.221   2.199  0.00  0.00    +0.177 C 
ATOM      6  C   UNL     1     -35.044  28.764   2.337  0.00  0.00    +0.066 C 
ATOM      7  C   UNL     1     -35.707  24.599   3.273  0.00  0.00    +0.197 C 
ATOM      8  C   UNL     1     -33.571  27.682   3.873  0.00  0.00    +0.053 C 
ATOM      9  C   UNL     1     -33.880  28.905   3.274  0.00  0.00    -0.005 C 
ATOM     10  C   UNL     1     -36.587  26.745   2.225  0.00  0.00    +0.253 C 
ATOM     11  C   UNL     1     -34.467  25.362   3.770  0.00  0.00    +0.259 C 
ATOM     12  C   UNL     1     -32.589  27.597   4.846  0.00  0.00    +0.039 C 
ATOM     13  C   UNL     1     -33.208  30.067   3.616  0.00  0.00    -0.001 C 
ATOM     14  C   UNL     1     -38.183  25.158   3.229  0.00  0.00    +0.116 C 
ATOM     15  C   UNL     1     -31.897  28.762   5.190  0.00  0.00    +0.144 C 
ATOM     16  C   UNL     1     -32.201  29.988   4.578  0.00  0.00    +0.024 C 
ENDROOT
BRANCH  15  19
ATOM     17  O   UNL     1     -30.804  29.628   7.027  0.00  0.00    -0.126 OA
ATOM     18  O   UNL     1     -30.079  27.740   6.175  0.00  0.00    -0.126 OA
ATOM     19  N   UNL     1     -30.877  28.708   6.179  0.00  0.00    +0.058 N 
ENDBRANCH  15  19
BRANCH   5  20
ATOM     20  S   UNL     1     -34.393  26.733   0.599  0.00  0.00    -0.113 S 
ATOM     21  C   UNL     1     -34.633  28.297  -0.270  0.00  0.00    +0.071 C 
ENDBRANCH   5  20
BRANCH   7  22
ATOM     22  S   UNL     1     -35.192  23.544   1.861  0.00  0.00    -0.112 S 
ATOM     23  C   UNL     1     -35.634  21.948   2.577  0.00  0.00    +0.071 C 
ENDBRANCH   7  22
BRANCH   7  24
ATOM     24  C   UNL     1     -36.123  23.632   4.404  0.00  0.00    +0.175 C 
BRANCH  24  25
ATOM     25  O   UNL     1     -36.049  24.337   5.622  0.00  0.00    -0.379 OA
ATOM     26  H   UNL     1     -36.256  25.272   5.468  0.00  0.00    +0.211 HD
ENDBRANCH  24  25
ENDBRANCH   7  24
TORSDOF 5
ENDMDL
MODEL 3
REMARK VINA RESULT:      -5.1      2.318      6.577
REMARK  Name = 56599473
REMARK  5 active torsions:
REMARK  status: ('A' for Active; 'I' for Inactive)
REMARK    1  A    between atoms: C_5  and  S_20
REMARK    2  A    between atoms: C_7  and  S_22
REMARK    3  A    between atoms: C_7  and  C_24
REMARK    4  A    between atoms: C_15  and  N_19
REMARK    5  A    between atoms: C_24  and  O_25
REMARK                            x       y       z     vdW  Elec       q    Type
REMARK                         _______ _______ _______ _____ _____    ______ ____
ROOT
ATOM      1  O   UNL     1     -35.190  20.865   3.948  0.00  0.00    -0.272 OA
ATOM      2  O   UNL     1     -37.662  25.636   3.177  0.00  0.00    -0.272 OA
ATOM      3  N   UNL     1     -37.299  23.420   2.610  0.00  0.00    -0.243 N 
ATOM      4  N   UNL     1     -35.656  23.020   4.710  0.00  0.00    -0.261 N 
ATOM      5  C   UNL     1     -36.331  22.324   2.438  0.00  0.00    +0.177 C 
ATOM      6  C   UNL     1     -37.153  21.137   1.863  0.00  0.00    +0.066 C 
ATOM      7  C   UNL     1     -35.919  24.443   4.356  0.00  0.00    +0.197 C 
ATOM      8  C   UNL     1     -38.441  23.146   1.828  0.00  0.00    +0.053 C 
ATOM      9  C   UNL     1     -38.370  21.840   1.340  0.00  0.00    -0.005 C 
ATOM     10  C   UNL     1     -35.693  21.977   3.770  0.00  0.00    +0.253 C 
ATOM     11  C   UNL     1     -37.061  24.571   3.333  0.00  0.00    +0.259 C 
ATOM     12  C   UNL     1     -39.533  23.950   1.550  0.00  0.00    +0.039 C 
ATOM     13  C   UNL     1     -39.376  21.310   0.549  0.00  0.00    -0.001 C 
ATOM     14  C   UNL     1     -35.345  22.692   6.103  0.00  0.00    +0.116 C 
ATOM     15  C   UNL     1     -40.549  23.428   0.743  0.00  0.00    +0.144 C 
ATOM     16  C   UNL     1     -40.471  22.120   0.243  0.00  0.00    +0.024 C 
ENDROOT
BRANCH  15  19
ATOM     17  O   UNL     1     -41.533  25.470   0.314  0.00  0.00    -0.126 OA
ATOM     18  O   UNL     1     -42.795  23.674   0.277  0.00  0.00    -0.126 OA
ATOM     19  N   UNL     1     -41.681  24.230   0.430  0.00  0.00    +0.058 N 
ENDBRANCH  15  19
BRANCH   5  20
ATOM     20  S   UNL     1     -35.007  22.744   1.240  0.00  0.00    -0.113 S 
ATOM     21  C   UNL     1     -34.817  21.107   0.503  0.00  0.00    +0.071 C 
ENDBRANCH   5  20
BRANCH   7  22
ATOM     22  S   UNL     1     -34.432  25.250   3.645  0.00  0.00    -0.112 S 
ATOM     23  C   UNL     1     -33.733  25.875   5.187  0.00  0.00    +0.071 C 
ENDBRANCH   7  22
BRANCH   7  24
ATOM     24  C   UNL     1     -36.321  25.287   5.587  0.00  0.00    +0.175 C 
BRANCH  24  25
ATOM     25  O   UNL     1     -36.444  26.627   5.169  0.00  0.00    -0.379 OA
ATOM     26  H   UNL     1     -35.565  26.987   4.970  0.00  0.00    +0.211 HD
ENDBRANCH  24  25
ENDBRANCH   7  24
TORSDOF 5
ENDMDL
MODEL 4
REMARK VINA RESULT:      -5.1      3.860      6.326
REMARK  Name = 56599473
REMARK  5 active torsions:
REMARK  status: ('A' for Active; 'I' for Inactive)
REMARK    1  A    between atoms: C_5  and  S_20
REMARK    2  A    between atoms: C_7  and  S_22
REMARK    3  A    between atoms: C_7  and  C_24
REMARK    4  A    between atoms: C_15  and  N_19
REMARK    5  A    between atoms: C_24  and  O_25
REMARK                            x       y       z     vdW  Elec       q    Type
REMARK                         _______ _______ _______ _____ _____    ______ ____
ROOT
ATOM      1  O   UNL     1     -33.283  27.126  -0.530  0.00  0.00    -0.272 OA
ATOM      2  O   UNL     1     -34.550  26.909   4.744  0.00  0.00    -0.272 OA
ATOM      3  N   UNL     1     -34.572  26.009   2.610  0.00  0.00    -0.243 N 
ATOM      4  N   UNL     1     -33.036  27.993   1.622  0.00  0.00    -0.261 N 
ATOM      5  C   UNL     1     -34.719  26.244   1.164  0.00  0.00    +0.177 C 
ATOM      6  C   UNL     1     -34.674  24.834   0.513  0.00  0.00    +0.066 C 
ATOM      7  C   UNL     1     -33.670  28.262   2.944  0.00  0.00    +0.197 C 
ATOM      8  C   UNL     1     -34.869  24.658   2.885  0.00  0.00    +0.053 C 
ATOM      9  C   UNL     1     -34.979  23.951   1.686  0.00  0.00    -0.005 C 
ATOM     10  C   UNL     1     -33.599  27.135   0.663  0.00  0.00    +0.253 C 
ATOM     11  C   UNL     1     -34.297  26.990   3.541  0.00  0.00    +0.259 C 
ATOM     12  C   UNL     1     -35.016  24.016   4.103  0.00  0.00    +0.039 C 
ATOM     13  C   UNL     1     -35.255  22.594   1.671  0.00  0.00    -0.001 C 
ATOM     14  C   UNL     1     -31.767  28.652   1.309  0.00  0.00    +0.116 C 
ATOM     15  C   UNL     1     -35.306  22.648   4.099  0.00  0.00    +0.144 C 
ATOM     16  C   UNL     1     -35.428  21.942   2.893  0.00  0.00    +0.024 C 
ENDROOT
BRANCH  15  19
ATOM     17  O   UNL     1     -35.072  20.776   5.425  0.00  0.00    -0.126 OA
ATOM     18  O   UNL     1     -36.012  22.560   6.293  0.00  0.00    -0.126 OA
ATOM     19  N   UNL     1     -35.472  21.961   5.332  0.00  0.00    +0.058 N 
ENDBRANCH  15  19
BRANCH   5  20
ATOM     20  S   UNL     1     -36.327  27.022   0.744  0.00  0.00    -0.113 S 
ATOM     21  C   UNL     1     -36.650  26.108  -0.778  0.00  0.00    +0.071 C 
ENDBRANCH   5  20
BRANCH   7  22
ATOM     22  S   UNL     1     -34.987  29.535   2.816  0.00  0.00    -0.112 S 
ATOM     23  C   UNL     1     -33.983  30.968   3.257  0.00  0.00    +0.071 C 
ENDBRANCH   7  22
BRANCH   7  24
ATOM     24  C   UNL     1     -32.655  28.793   3.981  0.00  0.00    +0.175 C 
BRANCH  24  25
ATOM     25  O   UNL     1     -31.966  27.686   4.515  0.00  0.00    -0.379 OA
ATOM     26  H   UNL     1     -32.323  26.868   4.135  0.00  0.00    +0.211 HD
ENDBRANCH  24  25
ENDBRANCH   7  24
TORSDOF 5
ENDMDL
MODEL 5
REMARK VINA RESULT:      -5.1      2.309      6.534
REMARK  Name = 56599473
REMARK  5 active torsions:
REMARK  status: ('A' for Active; 'I' for Inactive)
REMARK    1  A    between atoms: C_5  and  S_20
REMARK    2  A    between atoms: C_7  and  S_22
REMARK    3  A    between atoms: C_7  and  C_24
REMARK    4  A    between atoms: C_15  and  N_19
REMARK    5  A    between atoms: C_24  and  O_25
REMARK                            x       y       z     vdW  Elec       q    Type
REMARK                         _______ _______ _______ _____ _____    ______ ____
ROOT
ATOM      1  O   UNL     1     -35.835  21.615   3.773  0.00  0.00    -0.272 OA
ATOM      2  O   UNL     1     -36.764  26.886   2.871  0.00  0.00    -0.272 OA
ATOM      3  N   UNL     1     -37.282  24.650   2.564  0.00  0.00    -0.243 N 
ATOM      4  N   UNL     1     -35.383  23.842   4.300  0.00  0.00    -0.261 N 
ATOM      5  C   UNL     1     -36.790  23.279   2.349  0.00  0.00    +0.177 C 
ATOM      6  C   UNL     1     -38.063  22.414   2.140  0.00  0.00    +0.066 C 
ATOM      7  C   UNL     1     -35.257  25.244   3.809  0.00  0.00    +0.197 C 
ATOM      8  C   UNL     1     -38.608  24.738   2.092  0.00  0.00    +0.053 C 
ATOM      9  C   UNL     1     -39.083  23.459   1.793  0.00  0.00    -0.005 C 
ATOM     10  C   UNL     1     -35.985  22.818   3.549  0.00  0.00    +0.253 C 
ATOM     11  C   UNL     1     -36.516  25.692   3.047  0.00  0.00    +0.259 C 
ATOM     12  C   UNL     1     -39.420  25.849   1.940  0.00  0.00    +0.039 C 
ATOM     13  C   UNL     1     -40.369  23.259   1.320  0.00  0.00    -0.001 C 
ATOM     14  C   UNL     1     -34.856  23.516   5.626  0.00  0.00    +0.116 C 
ATOM     15  C   UNL     1     -40.716  25.660   1.453  0.00  0.00    +0.144 C 
ATOM     16  C   UNL     1     -41.187  24.375   1.142  0.00  0.00    +0.024 C 
ENDROOT
BRANCH  15  19
ATOM     17  O   UNL     1     -42.814  26.602   1.281  0.00  0.00    -0.126 OA
ATOM     18  O   UNL     1     -41.062  27.916   1.124  0.00  0.00    -0.126 OA
ATOM     19  N   UNL     1     -41.573  26.780   1.277  0.00  0.00    +0.058 N 
ENDBRANCH  15  19
BRANCH   5  20
ATOM     20  S   UNL     1     -35.745  23.140   0.847  0.00  0.00    -0.113 S 
ATOM     21  C   UNL     1     -36.339  21.532   0.284  0.00  0.00    +0.071 C 
ENDBRANCH   5  20
BRANCH   7  22
ATOM     22  S   UNL     1     -33.817  25.442   2.688  0.00  0.00    -0.112 S 
ATOM     23  C   UNL     1     -33.182  26.983   3.379  0.00  0.00    +0.071 C 
ENDBRANCH   7  22
BRANCH   7  24
ATOM     24  C   UNL     1     -35.048  26.250   4.963  0.00  0.00    +0.175 C 
BRANCH  24  25
ATOM     25  O   UNL     1     -36.313  26.548   5.509  0.00  0.00    -0.379 OA
ATOM     26  H   UNL     1     -36.519  25.913   6.212  0.00  0.00    +0.211 HD
ENDBRANCH  24  25
ENDBRANCH   7  24
TORSDOF 5
ENDMDL
MODEL 6
REMARK VINA RESULT:      -5.1      5.883      8.616
REMARK  Name = 56599473
REMARK  5 active torsions:
REMARK  status: ('A' for Active; 'I' for Inactive)
REMARK    1  A    between atoms: C_5  and  S_20
REMARK    2  A    between atoms: C_7  and  S_22
REMARK    3  A    between atoms: C_7  and  C_24
REMARK    4  A    between atoms: C_15  and  N_19
REMARK    5  A    between atoms: C_24  and  O_25
REMARK                            x       y       z     vdW  Elec       q    Type
REMARK                         _______ _______ _______ _____ _____    ______ ____
ROOT
ATOM      1  O   UNL     1     -29.428  27.472   1.607  0.00  0.00    -0.272 OA
ATOM      2  O   UNL     1     -33.005  28.063   5.647  0.00  0.00    -0.272 OA
ATOM      3  N   UNL     1     -32.407  27.240   3.567  0.00  0.00    -0.243 N 
ATOM      4  N   UNL     1     -29.880  28.154   3.791  0.00  0.00    -0.261 N 
ATOM      5  C   UNL     1     -31.719  27.478   2.287  0.00  0.00    +0.177 C 
ATOM      6  C   UNL     1     -32.011  26.220   1.424  0.00  0.00    +0.066 C 
ATOM      7  C   UNL     1     -30.867  28.741   4.741  0.00  0.00    +0.197 C 
ATOM      8  C   UNL     1     -33.374  26.230   3.384  0.00  0.00    +0.053 C 
ATOM      9  C   UNL     1     -33.203  25.642   2.128  0.00  0.00    -0.005 C 
ATOM     10  C   UNL     1     -30.232  27.671   2.521  0.00  0.00    +0.253 C 
ATOM     11  C   UNL     1     -32.201  27.974   4.718  0.00  0.00    +0.259 C 
ATOM     12  C   UNL     1     -34.358  25.782   4.249  0.00  0.00    +0.039 C 
ATOM     13  C   UNL     1     -34.018  24.608   1.699  0.00  0.00    -0.001 C 
ATOM     14  C   UNL     1     -28.477  28.076   4.202  0.00  0.00    +0.116 C 
ATOM     15  C   UNL     1     -35.194  24.746   3.820  0.00  0.00    +0.144 C 
ATOM     16  C   UNL     1     -35.028  24.165   2.553  0.00  0.00    +0.024 C 
ENDROOT
BRANCH  15  19
ATOM     17  O   UNL     1     -37.410  24.579   4.435  0.00  0.00    -0.126 OA
ATOM     18  O   UNL     1     -35.907  23.550   5.658  0.00  0.00    -0.126 OA
ATOM     19  N   UNL     1     -36.220  24.269   4.679  0.00  0.00    +0.058 N 
ENDBRANCH  15  19
BRANCH   5  20
ATOM     20  S   UNL     1     -32.374  28.948   1.406  0.00  0.00    -0.113 S 
ATOM     21  C   UNL     1     -32.316  28.276  -0.267  0.00  0.00    +0.071 C 
ENDBRANCH   5  20
BRANCH   7  22
ATOM     22  S   UNL     1     -31.220  30.499   4.350  0.00  0.00    -0.112 S 
ATOM     23  C   UNL     1     -29.750  31.217   5.110  0.00  0.00    +0.071 C 
ENDBRANCH   7  22
BRANCH   7  24
ATOM     24  C   UNL     1     -30.360  28.717   6.200  0.00  0.00    +0.175 C 
BRANCH  24  25
ATOM     25  O   UNL     1     -30.605  27.430   6.721  0.00  0.00    -0.379 OA
ATOM     26  H   UNL     1     -29.828  27.129   7.217  0.00  0.00    +0.211 HD
ENDBRANCH  24  25
ENDBRANCH   7  24
TORSDOF 5
ENDMDL
MODEL 7
REMARK VINA RESULT:      -5.0      7.180      9.772
REMARK  Name = 56599473
REMARK  5 active torsions:
REMARK  status: ('A' for Active; 'I' for Inactive)
REMARK    1  A    between atoms: C_5  and  S_20
REMARK    2  A    between atoms: C_7  and  S_22
REMARK    3  A    between atoms: C_7  and  C_24
REMARK    4  A    between atoms: C_15  and  N_19
REMARK    5  A    between atoms: C_24  and  O_25
REMARK                            x       y       z     vdW  Elec       q    Type
REMARK                         _______ _______ _______ _____ _____    ______ ____
ROOT
ATOM      1  O   UNL     1     -47.995  28.649   4.609  0.00  0.00    -0.272 OA
ATOM      2  O   UNL     1     -42.740  29.554   5.624  0.00  0.00    -0.272 OA
ATOM      3  N   UNL     1     -44.438  28.311   4.657  0.00  0.00    -0.243 N 
ATOM      4  N   UNL     1     -46.334  30.065   5.431  0.00  0.00    -0.261 N 
ATOM      5  C   UNL     1     -45.791  27.743   4.785  0.00  0.00    +0.177 C 
ATOM      6  C   UNL     1     -46.003  26.893   3.502  0.00  0.00    +0.066 C 
ATOM      7  C   UNL     1     -45.021  30.183   6.126  0.00  0.00    +0.197 C 
ATOM      8  C   UNL     1     -43.721  27.567   3.697  0.00  0.00    +0.053 C 
ATOM      9  C   UNL     1     -44.591  26.699   3.034  0.00  0.00    -0.005 C 
ATOM     10  C   UNL     1     -46.815  28.856   4.903  0.00  0.00    +0.253 C 
ATOM     11  C   UNL     1     -43.938  29.333   5.438  0.00  0.00    +0.259 C 
ATOM     12  C   UNL     1     -42.381  27.627   3.355  0.00  0.00    +0.039 C 
ATOM     13  C   UNL     1     -44.144  25.858   2.028  0.00  0.00    -0.001 C 
ATOM     14  C   UNL     1     -47.162  31.264   5.294  0.00  0.00    +0.116 C 
ATOM     15  C   UNL     1     -41.917  26.774   2.348  0.00  0.00    +0.144 C 
ATOM     16  C   UNL     1     -42.790  25.894   1.692  0.00  0.00    +0.024 C 
ENDROOT
BRANCH  15  19
ATOM     17  O   UNL     1     -40.222  27.316   0.881  0.00  0.00    -0.126 OA
ATOM     18  O   UNL     1     -39.695  26.316   2.762  0.00  0.00    -0.126 OA
ATOM     19  N   UNL     1     -40.545  26.803   1.979  0.00  0.00    +0.058 N 
ENDBRANCH  15  19
BRANCH   5  20
ATOM     20  S   UNL     1     -45.948  26.639   6.242  0.00  0.00    -0.113 S 
ATOM     21  C   UNL     1     -47.065  25.426   5.509  0.00  0.00    +0.071 C 
ENDBRANCH   5  20
BRANCH   7  22
ATOM     22  S   UNL     1     -45.130  29.648   7.878  0.00  0.00    -0.112 S 
ATOM     23  C   UNL     1     -43.858  30.740   8.545  0.00  0.00    +0.071 C 
ENDBRANCH   7  22
BRANCH   7  24
ATOM     24  C   UNL     1     -44.501  31.638   6.150  0.00  0.00    +0.175 C 
BRANCH  24  25
ATOM     25  O   UNL     1     -43.915  31.908   4.897  0.00  0.00    -0.379 OA
ATOM     26  H   UNL     1     -44.543  31.686   4.192  0.00  0.00    +0.211 HD
ENDBRANCH  24  25
ENDBRANCH   7  24
TORSDOF 5
ENDMDL
MODEL 8
REMARK VINA RESULT:      -5.0      3.955      5.351
REMARK  Name = 56599473
REMARK  5 active torsions:
REMARK  status: ('A' for Active; 'I' for Inactive)
REMARK    1  A    between atoms: C_5  and  S_20
REMARK    2  A    between atoms: C_7  and  S_22
REMARK    3  A    between atoms: C_7  and  C_24
REMARK    4  A    between atoms: C_15  and  N_19
REMARK    5  A    between atoms: C_24  and  O_25
REMARK                            x       y       z     vdW  Elec       q    Type
REMARK                         _______ _______ _______ _____ _____    ______ ____
ROOT
ATOM      1  O   UNL     1     -35.595  19.932   1.061  0.00  0.00    -0.272 OA
ATOM      2  O   UNL     1     -33.752  24.995   0.400  0.00  0.00    -0.272 OA
ATOM      3  N   UNL     1     -34.834  23.372   1.651  0.00  0.00    -0.243 N 
ATOM      4  N   UNL     1     -34.312  21.447  -0.163  0.00  0.00    -0.261 N 
ATOM      5  C   UNL     1     -35.769  22.236   1.668  0.00  0.00    +0.177 C 
ATOM      6  C   UNL     1     -35.932  21.862   3.167  0.00  0.00    +0.066 C 
ATOM      7  C   UNL     1     -34.149  22.849  -0.643  0.00  0.00    +0.197 C 
ATOM      8  C   UNL     1     -34.783  23.941   2.940  0.00  0.00    +0.053 C 
ATOM      9  C   UNL     1     -35.450  23.111   3.843  0.00  0.00    -0.005 C 
ATOM     10  C   UNL     1     -35.209  21.085   0.855  0.00  0.00    +0.253 C 
ATOM     11  C   UNL     1     -34.205  23.855   0.520  0.00  0.00    +0.259 C 
ATOM     12  C   UNL     1     -34.171  25.108   3.368  0.00  0.00    +0.039 C 
ATOM     13  C   UNL     1     -35.538  23.431   5.188  0.00  0.00    -0.001 C 
ATOM     14  C   UNL     1     -33.500  20.398  -0.783  0.00  0.00    +0.116 C 
ATOM     15  C   UNL     1     -34.264  25.446   4.721  0.00  0.00    +0.144 C 
ATOM     16  C   UNL     1     -34.945  24.616   5.625  0.00  0.00    +0.024 C 
ENDROOT
BRANCH  15  19
ATOM     17  O   UNL     1     -33.734  27.678   4.492  0.00  0.00    -0.126 OA
ATOM     18  O   UNL     1     -33.057  26.624   6.294  0.00  0.00    -0.126 OA
ATOM     19  N   UNL     1     -33.655  26.641   5.191  0.00  0.00    +0.058 N 
ENDBRANCH  15  19
BRANCH   5  20
ATOM     20  S   UNL     1     -37.420  22.682   1.003  0.00  0.00    -0.113 S 
ATOM     21  C   UNL     1     -38.419  21.749   2.181  0.00  0.00    +0.071 C 
ENDBRANCH   5  20
BRANCH   7  22
ATOM     22  S   UNL     1     -35.453  23.308  -1.850  0.00  0.00    -0.112 S 
ATOM     23  C   UNL     1     -34.413  23.355  -3.324  0.00  0.00    +0.071 C 
ENDBRANCH   7  22
BRANCH   7  24
ATOM     24  C   UNL     1     -32.799  23.067  -1.361  0.00  0.00    +0.175 C 
BRANCH  24  25
ATOM     25  O   UNL     1     -31.815  23.279  -0.375  0.00  0.00    -0.379 OA
ATOM     26  H   UNL     1     -31.656  24.231  -0.274  0.00  0.00    +0.211 HD
ENDBRANCH  24  25
ENDBRANCH   7  24
TORSDOF 5
ENDMDL
MODEL 9
REMARK VINA RESULT:      -5.0      3.658      5.574
REMARK  Name = 56599473
REMARK  5 active torsions:
REMARK  status: ('A' for Active; 'I' for Inactive)
REMARK    1  A    between atoms: C_5  and  S_20
REMARK    2  A    between atoms: C_7  and  S_22
REMARK    3  A    between atoms: C_7  and  C_24
REMARK    4  A    between atoms: C_15  and  N_19
REMARK    5  A    between atoms: C_24  and  O_25
REMARK                            x       y       z     vdW  Elec       q    Type
REMARK                         _______ _______ _______ _____ _____    ______ ____
ROOT
ATOM      1  O   UNL     1     -38.102  24.375   4.089  0.00  0.00    -0.272 OA
ATOM      2  O   UNL     1     -34.076  25.241   0.552  0.00  0.00    -0.272 OA
ATOM      3  N   UNL     1     -35.225  23.876   2.029  0.00  0.00    -0.243 N 
ATOM      4  N   UNL     1     -37.128  25.736   2.465  0.00  0.00    -0.261 N 
ATOM      5  C   UNL     1     -35.927  23.753   3.317  0.00  0.00    +0.177 C 
ATOM      6  C   UNL     1     -36.276  22.245   3.452  0.00  0.00    +0.066 C 
ATOM      7  C   UNL     1     -35.871  26.231   1.836  0.00  0.00    +0.197 C 
ATOM      8  C   UNL     1     -34.772  22.601   1.634  0.00  0.00    +0.053 C 
ATOM      9  C   UNL     1     -35.328  21.628   2.467  0.00  0.00    -0.005 C 
ATOM     10  C   UNL     1     -37.170  24.623   3.321  0.00  0.00    +0.253 C 
ATOM     11  C   UNL     1     -34.966  25.070   1.387  0.00  0.00    +0.259 C 
ATOM     12  C   UNL     1     -33.939  22.245   0.586  0.00  0.00    +0.039 C 
ATOM     13  C   UNL     1     -35.055  20.282   2.287  0.00  0.00    -0.001 C 
ATOM     14  C   UNL     1     -38.378  26.442   2.178  0.00  0.00    +0.116 C 
ATOM     15  C   UNL     1     -33.647  20.890   0.403  0.00  0.00    +0.144 C 
ATOM     16  C   UNL     1     -34.198  19.915   1.249  0.00  0.00    +0.024 C 
ENDROOT
BRANCH  15  19
ATOM     17  O   UNL     1     -31.548  20.515  -0.475  0.00  0.00    -0.126 OA
ATOM     18  O   UNL     1     -33.296  20.127  -1.745  0.00  0.00    -0.126 OA
ATOM     19  N   UNL     1     -32.789  20.492  -0.657  0.00  0.00    +0.058 N 
ENDBRANCH  15  19
BRANCH   5  20
ATOM     20  S   UNL     1     -34.868  24.229   4.737  0.00  0.00    -0.113 S 
ATOM     21  C   UNL     1     -35.368  22.914   5.867  0.00  0.00    +0.071 C 
ENDBRANCH   5  20
BRANCH   7  22
ATOM     22  S   UNL     1     -34.906  27.285   2.988  0.00  0.00    -0.112 S 
ATOM     23  C   UNL     1     -35.250  28.876   2.208  0.00  0.00    +0.071 C 
ENDBRANCH   7  22
BRANCH   7  24
ATOM     24  C   UNL     1     -36.145  27.097   0.585  0.00  0.00    +0.175 C 
BRANCH  24  25
ATOM     25  O   UNL     1     -36.363  26.227  -0.502  0.00  0.00    -0.379 OA
ATOM     26  H   UNL     1     -36.774  25.408  -0.183  0.00  0.00    +0.211 HD
ENDBRANCH  24  25
ENDBRANCH   7  24
TORSDOF 5
ENDMDL
