MODEL 1
REMARK VINA RESULT:      -5.8      0.000      0.000
REMARK  Name = 5280888
REMARK  17 active torsions:
REMARK  status: ('A' for Active; 'I' for Inactive)
REMARK    1  A    between atoms: C_1  and  C_20
REMARK    2  A    between atoms: C_2  and  C_10
REMARK    3  A    between atoms: C_3  and  O_6
REMARK    4  A    between atoms: C_4  and  O_8
REMARK    5  A    between atoms: C_11  and  C_12
REMARK    6  A    between atoms: C_12  and  O_13
REMARK    7  A    between atoms: C_12  and  C_15
REMARK    8  A    between atoms: C_15  and  C_16
REMARK    9  A    between atoms: C_16  and  C_17
REMARK   10  A    between atoms: C_17  and  C_18
REMARK   11  A    between atoms: C_20  and  C_22
REMARK   12  A    between atoms: C_22  and  C_23
REMARK   13  A    between atoms: C_23  and  C_24
REMARK   14  A    between atoms: C_24  and  C_25
REMARK   15  A    between atoms: C_25  and  C_26
REMARK   16  A    between atoms: C_26  and  C_28
REMARK   17  A    between atoms: C_28  and  O_29
REMARK                            x       y       z     vdW  Elec       q    Type
REMARK                         _______ _______ _______ _____ _____    ______ ____
ROOT
ATOM      1  C   UNL     1     -37.571  25.158   2.615  0.00  0.00    +0.041 C 
ATOM      2  C   UNL     1     -38.169  23.822   2.141  0.00  0.00    +0.051 C 
ATOM      3  C   UNL     1     -38.759  26.117   2.480  0.00  0.00    +0.114 C 
ATOM      4  C   UNL     1     -39.598  23.836   2.717  0.00  0.00    +0.117 C 
ATOM      5  C   UNL     1     -39.935  25.304   3.021  0.00  0.00    +0.059 C 
ENDROOT
BRANCH   3   6
ATOM      6  O   UNL     1     -39.002  26.499   1.132  0.00  0.00    -0.384 OA
ATOM      7  H   UNL     1     -38.169  26.771   0.717  0.00  0.00    +0.210 HD
ENDBRANCH   3   6
BRANCH   4   8
ATOM      8  O   UNL     1     -40.517  23.323   1.760  0.00  0.00    -0.384 OA
ATOM      9  H   UNL     1     -41.158  22.745   2.205  0.00  0.00    +0.210 HD
ENDBRANCH   4   8
BRANCH   2  10
ATOM     10  C   UNL     1     -37.392  22.626   2.584  0.00  0.00    -0.026 C 
ATOM     11  C   UNL     1     -36.468  22.014   1.827  0.00  0.00    -0.002 C 
BRANCH  11  12
ATOM     12  C   UNL     1     -35.690  20.810   2.277  0.00  0.00    +0.132 C 
BRANCH  12  13
ATOM     13  O   UNL     1     -36.606  19.863   2.829  0.00  0.00    -0.380 OA
ATOM     14  H   UNL     1     -37.503  20.063   2.519  0.00  0.00    +0.211 HD
ENDBRANCH  12  13
BRANCH  12  15
ATOM     15  C   UNL     1     -34.947  20.116   1.128  0.00  0.00    +0.034 C 
BRANCH  15  16
ATOM     16  C   UNL     1     -33.767  19.261   1.600  0.00  0.00    +0.003 C 
BRANCH  16  17
ATOM     17  C   UNL     1     -32.529  19.388   0.706  0.00  0.00    +0.000 C 
BRANCH  17  18
ATOM     18  C   UNL     1     -31.538  18.236   0.870  0.00  0.00    +0.000 C 
ATOM     19  C   UNL     1     -30.182  18.582   0.274  0.00  0.00    +0.000 C 
ENDBRANCH  17  18
ENDBRANCH  16  17
ENDBRANCH  15  16
ENDBRANCH  12  15
ENDBRANCH  11  12
ENDBRANCH   2  10
BRANCH   1  20
ATOM     20  C   UNL     1     -36.346  25.590   1.818  0.00  0.00    +0.067 C 
BRANCH  20  22
ATOM     21  O   UNL     1     -35.354  27.568   2.791  0.00  0.00    -0.296 OA
ATOM     22  C   UNL     1     -35.341  26.343   2.669  0.00  0.00    +0.151 C 
BRANCH  22  23
ATOM     23  C   UNL     1     -34.321  25.502   3.409  0.00  0.00    +0.065 C 
BRANCH  23  24
ATOM     24  C   UNL     1     -34.531  25.610   4.916  0.00  0.00    +0.008 C 
BRANCH  24  25
ATOM     25  C   UNL     1     -35.297  24.424   5.515  0.00  0.00    +0.012 C 
BRANCH  25  26
ATOM     26  C   UNL     1     -34.728  23.047   5.172  0.00  0.00    +0.109 C 
BRANCH  26  28
ATOM     27  O   UNL     1     -36.218  22.043   6.816  0.00  0.00    -0.250 OA
ATOM     28  C   UNL     1     -35.419  21.916   5.899  0.00  0.00    +0.314 C 
BRANCH  28  29
ATOM     29  O   UNL     1     -35.067  20.707   5.388  0.00  0.00    -0.480 OA
ATOM     30  H   UNL     1     -35.186  20.532   4.475  0.00  0.00    +0.295 HD
ENDBRANCH  28  29
ENDBRANCH  26  28
ENDBRANCH  25  26
ENDBRANCH  24  25
ENDBRANCH  23  24
ENDBRANCH  22  23
ENDBRANCH  20  22
ENDBRANCH   1  20
TORSDOF 17
ENDMDL
MODEL 2
REMARK VINA RESULT:      -5.7      1.675      4.161
REMARK  Name = 5280888
REMARK  17 active torsions:
REMARK  status: ('A' for Active; 'I' for Inactive)
REMARK    1  A    between atoms: C_1  and  C_20
REMARK    2  A    between atoms: C_2  and  C_10
REMARK    3  A    between atoms: C_3  and  O_6
REMARK    4  A    between atoms: C_4  and  O_8
REMARK    5  A    between atoms: C_11  and  C_12
REMARK    6  A    between atoms: C_12  and  O_13
REMARK    7  A    between atoms: C_12  and  C_15
REMARK    8  A    between atoms: C_15  and  C_16
REMARK    9  A    between atoms: C_16  and  C_17
REMARK   10  A    between atoms: C_17  and  C_18
REMARK   11  A    between atoms: C_20  and  C_22
REMARK   12  A    between atoms: C_22  and  C_23
REMARK   13  A    between atoms: C_23  and  C_24
REMARK   14  A    between atoms: C_24  and  C_25
REMARK   15  A    between atoms: C_25  and  C_26
REMARK   16  A    between atoms: C_26  and  C_28
REMARK   17  A    between atoms: C_28  and  O_29
REMARK                            x       y       z     vdW  Elec       q    Type
REMARK                         _______ _______ _______ _____ _____    ______ ____
ROOT
ATOM      1  C   UNL     1     -36.305  25.179   3.559  0.00  0.00    +0.041 C 
ATOM      2  C   UNL     1     -36.248  23.822   4.282  0.00  0.00    +0.051 C 
ATOM      3  C   UNL     1     -35.677  26.127   4.586  0.00  0.00    +0.114 C 
ATOM      4  C   UNL     1     -34.892  23.854   5.013  0.00  0.00    +0.117 C 
ATOM      5  C   UNL     1     -34.486  25.333   5.121  0.00  0.00    +0.059 C 
ENDROOT
BRANCH   3   6
ATOM      6  O   UNL     1     -36.568  26.452   5.646  0.00  0.00    -0.384 OA
ATOM      7  H   UNL     1     -37.295  25.810   5.666  0.00  0.00    +0.210 HD
ENDBRANCH   3   6
BRANCH   4   8
ATOM      8  O   UNL     1     -35.023  23.299   6.315  0.00  0.00    -0.384 OA
ATOM      9  H   UNL     1     -34.734  22.372   6.303  0.00  0.00    +0.210 HD
ENDBRANCH   4   8
BRANCH   2  10
ATOM     10  C   UNL     1     -36.369  22.649   3.367  0.00  0.00    -0.026 C 
ATOM     11  C   UNL     1     -35.468  21.657   3.300  0.00  0.00    -0.002 C 
BRANCH  11  12
ATOM     12  C   UNL     1     -35.594  20.479   2.376  0.00  0.00    +0.132 C 
BRANCH  12  13
ATOM     13  O   UNL     1     -36.854  19.851   2.619  0.00  0.00    -0.380 OA
ATOM     14  H   UNL     1     -36.942  19.660   3.566  0.00  0.00    +0.211 HD
ENDBRANCH  12  13
BRANCH  12  15
ATOM     15  C   UNL     1     -35.556  20.875   0.894  0.00  0.00    +0.034 C 
BRANCH  15  16
ATOM     16  C   UNL     1     -34.139  21.129   0.372  0.00  0.00    +0.003 C 
BRANCH  16  17
ATOM     17  C   UNL     1     -33.429  19.856  -0.102  0.00  0.00    +0.000 C 
BRANCH  17  18
ATOM     18  C   UNL     1     -32.229  19.469   0.762  0.00  0.00    +0.000 C 
ATOM     19  C   UNL     1     -32.340  18.035   1.254  0.00  0.00    +0.000 C 
ENDBRANCH  17  18
ENDBRANCH  16  17
ENDBRANCH  15  16
ENDBRANCH  12  15
ENDBRANCH  11  12
ENDBRANCH   2  10
BRANCH   1  20
ATOM     20  C   UNL     1     -37.713  25.583   3.139  0.00  0.00    +0.067 C 
BRANCH  20  22
ATOM     21  O   UNL     1     -38.356  27.130   1.397  0.00  0.00    -0.296 OA
ATOM     22  C   UNL     1     -37.764  26.098   1.713  0.00  0.00    +0.151 C 
BRANCH  22  23
ATOM     23  C   UNL     1     -37.009  25.290   0.678  0.00  0.00    +0.065 C 
BRANCH  23  24
ATOM     24  C   UNL     1     -37.979  24.513  -0.207  0.00  0.00    +0.008 C 
BRANCH  24  25
ATOM     25  C   UNL     1     -38.226  23.077   0.269  0.00  0.00    +0.012 C 
BRANCH  25  26
ATOM     26  C   UNL     1     -39.451  22.894   1.165  0.00  0.00    +0.109 C 
BRANCH  26  28
ATOM     27  O   UNL     1     -40.419  21.069   2.455  0.00  0.00    -0.250 OA
ATOM     28  C   UNL     1     -39.717  21.451   1.529  0.00  0.00    +0.314 C 
BRANCH  28  29
ATOM     29  O   UNL     1     -39.097  20.598   0.672  0.00  0.00    -0.480 OA
ATOM     30  H   UNL     1     -39.517  20.351  -0.128  0.00  0.00    +0.295 HD
ENDBRANCH  28  29
ENDBRANCH  26  28
ENDBRANCH  25  26
ENDBRANCH  24  25
ENDBRANCH  23  24
ENDBRANCH  22  23
ENDBRANCH  20  22
ENDBRANCH   1  20
TORSDOF 17
ENDMDL
MODEL 3
REMARK VINA RESULT:      -5.6      2.373      6.226
REMARK  Name = 5280888
REMARK  17 active torsions:
REMARK  status: ('A' for Active; 'I' for Inactive)
REMARK    1  A    between atoms: C_1  and  C_20
REMARK    2  A    between atoms: C_2  and  C_10
REMARK    3  A    between atoms: C_3  and  O_6
REMARK    4  A    between atoms: C_4  and  O_8
REMARK    5  A    between atoms: C_11  and  C_12
REMARK    6  A    between atoms: C_12  and  O_13
REMARK    7  A    between atoms: C_12  and  C_15
REMARK    8  A    between atoms: C_15  and  C_16
REMARK    9  A    between atoms: C_16  and  C_17
REMARK   10  A    between atoms: C_17  and  C_18
REMARK   11  A    between atoms: C_20  and  C_22
REMARK   12  A    between atoms: C_22  and  C_23
REMARK   13  A    between atoms: C_23  and  C_24
REMARK   14  A    between atoms: C_24  and  C_25
REMARK   15  A    between atoms: C_25  and  C_26
REMARK   16  A    between atoms: C_26  and  C_28
REMARK   17  A    between atoms: C_28  and  O_29
REMARK                            x       y       z     vdW  Elec       q    Type
REMARK                         _______ _______ _______ _____ _____    ______ ____
ROOT
ATOM      1  C   UNL     1     -36.698  21.623   1.326  0.00  0.00    +0.041 C 
ATOM      2  C   UNL     1     -37.761  21.842   2.416  0.00  0.00    +0.051 C 
ATOM      3  C   UNL     1     -37.306  20.489   0.495  0.00  0.00    +0.114 C 
ATOM      4  C   UNL     1     -39.095  21.668   1.665  0.00  0.00    +0.117 C 
ATOM      5  C   UNL     1     -38.779  20.879   0.384  0.00  0.00    +0.059 C 
ENDROOT
BRANCH   3   6
ATOM      6  O   UNL     1     -37.178  19.221   1.125  0.00  0.00    -0.384 OA
ATOM      7  H   UNL     1     -38.058  18.869   1.327  0.00  0.00    +0.210 HD
ENDBRANCH   3   6
BRANCH   4   8
ATOM      8  O   UNL     1     -40.015  20.933   2.463  0.00  0.00    -0.384 OA
ATOM      9  H   UNL     1     -40.921  21.116   2.165  0.00  0.00    +0.210 HD
ENDBRANCH   4   8
BRANCH   2  10
ATOM     10  C   UNL     1     -37.662  23.169   3.093  0.00  0.00    -0.026 C 
ATOM     11  C   UNL     1     -37.236  24.287   2.486  0.00  0.00    -0.002 C 
BRANCH  11  12
ATOM     12  C   UNL     1     -37.138  25.620   3.172  0.00  0.00    +0.132 C 
BRANCH  12  13
ATOM     13  O   UNL     1     -38.462  26.088   3.437  0.00  0.00    -0.380 OA
ATOM     14  H   UNL     1     -38.525  27.027   3.201  0.00  0.00    +0.211 HD
ENDBRANCH  12  13
BRANCH  12  15
ATOM     15  C   UNL     1     -36.398  25.548   4.514  0.00  0.00    +0.034 C 
BRANCH  15  16
ATOM     16  C   UNL     1     -34.888  25.344   4.362  0.00  0.00    +0.003 C 
BRANCH  16  17
ATOM     17  C   UNL     1     -34.409  23.969   4.840  0.00  0.00    +0.000 C 
BRANCH  17  18
ATOM     18  C   UNL     1     -35.382  23.285   5.802  0.00  0.00    +0.000 C 
ATOM     19  C   UNL     1     -35.138  21.785   5.864  0.00  0.00    +0.000 C 
ENDBRANCH  17  18
ENDBRANCH  16  17
ENDBRANCH  15  16
ENDBRANCH  12  15
ENDBRANCH  11  12
ENDBRANCH   2  10
BRANCH   1  20
ATOM     20  C   UNL     1     -35.317  21.298   1.883  0.00  0.00    +0.067 C 
BRANCH  20  22
ATOM     21  O   UNL     1     -34.094  22.568   0.230  0.00  0.00    -0.296 OA
ATOM     22  C   UNL     1     -34.216  21.519   0.863  0.00  0.00    +0.151 C 
BRANCH  22  23
ATOM     23  C   UNL     1     -33.230  20.384   0.679  0.00  0.00    +0.065 C 
BRANCH  23  24
ATOM     24  C   UNL     1     -33.685  19.149   1.448  0.00  0.00    +0.008 C 
BRANCH  24  25
ATOM     25  C   UNL     1     -33.470  17.838   0.684  0.00  0.00    +0.012 C 
BRANCH  25  26
ATOM     26  C   UNL     1     -34.470  17.574  -0.442  0.00  0.00    +0.109 C 
BRANCH  26  28
ATOM     27  O   UNL     1     -34.866  15.173  -0.342  0.00  0.00    -0.250 OA
ATOM     28  C   UNL     1     -35.285  16.317  -0.238  0.00  0.00    +0.314 C 
BRANCH  28  29
ATOM     29  O   UNL     1     -36.565  16.606   0.114  0.00  0.00    -0.480 OA
ATOM     30  H   UNL     1     -37.227  15.944   0.058  0.00  0.00    +0.295 HD
ENDBRANCH  28  29
ENDBRANCH  26  28
ENDBRANCH  25  26
ENDBRANCH  24  25
ENDBRANCH  23  24
ENDBRANCH  22  23
ENDBRANCH  20  22
ENDBRANCH   1  20
TORSDOF 17
ENDMDL
MODEL 4
REMARK VINA RESULT:      -5.6      3.255      4.622
REMARK  Name = 5280888
REMARK  17 active torsions:
REMARK  status: ('A' for Active; 'I' for Inactive)
REMARK    1  A    between atoms: C_1  and  C_20
REMARK    2  A    between atoms: C_2  and  C_10
REMARK    3  A    between atoms: C_3  and  O_6
REMARK    4  A    between atoms: C_4  and  O_8
REMARK    5  A    between atoms: C_11  and  C_12
REMARK    6  A    between atoms: C_12  and  O_13
REMARK    7  A    between atoms: C_12  and  C_15
REMARK    8  A    between atoms: C_15  and  C_16
REMARK    9  A    between atoms: C_16  and  C_17
REMARK   10  A    between atoms: C_17  and  C_18
REMARK   11  A    between atoms: C_20  and  C_22
REMARK   12  A    between atoms: C_22  and  C_23
REMARK   13  A    between atoms: C_23  and  C_24
REMARK   14  A    between atoms: C_24  and  C_25
REMARK   15  A    between atoms: C_25  and  C_26
REMARK   16  A    between atoms: C_26  and  C_28
REMARK   17  A    between atoms: C_28  and  O_29
REMARK                            x       y       z     vdW  Elec       q    Type
REMARK                         _______ _______ _______ _____ _____    ______ ____
ROOT
ATOM      1  C   UNL     1     -34.221  25.361   3.524  0.00  0.00    +0.041 C 
ATOM      2  C   UNL     1     -35.514  24.563   3.283  0.00  0.00    +0.051 C 
ATOM      3  C   UNL     1     -34.684  26.458   4.488  0.00  0.00    +0.114 C 
ATOM      4  C   UNL     1     -36.198  24.549   4.663  0.00  0.00    +0.117 C 
ATOM      5  C   UNL     1     -35.591  25.712   5.465  0.00  0.00    +0.059 C 
ENDROOT
BRANCH   3   6
ATOM      6  O   UNL     1     -35.410  27.490   3.832  0.00  0.00    -0.384 OA
ATOM      7  H   UNL     1     -35.002  27.678   2.972  0.00  0.00    +0.210 HD
ENDBRANCH   3   6
BRANCH   4   8
ATOM      8  O   UNL     1     -37.599  24.748   4.519  0.00  0.00    -0.384 OA
ATOM      9  H   UNL     1     -37.780  25.692   4.385  0.00  0.00    +0.210 HD
ENDBRANCH   4   8
BRANCH   2  10
ATOM     10  C   UNL     1     -35.280  23.187   2.753  0.00  0.00    -0.026 C 
ATOM     11  C   UNL     1     -35.681  22.069   3.378  0.00  0.00    -0.002 C 
BRANCH  11  12
ATOM     12  C   UNL     1     -35.443  20.686   2.841  0.00  0.00    +0.132 C 
BRANCH  12  13
ATOM     13  O   UNL     1     -36.695  19.999   2.798  0.00  0.00    -0.380 OA
ATOM     14  H   UNL     1     -36.539  19.042   2.815  0.00  0.00    +0.211 HD
ENDBRANCH  12  13
BRANCH  12  15
ATOM     15  C   UNL     1     -34.870  20.687   1.418  0.00  0.00    +0.034 C 
BRANCH  15  16
ATOM     16  C   UNL     1     -33.744  19.669   1.219  0.00  0.00    +0.003 C 
BRANCH  16  17
ATOM     17  C   UNL     1     -32.638  20.162   0.280  0.00  0.00    +0.000 C 
BRANCH  17  18
ATOM     18  C   UNL     1     -31.364  19.320   0.342  0.00  0.00    +0.000 C 
ATOM     19  C   UNL     1     -31.608  17.998   1.054  0.00  0.00    +0.000 C 
ENDBRANCH  17  18
ENDBRANCH  16  17
ENDBRANCH  15  16
ENDBRANCH  12  15
ENDBRANCH  11  12
ENDBRANCH   2  10
BRANCH   1  20
ATOM     20  C   UNL     1     -33.594  25.900   2.244  0.00  0.00    +0.067 C 
BRANCH  20  22
ATOM     21  O   UNL     1     -31.220  25.883   2.699  0.00  0.00    -0.296 OA
ATOM     22  C   UNL     1     -32.240  26.539   2.489  0.00  0.00    +0.151 C 
BRANCH  22  23
ATOM     23  C   UNL     1     -32.188  28.052   2.426  0.00  0.00    +0.065 C 
BRANCH  23  24
ATOM     24  C   UNL     1     -31.224  28.598   3.473  0.00  0.00    +0.008 C 
BRANCH  24  25
ATOM     25  C   UNL     1     -31.848  28.736   4.867  0.00  0.00    +0.012 C 
BRANCH  25  26
ATOM     26  C   UNL     1     -31.110  29.680   5.816  0.00  0.00    +0.109 C 
BRANCH  26  28
ATOM     27  O   UNL     1     -29.132  29.550   7.232  0.00  0.00    -0.250 OA
ATOM     28  C   UNL     1     -30.046  28.991   6.640  0.00  0.00    +0.314 C 
BRANCH  28  29
ATOM     29  O   UNL     1     -30.237  27.647   6.678  0.00  0.00    -0.480 OA
ATOM     30  H   UNL     1     -31.104  27.299   6.760  0.00  0.00    +0.295 HD
ENDBRANCH  28  29
ENDBRANCH  26  28
ENDBRANCH  25  26
ENDBRANCH  24  25
ENDBRANCH  23  24
ENDBRANCH  22  23
ENDBRANCH  20  22
ENDBRANCH   1  20
TORSDOF 17
ENDMDL
MODEL 5
REMARK VINA RESULT:      -5.5      2.061      4.616
REMARK  Name = 5280888
REMARK  17 active torsions:
REMARK  status: ('A' for Active; 'I' for Inactive)
REMARK    1  A    between atoms: C_1  and  C_20
REMARK    2  A    between atoms: C_2  and  C_10
REMARK    3  A    between atoms: C_3  and  O_6
REMARK    4  A    between atoms: C_4  and  O_8
REMARK    5  A    between atoms: C_11  and  C_12
REMARK    6  A    between atoms: C_12  and  O_13
REMARK    7  A    between atoms: C_12  and  C_15
REMARK    8  A    between atoms: C_15  and  C_16
REMARK    9  A    between atoms: C_16  and  C_17
REMARK   10  A    between atoms: C_17  and  C_18
REMARK   11  A    between atoms: C_20  and  C_22
REMARK   12  A    between atoms: C_22  and  C_23
REMARK   13  A    between atoms: C_23  and  C_24
REMARK   14  A    between atoms: C_24  and  C_25
REMARK   15  A    between atoms: C_25  and  C_26
REMARK   16  A    between atoms: C_26  and  C_28
REMARK   17  A    between atoms: C_28  and  O_29
REMARK                            x       y       z     vdW  Elec       q    Type
REMARK                         _______ _______ _______ _____ _____    ______ ____
ROOT
ATOM      1  C   UNL     1     -36.222  24.999   3.534  0.00  0.00    +0.041 C 
ATOM      2  C   UNL     1     -36.315  23.634   4.238  0.00  0.00    +0.051 C 
ATOM      3  C   UNL     1     -35.667  25.904   4.638  0.00  0.00    +0.114 C 
ATOM      4  C   UNL     1     -35.051  23.590   5.118  0.00  0.00    +0.117 C 
ATOM      5  C   UNL     1     -34.585  25.044   5.292  0.00  0.00    +0.059 C 
ENDROOT
BRANCH   3   6
ATOM      6  O   UNL     1     -36.654  26.265   5.595  0.00  0.00    -0.384 OA
ATOM      7  H   UNL     1     -37.404  25.653   5.535  0.00  0.00    +0.210 HD
ENDBRANCH   3   6
BRANCH   4   8
ATOM      8  O   UNL     1     -35.356  23.031   6.389  0.00  0.00    -0.384 OA
ATOM      9  H   UNL     1     -34.645  22.428   6.658  0.00  0.00    +0.210 HD
ENDBRANCH   4   8
BRANCH   2  10
ATOM     10  C   UNL     1     -36.392  22.477   3.298  0.00  0.00    -0.026 C 
ATOM     11  C   UNL     1     -35.476  21.498   3.243  0.00  0.00    -0.002 C 
BRANCH  11  12
ATOM     12  C   UNL     1     -35.557  20.336   2.295  0.00  0.00    +0.132 C 
BRANCH  12  13
ATOM     13  O   UNL     1     -36.839  19.722   2.445  0.00  0.00    -0.380 OA
ATOM     14  H   UNL     1     -36.911  19.339   3.333  0.00  0.00    +0.211 HD
ENDBRANCH  12  13
BRANCH  12  15
ATOM     15  C   UNL     1     -35.416  20.753   0.825  0.00  0.00    +0.034 C 
BRANCH  15  16
ATOM     16  C   UNL     1     -34.092  21.461   0.522  0.00  0.00    +0.003 C 
BRANCH  16  17
ATOM     17  C   UNL     1     -34.274  22.868  -0.058  0.00  0.00    +0.000 C 
BRANCH  17  18
ATOM     18  C   UNL     1     -33.944  23.984   0.933  0.00  0.00    +0.000 C 
ATOM     19  C   UNL     1     -33.850  25.333   0.237  0.00  0.00    +0.000 C 
ENDBRANCH  17  18
ENDBRANCH  16  17
ENDBRANCH  15  16
ENDBRANCH  12  15
ENDBRANCH  11  12
ENDBRANCH   2  10
BRANCH   1  20
ATOM     20  C   UNL     1     -37.551  25.479   2.964  0.00  0.00    +0.067 C 
BRANCH  20  22
ATOM     21  O   UNL     1     -36.711  27.169   1.454  0.00  0.00    -0.296 OA
ATOM     22  C   UNL     1     -37.390  26.155   1.615  0.00  0.00    +0.151 C 
BRANCH  22  23
ATOM     23  C   UNL     1     -38.086  25.494   0.443  0.00  0.00    +0.065 C 
BRANCH  23  24
ATOM     24  C   UNL     1     -37.549  24.084   0.228  0.00  0.00    +0.008 C 
BRANCH  24  25
ATOM     25  C   UNL     1     -38.637  23.060  -0.117  0.00  0.00    +0.012 C 
BRANCH  25  26
ATOM     26  C   UNL     1     -39.701  22.858   0.962  0.00  0.00    +0.109 C 
BRANCH  26  28
ATOM     27  O   UNL     1     -40.435  21.062   2.433  0.00  0.00    -0.250 OA
ATOM     28  C   UNL     1     -39.768  21.439   1.480  0.00  0.00    +0.314 C 
BRANCH  28  29
ATOM     29  O   UNL     1     -39.009  20.599   0.730  0.00  0.00    -0.480 OA
ATOM     30  H   UNL     1     -39.063  19.673   0.865  0.00  0.00    +0.295 HD
ENDBRANCH  28  29
ENDBRANCH  26  28
ENDBRANCH  25  26
ENDBRANCH  24  25
ENDBRANCH  23  24
ENDBRANCH  22  23
ENDBRANCH  20  22
ENDBRANCH   1  20
TORSDOF 17
ENDMDL
MODEL 6
REMARK VINA RESULT:      -5.5      1.683      5.260
REMARK  Name = 5280888
REMARK  17 active torsions:
REMARK  status: ('A' for Active; 'I' for Inactive)
REMARK    1  A    between atoms: C_1  and  C_20
REMARK    2  A    between atoms: C_2  and  C_10
REMARK    3  A    between atoms: C_3  and  O_6
REMARK    4  A    between atoms: C_4  and  O_8
REMARK    5  A    between atoms: C_11  and  C_12
REMARK    6  A    between atoms: C_12  and  O_13
REMARK    7  A    between atoms: C_12  and  C_15
REMARK    8  A    between atoms: C_15  and  C_16
REMARK    9  A    between atoms: C_16  and  C_17
REMARK   10  A    between atoms: C_17  and  C_18
REMARK   11  A    between atoms: C_20  and  C_22
REMARK   12  A    between atoms: C_22  and  C_23
REMARK   13  A    between atoms: C_23  and  C_24
REMARK   14  A    between atoms: C_24  and  C_25
REMARK   15  A    between atoms: C_25  and  C_26
REMARK   16  A    between atoms: C_26  and  C_28
REMARK   17  A    between atoms: C_28  and  O_29
REMARK                            x       y       z     vdW  Elec       q    Type
REMARK                         _______ _______ _______ _____ _____    ______ ____
ROOT
ATOM      1  C   UNL     1     -35.290  25.919   3.498  0.00  0.00    +0.041 C 
ATOM      2  C   UNL     1     -35.115  25.810   5.023  0.00  0.00    +0.051 C 
ATOM      3  C   UNL     1     -34.475  27.172   3.161  0.00  0.00    +0.114 C 
ATOM      4  C   UNL     1     -33.648  26.221   5.253  0.00  0.00    +0.117 C 
ATOM      5  C   UNL     1     -33.215  27.015   4.010  0.00  0.00    +0.059 C 
ENDROOT
BRANCH   3   6
ATOM      6  O   UNL     1     -35.154  28.373   3.505  0.00  0.00    -0.384 OA
ATOM      7  H   UNL     1     -35.629  28.711   2.729  0.00  0.00    +0.210 HD
ENDBRANCH   3   6
BRANCH   4   8
ATOM      8  O   UNL     1     -33.545  27.046   6.407  0.00  0.00    -0.384 OA
ATOM      9  H   UNL     1     -32.654  27.428   6.453  0.00  0.00    +0.210 HD
ENDBRANCH   4   8
BRANCH   2  10
ATOM     10  C   UNL     1     -35.414  24.452   5.565  0.00  0.00    -0.026 C 
ATOM     11  C   UNL     1     -34.702  23.354   5.265  0.00  0.00    -0.002 C 
BRANCH  11  12
ATOM     12  C   UNL     1     -35.007  21.989   5.813  0.00  0.00    +0.132 C 
BRANCH  12  13
ATOM     13  O   UNL     1     -36.251  22.054   6.513  0.00  0.00    -0.380 OA
ATOM     14  H   UNL     1     -36.095  22.355   7.421  0.00  0.00    +0.211 HD
ENDBRANCH  12  13
BRANCH  12  15
ATOM     15  C   UNL     1     -35.150  20.924   4.718  0.00  0.00    +0.034 C 
BRANCH  15  16
ATOM     16  C   UNL     1     -35.332  21.517   3.318  0.00  0.00    +0.003 C 
BRANCH  16  17
ATOM     17  C   UNL     1     -35.525  20.456   2.229  0.00  0.00    +0.000 C 
BRANCH  17  18
ATOM     18  C   UNL     1     -34.355  20.368   1.249  0.00  0.00    +0.000 C 
ATOM     19  C   UNL     1     -33.554  19.091   1.455  0.00  0.00    +0.000 C 
ENDBRANCH  17  18
ENDBRANCH  16  17
ENDBRANCH  15  16
ENDBRANCH  12  15
ENDBRANCH  11  12
ENDBRANCH   2  10
BRANCH   1  20
ATOM     20  C   UNL     1     -36.747  26.004   3.060  0.00  0.00    +0.067 C 
BRANCH  20  22
ATOM     21  O   UNL     1     -36.845  24.924   0.900  0.00  0.00    -0.296 OA
ATOM     22  C   UNL     1     -37.126  24.894   2.098  0.00  0.00    +0.151 C 
BRANCH  22  23
ATOM     23  C   UNL     1     -37.848  23.703   2.694  0.00  0.00    +0.065 C 
BRANCH  23  24
ATOM     24  C   UNL     1     -38.983  23.253   1.780  0.00  0.00    +0.008 C 
BRANCH  24  25
ATOM     25  C   UNL     1     -40.322  23.935   2.086  0.00  0.00    +0.012 C 
BRANCH  25  26
ATOM     26  C   UNL     1     -40.324  24.833   3.323  0.00  0.00    +0.109 C 
BRANCH  26  28
ATOM     27  O   UNL     1     -40.145  26.830   1.941  0.00  0.00    -0.250 OA
ATOM     28  C   UNL     1     -40.463  26.302   2.998  0.00  0.00    +0.314 C 
BRANCH  28  29
ATOM     29  O   UNL     1     -41.025  26.989   4.026  0.00  0.00    -0.480 OA
ATOM     30  H   UNL     1     -41.755  27.556   3.867  0.00  0.00    +0.295 HD
ENDBRANCH  28  29
ENDBRANCH  26  28
ENDBRANCH  25  26
ENDBRANCH  24  25
ENDBRANCH  23  24
ENDBRANCH  22  23
ENDBRANCH  20  22
ENDBRANCH   1  20
TORSDOF 17
ENDMDL
MODEL 7
REMARK VINA RESULT:      -5.4      2.834      7.107
REMARK  Name = 5280888
REMARK  17 active torsions:
REMARK  status: ('A' for Active; 'I' for Inactive)
REMARK    1  A    between atoms: C_1  and  C_20
REMARK    2  A    between atoms: C_2  and  C_10
REMARK    3  A    between atoms: C_3  and  O_6
REMARK    4  A    between atoms: C_4  and  O_8
REMARK    5  A    between atoms: C_11  and  C_12
REMARK    6  A    between atoms: C_12  and  O_13
REMARK    7  A    between atoms: C_12  and  C_15
REMARK    8  A    between atoms: C_15  and  C_16
REMARK    9  A    between atoms: C_16  and  C_17
REMARK   10  A    between atoms: C_17  and  C_18
REMARK   11  A    between atoms: C_20  and  C_22
REMARK   12  A    between atoms: C_22  and  C_23
REMARK   13  A    between atoms: C_23  and  C_24
REMARK   14  A    between atoms: C_24  and  C_25
REMARK   15  A    between atoms: C_25  and  C_26
REMARK   16  A    between atoms: C_26  and  C_28
REMARK   17  A    between atoms: C_28  and  O_29
REMARK                            x       y       z     vdW  Elec       q    Type
REMARK                         _______ _______ _______ _____ _____    ______ ____
ROOT
ATOM      1  C   UNL     1     -36.677  21.923   2.105  0.00  0.00    +0.041 C 
ATOM      2  C   UNL     1     -38.129  22.175   2.546  0.00  0.00    +0.051 C 
ATOM      3  C   UNL     1     -36.785  20.588   1.361  0.00  0.00    +0.114 C 
ATOM      4  C   UNL     1     -38.965  21.687   1.348  0.00  0.00    +0.117 C 
ATOM      5  C   UNL     1     -38.063  20.742   0.538  0.00  0.00    +0.059 C 
ENDROOT
BRANCH   3   6
ATOM      6  O   UNL     1     -36.897  19.479   2.244  0.00  0.00    -0.384 OA
ATOM      7  H   UNL     1     -36.057  19.349   2.710  0.00  0.00    +0.210 HD
ENDBRANCH   3   6
BRANCH   4   8
ATOM      8  O   UNL     1     -40.111  20.980   1.804  0.00  0.00    -0.384 OA
ATOM      9  H   UNL     1     -40.786  20.971   1.107  0.00  0.00    +0.210 HD
ENDBRANCH   4   8
BRANCH   2  10
ATOM     10  C   UNL     1     -38.412  23.599   2.892  0.00  0.00    -0.026 C 
ATOM     11  C   UNL     1     -39.584  24.207   2.650  0.00  0.00    -0.002 C 
BRANCH  11  12
ATOM     12  C   UNL     1     -39.864  25.641   2.999  0.00  0.00    +0.132 C 
BRANCH  12  13
ATOM     13  O   UNL     1     -38.616  26.328   3.113  0.00  0.00    -0.380 OA
ATOM     14  H   UNL     1     -38.067  26.130   2.339  0.00  0.00    +0.211 HD
ENDBRANCH  12  13
BRANCH  12  15
ATOM     15  C   UNL     1     -40.692  26.366   1.929  0.00  0.00    +0.034 C 
BRANCH  15  16
ATOM     16  C   UNL     1     -42.173  26.495   2.296  0.00  0.00    +0.003 C 
BRANCH  16  17
ATOM     17  C   UNL     1     -42.409  26.776   3.784  0.00  0.00    +0.000 C 
BRANCH  17  18
ATOM     18  C   UNL     1     -43.880  26.991   4.138  0.00  0.00    +0.000 C 
ATOM     19  C   UNL     1     -44.794  26.196   3.218  0.00  0.00    +0.000 C 
ENDBRANCH  17  18
ENDBRANCH  16  17
ENDBRANCH  15  16
ENDBRANCH  12  15
ENDBRANCH  11  12
ENDBRANCH   2  10
BRANCH   1  20
ATOM     20  C   UNL     1     -35.687  21.896   3.263  0.00  0.00    +0.067 C 
BRANCH  20  22
ATOM     21  O   UNL     1     -34.623  23.969   2.619  0.00  0.00    -0.296 OA
ATOM     22  C   UNL     1     -35.063  23.255   3.520  0.00  0.00    +0.151 C 
BRANCH  22  23
ATOM     23  C   UNL     1     -35.037  23.723   4.961  0.00  0.00    +0.065 C 
BRANCH  23  24
ATOM     24  C   UNL     1     -36.065  24.827   5.183  0.00  0.00    +0.008 C 
BRANCH  24  25
ATOM     25  C   UNL     1     -35.465  26.117   5.755  0.00  0.00    +0.012 C 
BRANCH  25  26
ATOM     26  C   UNL     1     -33.939  26.195   5.711  0.00  0.00    +0.109 C 
BRANCH  26  28
ATOM     27  O   UNL     1     -33.509  28.165   4.345  0.00  0.00    -0.250 OA
ATOM     28  C   UNL     1     -33.413  26.957   4.516  0.00  0.00    +0.314 C 
BRANCH  28  29
ATOM     29  O   UNL     1     -32.775  26.135   3.643  0.00  0.00    -0.480 OA
ATOM     30  H   UNL     1     -31.844  26.188   3.544  0.00  0.00    +0.295 HD
ENDBRANCH  28  29
ENDBRANCH  26  28
ENDBRANCH  25  26
ENDBRANCH  24  25
ENDBRANCH  23  24
ENDBRANCH  22  23
ENDBRANCH  20  22
ENDBRANCH   1  20
TORSDOF 17
ENDMDL
MODEL 8
REMARK VINA RESULT:      -5.4      2.768      5.759
REMARK  Name = 5280888
REMARK  17 active torsions:
REMARK  status: ('A' for Active; 'I' for Inactive)
REMARK    1  A    between atoms: C_1  and  C_20
REMARK    2  A    between atoms: C_2  and  C_10
REMARK    3  A    between atoms: C_3  and  O_6
REMARK    4  A    between atoms: C_4  and  O_8
REMARK    5  A    between atoms: C_11  and  C_12
REMARK    6  A    between atoms: C_12  and  O_13
REMARK    7  A    between atoms: C_12  and  C_15
REMARK    8  A    between atoms: C_15  and  C_16
REMARK    9  A    between atoms: C_16  and  C_17
REMARK   10  A    between atoms: C_17  and  C_18
REMARK   11  A    between atoms: C_20  and  C_22
REMARK   12  A    between atoms: C_22  and  C_23
REMARK   13  A    between atoms: C_23  and  C_24
REMARK   14  A    between atoms: C_24  and  C_25
REMARK   15  A    between atoms: C_25  and  C_26
REMARK   16  A    between atoms: C_26  and  C_28
REMARK   17  A    between atoms: C_28  and  O_29
REMARK                            x       y       z     vdW  Elec       q    Type
REMARK                         _______ _______ _______ _____ _____    ______ ____
ROOT
ATOM      1  C   UNL     1     -36.607  21.899   2.107  0.00  0.00    +0.041 C 
ATOM      2  C   UNL     1     -38.074  22.191   2.466  0.00  0.00    +0.051 C 
ATOM      3  C   UNL     1     -36.700  20.528   1.428  0.00  0.00    +0.114 C 
ATOM      4  C   UNL     1     -38.861  21.653   1.255  0.00  0.00    +0.117 C 
ATOM      5  C   UNL     1     -37.936  20.655   0.539  0.00  0.00    +0.059 C 
ENDROOT
BRANCH   3   6
ATOM      6  O   UNL     1     -36.870  19.468   2.360  0.00  0.00    -0.384 OA
ATOM      7  H   UNL     1     -36.160  19.498   3.020  0.00  0.00    +0.210 HD
ENDBRANCH   3   6
BRANCH   4   8
ATOM      8  O   UNL     1     -40.037  20.984   1.693  0.00  0.00    -0.384 OA
ATOM      9  H   UNL     1     -40.121  20.137   1.226  0.00  0.00    +0.210 HD
ENDBRANCH   4   8
BRANCH   2  10
ATOM     10  C   UNL     1     -38.353  23.634   2.725  0.00  0.00    -0.026 C 
ATOM     11  C   UNL     1     -39.587  24.157   2.789  0.00  0.00    -0.002 C 
BRANCH  11  12
ATOM     12  C   UNL     1     -39.862  25.611   3.048  0.00  0.00    +0.132 C 
BRANCH  12  13
ATOM     13  O   UNL     1     -38.637  26.239   3.433  0.00  0.00    -0.380 OA
ATOM     14  H   UNL     1     -38.555  27.092   2.980  0.00  0.00    +0.211 HD
ENDBRANCH  12  13
BRANCH  12  15
ATOM     15  C   UNL     1     -40.388  26.350   1.811  0.00  0.00    +0.034 C 
BRANCH  15  16
ATOM     16  C   UNL     1     -40.501  25.454   0.574  0.00  0.00    +0.003 C 
BRANCH  16  17
ATOM     17  C   UNL     1     -39.457  25.772  -0.503  0.00  0.00    +0.000 C 
BRANCH  17  18
ATOM     18  C   UNL     1     -38.705  24.540  -1.005  0.00  0.00    +0.000 C 
ATOM     19  C   UNL     1     -37.234  24.594  -0.621  0.00  0.00    +0.000 C 
ENDBRANCH  17  18
ENDBRANCH  16  17
ENDBRANCH  15  16
ENDBRANCH  12  15
ENDBRANCH  11  12
ENDBRANCH   2  10
BRANCH   1  20
ATOM     20  C   UNL     1     -35.673  21.920   3.311  0.00  0.00    +0.067 C 
BRANCH  20  22
ATOM     21  O   UNL     1     -34.679  24.011   2.619  0.00  0.00    -0.296 OA
ATOM     22  C   UNL     1     -35.057  23.287   3.540  0.00  0.00    +0.151 C 
BRANCH  22  23
ATOM     23  C   UNL     1     -34.959  23.750   4.979  0.00  0.00    +0.065 C 
BRANCH  23  24
ATOM     24  C   UNL     1     -35.974  24.854   5.256  0.00  0.00    +0.008 C 
BRANCH  24  25
ATOM     25  C   UNL     1     -35.355  26.115   5.870  0.00  0.00    +0.012 C 
BRANCH  25  26
ATOM     26  C   UNL     1     -33.850  26.272   5.647  0.00  0.00    +0.109 C 
BRANCH  26  28
ATOM     27  O   UNL     1     -33.814  28.087   4.023  0.00  0.00    -0.250 OA
ATOM     28  C   UNL     1     -33.505  26.946   4.339  0.00  0.00    +0.314 C 
BRANCH  28  29
ATOM     29  O   UNL     1     -32.765  26.133   3.539  0.00  0.00    -0.480 OA
ATOM     30  H   UNL     1     -33.185  25.621   2.876  0.00  0.00    +0.295 HD
ENDBRANCH  28  29
ENDBRANCH  26  28
ENDBRANCH  25  26
ENDBRANCH  24  25
ENDBRANCH  23  24
ENDBRANCH  22  23
ENDBRANCH  20  22
ENDBRANCH   1  20
TORSDOF 17
ENDMDL
MODEL 9
REMARK VINA RESULT:      -5.3      2.736      4.957
REMARK  Name = 5280888
REMARK  17 active torsions:
REMARK  status: ('A' for Active; 'I' for Inactive)
REMARK    1  A    between atoms: C_1  and  C_20
REMARK    2  A    between atoms: C_2  and  C_10
REMARK    3  A    between atoms: C_3  and  O_6
REMARK    4  A    between atoms: C_4  and  O_8
REMARK    5  A    between atoms: C_11  and  C_12
REMARK    6  A    between atoms: C_12  and  O_13
REMARK    7  A    between atoms: C_12  and  C_15
REMARK    8  A    between atoms: C_15  and  C_16
REMARK    9  A    between atoms: C_16  and  C_17
REMARK   10  A    between atoms: C_17  and  C_18
REMARK   11  A    between atoms: C_20  and  C_22
REMARK   12  A    between atoms: C_22  and  C_23
REMARK   13  A    between atoms: C_23  and  C_24
REMARK   14  A    between atoms: C_24  and  C_25
REMARK   15  A    between atoms: C_25  and  C_26
REMARK   16  A    between atoms: C_26  and  C_28
REMARK   17  A    between atoms: C_28  and  O_29
REMARK                            x       y       z     vdW  Elec       q    Type
REMARK                         _______ _______ _______ _____ _____    ______ ____
ROOT
ATOM      1  C   UNL     1     -34.331  25.437   3.591  0.00  0.00    +0.041 C 
ATOM      2  C   UNL     1     -35.604  24.629   3.281  0.00  0.00    +0.051 C 
ATOM      3  C   UNL     1     -34.854  26.529   4.530  0.00  0.00    +0.114 C 
ATOM      4  C   UNL     1     -36.359  24.608   4.624  0.00  0.00    +0.117 C 
ATOM      5  C   UNL     1     -35.805  25.774   5.458  0.00  0.00    +0.059 C 
ENDROOT
BRANCH   3   6
ATOM      6  O   UNL     1     -35.553  27.556   3.838  0.00  0.00    -0.384 OA
ATOM      7  H   UNL     1     -35.117  27.729   2.989  0.00  0.00    +0.210 HD
ENDBRANCH   3   6
BRANCH   4   8
ATOM      8  O   UNL     1     -37.752  24.796   4.407  0.00  0.00    -0.384 OA
ATOM      9  H   UNL     1     -38.155  25.181   5.201  0.00  0.00    +0.210 HD
ENDBRANCH   4   8
BRANCH   2  10
ATOM     10  C   UNL     1     -35.331  23.256   2.764  0.00  0.00    -0.026 C 
ATOM     11  C   UNL     1     -35.675  22.132   3.411  0.00  0.00    -0.002 C 
BRANCH  11  12
ATOM     12  C   UNL     1     -35.397  20.752   2.887  0.00  0.00    +0.132 C 
BRANCH  12  13
ATOM     13  O   UNL     1     -36.626  20.022   2.871  0.00  0.00    -0.380 OA
ATOM     14  H   UNL     1     -36.682  19.466   3.664  0.00  0.00    +0.211 HD
ENDBRANCH  12  13
BRANCH  12  15
ATOM     15  C   UNL     1     -34.847  20.756   1.455  0.00  0.00    +0.034 C 
BRANCH  15  16
ATOM     16  C   UNL     1     -33.882  19.600   1.174  0.00  0.00    +0.003 C 
BRANCH  16  17
ATOM     17  C   UNL     1     -32.607  20.037   0.445  0.00  0.00    +0.000 C 
BRANCH  17  18
ATOM     18  C   UNL     1     -31.458  19.036   0.573  0.00  0.00    +0.000 C 
ATOM     19  C   UNL     1     -31.975  17.607   0.654  0.00  0.00    +0.000 C 
ENDBRANCH  17  18
ENDBRANCH  16  17
ENDBRANCH  15  16
ENDBRANCH  12  15
ENDBRANCH  11  12
ENDBRANCH   2  10
BRANCH   1  20
ATOM     20  C   UNL     1     -33.642  25.983   2.346  0.00  0.00    +0.067 C 
BRANCH  20  22
ATOM     21  O   UNL     1     -31.233  25.825   2.443  0.00  0.00    -0.296 OA
ATOM     22  C   UNL     1     -32.245  26.497   2.639  0.00  0.00    +0.151 C 
BRANCH  22  23
ATOM     23  C   UNL     1     -32.144  27.917   3.158  0.00  0.00    +0.065 C 
BRANCH  23  24
ATOM     24  C   UNL     1     -32.472  28.915   2.053  0.00  0.00    +0.008 C 
BRANCH  24  25
ATOM     25  C   UNL     1     -32.158  30.368   2.427  0.00  0.00    +0.012 C 
BRANCH  25  26
ATOM     26  C   UNL     1     -33.063  30.969   3.502  0.00  0.00    +0.109 C 
BRANCH  26  28
ATOM     27  O   UNL     1     -34.819  32.003   2.168  0.00  0.00    -0.250 OA
ATOM     28  C   UNL     1     -34.480  31.204   3.031  0.00  0.00    +0.314 C 
BRANCH  28  29
ATOM     29  O   UNL     1     -35.359  30.386   3.666  0.00  0.00    -0.480 OA
ATOM     30  H   UNL     1     -35.059  29.587   4.054  0.00  0.00    +0.295 HD
ENDBRANCH  28  29
ENDBRANCH  26  28
ENDBRANCH  25  26
ENDBRANCH  24  25
ENDBRANCH  23  24
ENDBRANCH  22  23
ENDBRANCH  20  22
ENDBRANCH   1  20
TORSDOF 17
ENDMDL
