MODEL 1
REMARK VINA RESULT:      -7.1      0.000      0.000
REMARK  Name = 5281748
REMARK  2 active torsions:
REMARK  status: ('A' for Active; 'I' for Inactive)
REMARK    1  A    between atoms: C_8  and  O_25
REMARK    2  A    between atoms: O_25  and  C_27
REMARK                            x       y       z     vdW  Elec       q    Type
REMARK                         _______ _______ _______ _____ _____    ______ ____
ROOT
ATOM      1  O   UNL     1     -34.594  26.277   3.900  0.00  0.00    -0.443 OA
ATOM      2  O   UNL     1     -36.831  26.279   1.533  0.00  0.00    -0.441 OA
ATOM      3  O   UNL     1     -30.866  28.428   2.184  0.00  0.00    -0.274 OA
ATOM      4  O   UNL     1     -38.917  26.378   2.502  0.00  0.00    -0.246 OA
ATOM      5  O   UNL     1     -34.073  26.314   6.148  0.00  0.00    -0.245 OA
ATOM      6  N   UNL     1     -33.088  28.298   1.729  0.00  0.00    -0.236 N 
ATOM      7  C   UNL     1     -36.529  23.848   3.024  0.00  0.00    +0.052 C 
ATOM      8  C   UNL     1     -37.800  24.225   2.197  0.00  0.00    +0.224 C 
ATOM      9  C   UNL     1     -34.075  27.602   3.724  0.00  0.00    +0.214 C 
ATOM     10  C   UNL     1     -34.273  27.971   2.304  0.00  0.00    +0.075 C 
ATOM     11  C   UNL     1     -36.634  24.373   4.483  0.00  0.00    +0.037 C 
ATOM     12  C   UNL     1     -32.527  27.673   3.882  0.00  0.00    +0.135 C 
ATOM     13  C   UNL     1     -35.270  28.066   1.363  0.00  0.00    +0.036 C 
ATOM     14  C   UNL     1     -31.994  28.173   2.552  0.00  0.00    +0.237 C 
ATOM     15  C   UNL     1     -36.277  22.332   3.035  0.00  0.00    +0.005 C 
ATOM     16  C   UNL     1     -37.799  23.650   0.777  0.00  0.00    +0.055 C 
ATOM     17  C   UNL     1     -37.948  25.745   2.104  0.00  0.00    +0.354 C 
ATOM     18  C   UNL     1     -35.319  24.499   5.211  0.00  0.00    +0.049 C 
ATOM     19  C   UNL     1     -36.702  27.711   1.529  0.00  0.00    +0.236 C 
ATOM     20  C   UNL     1     -33.270  28.667   0.432  0.00  0.00    +0.072 C 
ATOM     21  C   UNL     1     -34.623  28.529   0.171  0.00  0.00    +0.017 C 
ATOM     22  C   UNL     1     -34.582  25.787   5.169  0.00  0.00    +0.337 C 
ATOM     23  C   UNL     1     -34.831  23.561   6.036  0.00  0.00    -0.024 C 
ATOM     24  C   UNL     1     -35.437  22.211   6.211  0.00  0.00    +0.031 C 
ENDROOT
BRANCH   8  25
ATOM     25  O   UNL     1     -38.954  23.730   2.873  0.00  0.00    -0.445 OA
BRANCH  25  27
ATOM     26  O   UNL     1     -40.789  23.701   1.469  0.00  0.00    -0.250 OA
ATOM     27  C   UNL     1     -39.894  23.133   2.082  0.00  0.00    +0.318 C 
ATOM     28  C   UNL     1     -39.677  21.651   2.066  0.00  0.00    +0.121 C 
ENDBRANCH  25  27
ENDBRANCH   8  25
TORSDOF 2
ENDMDL
MODEL 2
REMARK VINA RESULT:      -6.6      3.331      7.354
REMARK  Name = 5281748
REMARK  2 active torsions:
REMARK  status: ('A' for Active; 'I' for Inactive)
REMARK    1  A    between atoms: C_8  and  O_25
REMARK    2  A    between atoms: O_25  and  C_27
REMARK                            x       y       z     vdW  Elec       q    Type
REMARK                         _______ _______ _______ _____ _____    ______ ____
ROOT
ATOM      1  O   UNL     1     -38.083  21.764   1.282  0.00  0.00    -0.443 OA
ATOM      2  O   UNL     1     -35.219  22.254   2.751  0.00  0.00    -0.441 OA
ATOM      3  O   UNL     1     -37.318  18.678  -2.089  0.00  0.00    -0.274 OA
ATOM      4  O   UNL     1     -35.609  22.723   4.971  0.00  0.00    -0.246 OA
ATOM      5  O   UNL     1     -40.387  21.671   1.390  0.00  0.00    -0.245 OA
ATOM      6  N   UNL     1     -36.307  19.355  -0.170  0.00  0.00    -0.236 N 
ATOM      7  C   UNL     1     -36.821  24.576   2.238  0.00  0.00    +0.052 C 
ATOM      8  C   UNL     1     -35.681  24.508   3.303  0.00  0.00    +0.224 C 
ATOM      9  C   UNL     1     -38.002  20.346   1.090  0.00  0.00    +0.214 C 
ATOM     10  C   UNL     1     -36.567  19.992   1.000  0.00  0.00    +0.075 C 
ATOM     11  C   UNL     1     -38.184  24.143   2.848  0.00  0.00    +0.037 C 
ATOM     12  C   UNL     1     -38.553  19.887  -0.293  0.00  0.00    +0.135 C 
ATOM     13  C   UNL     1     -35.396  20.123   1.708  0.00  0.00    +0.036 C 
ATOM     14  C   UNL     1     -37.390  19.224  -1.008  0.00  0.00    +0.237 C 
ATOM     15  C   UNL     1     -36.951  25.977   1.620  0.00  0.00    +0.005 C 
ATOM     16  C   UNL     1     -34.331  25.016   2.786  0.00  0.00    +0.055 C 
ATOM     17  C   UNL     1     -35.499  23.074   3.803  0.00  0.00    +0.354 C 
ATOM     18  C   UNL     1     -39.223  23.711   1.845  0.00  0.00    +0.049 C 
ATOM     19  C   UNL     1     -35.198  20.837   2.995  0.00  0.00    +0.236 C 
ATOM     20  C   UNL     1     -34.996  19.001  -0.244  0.00  0.00    +0.072 C 
ATOM     21  C   UNL     1     -34.397  19.471   0.913  0.00  0.00    +0.017 C 
ATOM     22  C   UNL     1     -39.328  22.277   1.475  0.00  0.00    +0.337 C 
ATOM     23  C   UNL     1     -40.179  24.520   1.365  0.00  0.00    -0.024 C 
ATOM     24  C   UNL     1     -40.239  25.985   1.631  0.00  0.00    +0.031 C 
ENDROOT
BRANCH   8  25
ATOM     25  O   UNL     1     -36.051  25.303   4.428  0.00  0.00    -0.445 OA
BRANCH  25  27
ATOM     26  O   UNL     1     -35.054  27.371   4.176  0.00  0.00    -0.250 OA
ATOM     27  C   UNL     1     -35.181  26.303   4.759  0.00  0.00    +0.318 C 
ATOM     28  C   UNL     1     -34.383  25.903   5.962  0.00  0.00    +0.121 C 
ENDBRANCH  25  27
ENDBRANCH   8  25
TORSDOF 2
ENDMDL
MODEL 3
REMARK VINA RESULT:      -6.5      3.188      5.145
REMARK  Name = 5281748
REMARK  2 active torsions:
REMARK  status: ('A' for Active; 'I' for Inactive)
REMARK    1  A    between atoms: C_8  and  O_25
REMARK    2  A    between atoms: O_25  and  C_27
REMARK                            x       y       z     vdW  Elec       q    Type
REMARK                         _______ _______ _______ _____ _____    ______ ____
ROOT
ATOM      1  O   UNL     1     -36.223  22.197   2.772  0.00  0.00    -0.443 OA
ATOM      2  O   UNL     1     -38.998  22.712   1.148  0.00  0.00    -0.441 OA
ATOM      3  O   UNL     1     -34.768  26.348   4.232  0.00  0.00    -0.274 OA
ATOM      4  O   UNL     1     -40.351  20.868   1.415  0.00  0.00    -0.246 OA
ATOM      5  O   UNL     1     -34.910  20.831   4.090  0.00  0.00    -0.245 OA
ATOM      6  N   UNL     1     -36.709  25.402   3.525  0.00  0.00    -0.236 N 
ATOM      7  C   UNL     1     -37.140  20.866  -0.021  0.00  0.00    +0.052 C 
ATOM      8  C   UNL     1     -38.665  20.913  -0.354  0.00  0.00    +0.224 C 
ATOM      9  C   UNL     1     -36.422  23.111   3.859  0.00  0.00    +0.214 C 
ATOM     10  C   UNL     1     -37.308  24.193   3.373  0.00  0.00    +0.075 C 
ATOM     11  C   UNL     1     -36.858  19.920   1.180  0.00  0.00    +0.037 C 
ATOM     12  C   UNL     1     -35.126  23.881   4.250  0.00  0.00    +0.135 C 
ATOM     13  C   UNL     1     -38.539  24.373   2.788  0.00  0.00    +0.036 C 
ATOM     14  C   UNL     1     -35.434  25.353   4.037  0.00  0.00    +0.237 C 
ATOM     15  C   UNL     1     -36.298  20.433  -1.232  0.00  0.00    +0.005 C 
ATOM     16  C   UNL     1     -38.995  21.755  -1.591  0.00  0.00    +0.055 C 
ATOM     17  C   UNL     1     -39.457  21.467   0.832  0.00  0.00    +0.354 C 
ATOM     18  C   UNL     1     -35.546  20.158   1.884  0.00  0.00    +0.049 C 
ATOM     19  C   UNL     1     -39.491  23.320   2.353  0.00  0.00    +0.236 C 
ATOM     20  C   UNL     1     -37.532  26.401   3.107  0.00  0.00    +0.072 C 
ATOM     21  C   UNL     1     -38.683  25.791   2.636  0.00  0.00    +0.017 C 
ATOM     22  C   UNL     1     -35.499  21.079   3.048  0.00  0.00    +0.337 C 
ATOM     23  C   UNL     1     -34.426  19.467   1.627  0.00  0.00    -0.024 C 
ATOM     24  C   UNL     1     -34.286  18.497   0.505  0.00  0.00    +0.031 C 
ENDROOT
BRANCH   8  25
ATOM     25  O   UNL     1     -39.129  19.585  -0.587  0.00  0.00    -0.445 OA
BRANCH  25  27
ATOM     26  O   UNL     1     -41.166  19.750  -1.664  0.00  0.00    -0.250 OA
ATOM     27  C   UNL     1     -39.984  19.432  -1.641  0.00  0.00    +0.318 C 
ATOM     28  C   UNL     1     -39.262  18.803  -2.793  0.00  0.00    +0.121 C 
ENDBRANCH  25  27
ENDBRANCH   8  25
TORSDOF 2
ENDMDL
MODEL 4
REMARK VINA RESULT:      -6.4      4.084      7.624
REMARK  Name = 5281748
REMARK  2 active torsions:
REMARK  status: ('A' for Active; 'I' for Inactive)
REMARK    1  A    between atoms: C_8  and  O_25
REMARK    2  A    between atoms: O_25  and  C_27
REMARK                            x       y       z     vdW  Elec       q    Type
REMARK                         _______ _______ _______ _____ _____    ______ ____
ROOT
ATOM      1  O   UNL     1     -37.637  20.795   0.185  0.00  0.00    -0.443 OA
ATOM      2  O   UNL     1     -35.003  21.340   2.020  0.00  0.00    -0.441 OA
ATOM      3  O   UNL     1     -36.101  19.105  -3.847  0.00  0.00    -0.274 OA
ATOM      4  O   UNL     1     -35.573  21.018   4.228  0.00  0.00    -0.246 OA
ATOM      5  O   UNL     1     -39.871  20.239   0.023  0.00  0.00    -0.245 OA
ATOM      6  N   UNL     1     -35.334  19.334  -1.721  0.00  0.00    -0.236 N 
ATOM      7  C   UNL     1     -37.039  23.360   2.050  0.00  0.00    +0.052 C 
ATOM      8  C   UNL     1     -35.953  23.184   3.160  0.00  0.00    +0.224 C 
ATOM      9  C   UNL     1     -37.250  19.548  -0.406  0.00  0.00    +0.214 C 
ATOM     10  C   UNL     1     -35.770  19.518  -0.448  0.00  0.00    +0.075 C 
ATOM     11  C   UNL     1     -38.302  22.510   2.363  0.00  0.00    +0.037 C 
ATOM     12  C   UNL     1     -37.636  19.444  -1.911  0.00  0.00    +0.135 C 
ATOM     13  C   UNL     1     -34.683  19.643   0.384  0.00  0.00    +0.036 C 
ATOM     14  C   UNL     1     -36.330  19.266  -2.666  0.00  0.00    +0.237 C 
ATOM     15  C   UNL     1     -37.437  24.832   1.861  0.00  0.00    +0.005 C 
ATOM     16  C   UNL     1     -34.722  24.072   2.957  0.00  0.00    +0.055 C 
ATOM     17  C   UNL     1     -35.492  21.727   3.232  0.00  0.00    +0.354 C 
ATOM     18  C   UNL     1     -39.185  22.220   1.175  0.00  0.00    +0.049 C 
ATOM     19  C   UNL     1     -34.692  19.949   1.837  0.00  0.00    +0.236 C 
ATOM     20  C   UNL     1     -33.976  19.276  -1.759  0.00  0.00    +0.072 C 
ATOM     21  C   UNL     1     -33.538  19.470  -0.460  0.00  0.00    +0.017 C 
ATOM     22  C   UNL     1     -38.969  20.977   0.392  0.00  0.00    +0.337 C 
ATOM     23  C   UNL     1     -40.271  22.941   0.860  0.00  0.00    -0.024 C 
ATOM     24  C   UNL     1     -40.650  24.214   1.536  0.00  0.00    +0.031 C 
ENDROOT
BRANCH   8  25
ATOM     25  O   UNL     1     -36.528  23.507   4.424  0.00  0.00    -0.445 OA
BRANCH  25  27
ATOM     26  O   UNL     1     -34.781  23.757   5.914  0.00  0.00    -0.250 OA
ATOM     27  C   UNL     1     -35.725  24.207   5.279  0.00  0.00    +0.318 C 
ATOM     28  C   UNL     1     -36.169  25.637   5.337  0.00  0.00    +0.121 C 
ENDBRANCH  25  27
ENDBRANCH   8  25
TORSDOF 2
ENDMDL
MODEL 5
REMARK VINA RESULT:      -6.2      2.496      6.361
REMARK  Name = 5281748
REMARK  2 active torsions:
REMARK  status: ('A' for Active; 'I' for Inactive)
REMARK    1  A    between atoms: C_8  and  O_25
REMARK    2  A    between atoms: O_25  and  C_27
REMARK                            x       y       z     vdW  Elec       q    Type
REMARK                         _______ _______ _______ _____ _____    ______ ____
ROOT
ATOM      1  O   UNL     1     -36.902  22.528   2.081  0.00  0.00    -0.443 OA
ATOM      2  O   UNL     1     -36.027  25.514   1.121  0.00  0.00    -0.441 OA
ATOM      3  O   UNL     1     -41.060  21.712   0.204  0.00  0.00    -0.274 OA
ATOM      4  O   UNL     1     -33.733  25.575   0.932  0.00  0.00    -0.246 OA
ATOM      5  O   UNL     1     -36.317  20.382   2.696  0.00  0.00    -0.245 OA
ATOM      6  N   UNL     1     -39.303  23.109  -0.148  0.00  0.00    -0.236 N 
ATOM      7  C   UNL     1     -35.532  24.842   3.864  0.00  0.00    +0.052 C 
ATOM      8  C   UNL     1     -34.803  25.987   3.091  0.00  0.00    +0.224 C 
ATOM      9  C   UNL     1     -37.481  22.055   0.858  0.00  0.00    +0.214 C 
ATOM     10  C   UNL     1     -37.977  23.236   0.116  0.00  0.00    +0.075 C 
ATOM     11  C   UNL     1     -34.774  23.493   3.713  0.00  0.00    +0.037 C 
ATOM     12  C   UNL     1     -38.778  21.223   1.081  0.00  0.00    +0.135 C 
ATOM     13  C   UNL     1     -37.537  24.443  -0.373  0.00  0.00    +0.036 C 
ATOM     14  C   UNL     1     -39.884  21.969   0.356  0.00  0.00    +0.237 C 
ATOM     15  C   UNL     1     -35.707  25.174   5.355  0.00  0.00    +0.005 C 
ATOM     16  C   UNL     1     -35.450  27.362   3.282  0.00  0.00    +0.055 C 
ATOM     17  C   UNL     1     -34.759  25.678   1.593  0.00  0.00    +0.354 C 
ATOM     18  C   UNL     1     -35.601  22.263   3.990  0.00  0.00    +0.049 C 
ATOM     19  C   UNL     1     -36.183  25.034  -0.225  0.00  0.00    +0.236 C 
ATOM     20  C   UNL     1     -39.756  24.178  -0.856  0.00  0.00    +0.072 C 
ATOM     21  C   UNL     1     -38.678  25.033  -1.010  0.00  0.00    +0.017 C 
ATOM     22  C   UNL     1     -36.308  21.592   2.870  0.00  0.00    +0.337 C 
ATOM     23  C   UNL     1     -35.622  21.629   5.171  0.00  0.00    -0.024 C 
ATOM     24  C   UNL     1     -34.967  22.148   6.405  0.00  0.00    +0.031 C 
ENDROOT
BRANCH   8  25
ATOM     25  O   UNL     1     -33.454  26.066   3.545  0.00  0.00    -0.445 OA
BRANCH  25  27
ATOM     26  O   UNL     1     -33.304  27.673   5.197  0.00  0.00    -0.250 OA
ATOM     27  C   UNL     1     -33.073  27.270   4.065  0.00  0.00    +0.318 C 
ATOM     28  C   UNL     1     -32.317  28.052   3.034  0.00  0.00    +0.121 C 
ENDBRANCH  25  27
ENDBRANCH   8  25
TORSDOF 2
ENDMDL
MODEL 6
REMARK VINA RESULT:      -6.2      2.292      7.119
REMARK  Name = 5281748
REMARK  2 active torsions:
REMARK  status: ('A' for Active; 'I' for Inactive)
REMARK    1  A    between atoms: C_8  and  O_25
REMARK    2  A    between atoms: O_25  and  C_27
REMARK                            x       y       z     vdW  Elec       q    Type
REMARK                         _______ _______ _______ _____ _____    ______ ____
ROOT
ATOM      1  O   UNL     1     -37.428  24.469   1.958  0.00  0.00    -0.443 OA
ATOM      2  O   UNL     1     -34.718  24.135   3.734  0.00  0.00    -0.441 OA
ATOM      3  O   UNL     1     -38.296  20.317   0.094  0.00  0.00    -0.274 OA
ATOM      4  O   UNL     1     -34.836  25.579   5.523  0.00  0.00    -0.246 OA
ATOM      5  O   UNL     1     -39.465  25.495   1.607  0.00  0.00    -0.245 OA
ATOM      6  N   UNL     1     -37.097  21.162   1.829  0.00  0.00    -0.236 N 
ATOM      7  C   UNL     1     -34.928  26.503   2.130  0.00  0.00    +0.052 C 
ATOM      8  C   UNL     1     -33.985  26.355   3.367  0.00  0.00    +0.224 C 
ATOM      9  C   UNL     1     -38.070  23.231   2.287  0.00  0.00    +0.214 C 
ATOM     10  C   UNL     1     -37.009  22.256   2.626  0.00  0.00    +0.075 C 
ATOM     11  C   UNL     1     -36.327  27.031   2.552  0.00  0.00    +0.037 C 
ATOM     12  C   UNL     1     -38.767  22.565   1.064  0.00  0.00    +0.135 C 
ATOM     13  C   UNL     1     -35.937  22.108   3.474  0.00  0.00    +0.036 C 
ATOM     14  C   UNL     1     -38.091  21.217   0.881  0.00  0.00    +0.237 C 
ATOM     15  C   UNL     1     -34.329  27.424   1.055  0.00  0.00    +0.005 C 
ATOM     16  C   UNL     1     -32.559  25.930   3.002  0.00  0.00    +0.055 C 
ATOM     17  C   UNL     1     -34.555  25.336   4.356  0.00  0.00    +0.354 C 
ATOM     18  C   UNL     1     -37.435  26.761   1.565  0.00  0.00    +0.049 C 
ATOM     19  C   UNL     1     -35.416  23.101   4.448  0.00  0.00    +0.236 C 
ATOM     20  C   UNL     1     -36.141  20.250   2.157  0.00  0.00    +0.072 C 
ATOM     21  C   UNL     1     -35.397  20.814   3.180  0.00  0.00    +0.017 C 
ATOM     22  C   UNL     1     -38.246  25.524   1.699  0.00  0.00    +0.337 C 
ATOM     23  C   UNL     1     -37.849  27.648   0.649  0.00  0.00    -0.024 C 
ATOM     24  C   UNL     1     -37.164  28.943   0.375  0.00  0.00    +0.031 C 
ENDROOT
BRANCH   8  25
ATOM     25  O   UNL     1     -33.913  27.607   4.046  0.00  0.00    -0.445 OA
BRANCH  25  27
ATOM     26  O   UNL     1     -32.078  27.473   5.442  0.00  0.00    -0.250 OA
ATOM     27  C   UNL     1     -32.674  27.968   4.494  0.00  0.00    +0.318 C 
ATOM     28  C   UNL     1     -32.132  29.080   3.650  0.00  0.00    +0.121 C 
ENDBRANCH  25  27
ENDBRANCH   8  25
TORSDOF 2
ENDMDL
MODEL 7
REMARK VINA RESULT:      -6.0      1.913      7.406
REMARK  Name = 5281748
REMARK  2 active torsions:
REMARK  status: ('A' for Active; 'I' for Inactive)
REMARK    1  A    between atoms: C_8  and  O_25
REMARK    2  A    between atoms: O_25  and  C_27
REMARK                            x       y       z     vdW  Elec       q    Type
REMARK                         _______ _______ _______ _____ _____    ______ ____
ROOT
ATOM      1  O   UNL     1     -35.996  26.444   2.383  0.00  0.00    -0.443 OA
ATOM      2  O   UNL     1     -33.280  26.323   4.175  0.00  0.00    -0.441 OA
ATOM      3  O   UNL     1     -37.960  22.259   2.694  0.00  0.00    -0.274 OA
ATOM      4  O   UNL     1     -32.897  28.415   5.060  0.00  0.00    -0.246 OA
ATOM      5  O   UNL     1     -37.769  27.652   1.532  0.00  0.00    -0.245 OA
ATOM      6  N   UNL     1     -36.442  23.492   3.850  0.00  0.00    -0.236 N 
ATOM      7  C   UNL     1     -33.093  27.639   1.634  0.00  0.00    +0.052 C 
ATOM      8  C   UNL     1     -32.097  27.859   2.817  0.00  0.00    +0.224 C 
ATOM      9  C   UNL     1     -36.870  25.703   3.244  0.00  0.00    +0.214 C 
ATOM     10  C   UNL     1     -36.032  24.773   4.033  0.00  0.00    +0.075 C 
ATOM     11  C   UNL     1     -34.289  28.628   1.717  0.00  0.00    +0.037 C 
ATOM     12  C   UNL     1     -37.812  24.737   2.466  0.00  0.00    +0.135 C 
ATOM     13  C   UNL     1     -34.948  24.779   4.878  0.00  0.00    +0.036 C 
ATOM     14  C   UNL     1     -37.482  23.341   2.963  0.00  0.00    +0.237 C 
ATOM     15  C   UNL     1     -32.403  27.773   0.267  0.00  0.00    +0.005 C 
ATOM     16  C   UNL     1     -30.847  26.978   2.736  0.00  0.00    +0.055 C 
ATOM     17  C   UNL     1     -32.789  27.595   4.157  0.00  0.00    +0.354 C 
ATOM     18  C   UNL     1     -35.517  28.210   0.948  0.00  0.00    +0.049 C 
ATOM     19  C   UNL     1     -34.125  25.949   5.277  0.00  0.00    +0.236 C 
ATOM     20  C   UNL     1     -35.694  22.636   4.597  0.00  0.00    +0.072 C 
ATOM     21  C   UNL     1     -34.747  23.410   5.249  0.00  0.00    +0.017 C 
ATOM     22  C   UNL     1     -36.572  27.420   1.631  0.00  0.00    +0.337 C 
ATOM     23  C   UNL     1     -35.802  28.637  -0.290  0.00  0.00    -0.024 C 
ATOM     24  C   UNL     1     -34.868  29.442  -1.128  0.00  0.00    +0.031 C 
ENDROOT
BRANCH   8  25
ATOM     25  O   UNL     1     -31.678  29.222   2.821  0.00  0.00    -0.445 OA
BRANCH  25  27
ATOM     26  O   UNL     1     -29.755  29.298   4.099  0.00  0.00    -0.250 OA
ATOM     27  C   UNL     1     -30.345  29.432   3.035  0.00  0.00    +0.318 C 
ATOM     28  C   UNL     1     -29.687  29.859   1.759  0.00  0.00    +0.121 C 
ENDBRANCH  25  27
ENDBRANCH   8  25
TORSDOF 2
ENDMDL
MODEL 8
REMARK VINA RESULT:      -6.0      9.053     11.613
REMARK  Name = 5281748
REMARK  2 active torsions:
REMARK  status: ('A' for Active; 'I' for Inactive)
REMARK    1  A    between atoms: C_8  and  O_25
REMARK    2  A    between atoms: O_25  and  C_27
REMARK                            x       y       z     vdW  Elec       q    Type
REMARK                         _______ _______ _______ _____ _____    ______ ____
ROOT
ATOM      1  O   UNL     1     -45.251  31.944   4.055  0.00  0.00    -0.443 OA
ATOM      2  O   UNL     1     -44.090  29.235   5.440  0.00  0.00    -0.441 OA
ATOM      3  O   UNL     1     -48.315  33.733   7.036  0.00  0.00    -0.274 OA
ATOM      4  O   UNL     1     -41.910  28.944   4.759  0.00  0.00    -0.246 OA
ATOM      5  O   UNL     1     -44.941  33.761   2.666  0.00  0.00    -0.245 OA
ATOM      6  N   UNL     1     -46.574  32.274   7.089  0.00  0.00    -0.236 N 
ATOM      7  C   UNL     1     -44.719  29.089   2.646  0.00  0.00    +0.052 C 
ATOM      8  C   UNL     1     -43.753  28.110   3.386  0.00  0.00    +0.224 C 
ATOM      9  C   UNL     1     -45.293  32.791   5.210  0.00  0.00    +0.214 C 
ATOM     10  C   UNL     1     -45.463  31.919   6.394  0.00  0.00    +0.075 C 
ATOM     11  C   UNL     1     -43.954  30.326   2.099  0.00  0.00    +0.037 C 
ATOM     12  C   UNL     1     -46.565  33.687   5.260  0.00  0.00    +0.135 C 
ATOM     13  C   UNL     1     -44.875  30.841   7.011  0.00  0.00    +0.036 C 
ATOM     14  C   UNL     1     -47.298  33.302   6.533  0.00  0.00    +0.237 C 
ATOM     15  C   UNL     1     -45.475  28.398   1.500  0.00  0.00    +0.005 C 
ATOM     16  C   UNL     1     -44.433  26.823   3.863  0.00  0.00    +0.055 C 
ATOM     17  C   UNL     1     -43.115  28.797   4.595  0.00  0.00    +0.354 C 
ATOM     18  C   UNL     1     -44.812  31.531   1.809  0.00  0.00    +0.049 C 
ATOM     19  C   UNL     1     -43.695  30.069   6.542  0.00  0.00    +0.236 C 
ATOM     20  C   UNL     1     -46.718  31.495   8.195  0.00  0.00    +0.072 C 
ATOM     21  C   UNL     1     -45.674  30.585   8.173  0.00  0.00    +0.017 C 
ATOM     22  C   UNL     1     -45.012  32.556   2.864  0.00  0.00    +0.337 C 
ATOM     23  C   UNL     1     -45.295  31.827   0.594  0.00  0.00    -0.024 C 
ATOM     24  C   UNL     1     -45.189  30.923  -0.587  0.00  0.00    +0.031 C 
ENDROOT
BRANCH   8  25
ATOM     25  O   UNL     1     -42.695  27.748   2.500  0.00  0.00    -0.445 OA
BRANCH  25  27
ATOM     26  O   UNL     1     -41.498  26.014   3.446  0.00  0.00    -0.250 OA
ATOM     27  C   UNL     1     -42.258  26.457   2.595  0.00  0.00    +0.318 C 
ATOM     28  C   UNL     1     -42.849  25.638   1.488  0.00  0.00    +0.121 C 
ENDBRANCH  25  27
ENDBRANCH   8  25
TORSDOF 2
ENDMDL
MODEL 9
REMARK VINA RESULT:      -6.0      2.989      8.148
REMARK  Name = 5281748
REMARK  2 active torsions:
REMARK  status: ('A' for Active; 'I' for Inactive)
REMARK    1  A    between atoms: C_8  and  O_25
REMARK    2  A    between atoms: O_25  and  C_27
REMARK                            x       y       z     vdW  Elec       q    Type
REMARK                         _______ _______ _______ _____ _____    ______ ____
ROOT
ATOM      1  O   UNL     1     -34.348  28.366   3.112  0.00  0.00    -0.443 OA
ATOM      2  O   UNL     1     -32.346  27.206   5.403  0.00  0.00    -0.441 OA
ATOM      3  O   UNL     1     -36.368  24.686   1.149  0.00  0.00    -0.274 OA
ATOM      4  O   UNL     1     -32.235  28.738   7.118  0.00  0.00    -0.246 OA
ATOM      5  O   UNL     1     -35.742  30.038   2.346  0.00  0.00    -0.245 OA
ATOM      6  N   UNL     1     -35.279  25.172   3.083  0.00  0.00    -0.236 N 
ATOM      7  C   UNL     1     -31.342  29.337   3.769  0.00  0.00    +0.052 C 
ATOM      8  C   UNL     1     -30.771  28.957   5.172  0.00  0.00    +0.224 C 
ATOM      9  C   UNL     1     -35.462  27.486   3.315  0.00  0.00    +0.214 C 
ATOM     10  C   UNL     1     -34.932  26.220   3.872  0.00  0.00    +0.075 C 
ATOM     11  C   UNL     1     -32.488  30.379   3.893  0.00  0.00    +0.037 C 
ATOM     12  C   UNL     1     -36.120  27.022   1.982  0.00  0.00    +0.135 C 
ATOM     13  C   UNL     1     -34.172  25.759   4.921  0.00  0.00    +0.036 C 
ATOM     14  C   UNL     1     -35.985  25.510   1.952  0.00  0.00    +0.237 C 
ATOM     15  C   UNL     1     -30.251  29.876   2.829  0.00  0.00    +0.005 C 
ATOM     16  C   UNL     1     -29.573  28.006   5.108  0.00  0.00    +0.055 C 
ATOM     17  C   UNL     1     -31.857  28.310   6.035  0.00  0.00    +0.354 C 
ATOM     18  C   UNL     1     -33.413  30.455   2.705  0.00  0.00    +0.049 C 
ATOM     19  C   UNL     1     -33.503  26.568   5.971  0.00  0.00    +0.236 C 
ATOM     20  C   UNL     1     -34.820  24.003   3.607  0.00  0.00    +0.072 C 
ATOM     21  C   UNL     1     -34.120  24.337   4.754  0.00  0.00    +0.017 C 
ATOM     22  C   UNL     1     -34.642  29.622   2.682  0.00  0.00    +0.337 C 
ATOM     23  C   UNL     1     -33.283  31.350   1.715  0.00  0.00    -0.024 C 
ATOM     24  C   UNL     1     -32.120  32.272   1.574  0.00  0.00    +0.031 C 
ENDROOT
BRANCH   8  25
ATOM     25  O   UNL     1     -30.356  30.147   5.840  0.00  0.00    -0.445 OA
BRANCH  25  27
ATOM     26  O   UNL     1     -28.876  29.448   7.470  0.00  0.00    -0.250 OA
ATOM     27  C   UNL     1     -29.140  30.085   6.459  0.00  0.00    +0.318 C 
ATOM     28  C   UNL     1     -28.149  30.927   5.716  0.00  0.00    +0.121 C 
ENDBRANCH  25  27
ENDBRANCH   8  25
TORSDOF 2
ENDMDL
