MODEL 1
REMARK VINA RESULT:      -6.2      0.000      0.000
REMARK  Name = 5492170
REMARK  11 active torsions:
REMARK  status: ('A' for Active; 'I' for Inactive)
REMARK    1  A    between atoms: N_2  and  CA_17
REMARK    2  A    between atoms: C_3  and  CA_5
REMARK    3  A    between atoms: CA_5  and  N_8
REMARK    4  A    between atoms: C_9  and  C_11
REMARK    5  A    between atoms: CA_17  and  C_19
REMARK    6  A    between atoms: CA_17  and  CB_22
REMARK    7  A    between atoms: C_19  and  O_20
REMARK    8  A    between atoms: CB_22  and  CG_23
REMARK    9  A    between atoms: CG_23  and  CD_24
REMARK   10  A    between atoms: CD_24  and  NE_25
REMARK   11  A    between atoms: NE_25  and  CZ_28
REMARK                            x       y       z     vdW  Elec       q    Type
REMARK                         _______ _______ _______ _____ _____    ______ ____
ROOT
ATOM      1  O   ALA A   1     -35.185  20.307   2.663  0.00  0.00    -0.273 OA
ATOM      2  N   ALA A   1     -36.223  22.186   3.545  0.00  0.00    -0.295 N 
ATOM      3  C   ALA A   1     -36.131  21.090   2.694  0.00  0.00    +0.241 C 
ATOM      4  H   ALA A   1     -37.024  22.756   3.493  0.00  0.00    +0.150 HD
ENDROOT
BRANCH   3   5
ATOM      5  CA  ALA A   1     -37.370  20.933   1.822  0.00  0.00    +0.149 C 
ATOM      6  CB  ALA A   1     -36.988  20.558   0.399  0.00  0.00    +0.031 C 
BRANCH   5   8
ATOM      7  O   UNK A   0     -40.215  21.239   2.056  0.00  0.00    -0.270 OA
ATOM      8  N   ALA A   1     -38.100  22.172   1.860  0.00  0.00    -0.295 N 
ATOM      9  C   UNK A   0     -39.483  22.223   1.975  0.00  0.00    +0.246 C 
ATOM     10  H   ALA A   1     -37.600  23.018   1.802  0.00  0.00    +0.150 HD
BRANCH   9  11
ATOM     11  C   UNK A   0     -40.089  23.579   1.974  0.00  0.00    +0.053 C 
ATOM     12  C   UNK A   0     -40.938  23.963   0.935  0.00  0.00    +0.005 C 
ATOM     13  C   UNK A   0     -39.810  24.469   3.010  0.00  0.00    +0.005 C 
ATOM     14  C   UNK A   0     -41.507  25.237   0.934  0.00  0.00    +0.000 C 
ATOM     15  C   UNK A   0     -40.379  25.743   3.009  0.00  0.00    +0.000 C 
ATOM     16  C   UNK A   0     -41.227  26.127   1.970  0.00  0.00    +0.000 C 
ENDBRANCH   9  11
ENDBRANCH   5   8
ENDBRANCH   3   5
BRANCH   2  17
ATOM     17  CA  ALA A   1     -35.196  22.523   4.497  0.00  0.00    +0.171 C 
BRANCH  17  19
ATOM     18  OXT ALA A   1     -36.093  22.268   6.749  0.00  0.00    -0.248 OA
ATOM     19  C   ALA A   1     -35.494  21.793   5.794  0.00  0.00    +0.332 C 
BRANCH  19  20
ATOM     20  O   ALA A   1     -35.047  20.509   5.767  0.00  0.00    -0.479 OA
ATOM     21  H   ALA A   1     -34.789  20.119   4.955  0.00  0.00    +0.295 HD
ENDBRANCH  19  20
ENDBRANCH  17  19
BRANCH  17  22
ATOM     22  CB  ALA A   1     -35.055  24.034   4.698  0.00  0.00    +0.033 C 
BRANCH  22  23
ATOM     23  CG  ALA A   1     -36.366  24.814   4.543  0.00  0.00    +0.029 C 
BRANCH  23  24
ATOM     24  CD  ALA A   1     -36.331  25.710   3.310  0.00  0.00    +0.129 C 
BRANCH  24  25
ATOM     25  NE  ALA A   1     -34.963  26.190   3.108  0.00  0.00    -0.240 NA
BRANCH  25  28
ATOM     26  NH1 ALA A   1     -35.231  28.575   3.230  0.00  0.00    -0.370 N 
ATOM     27  NH2 ALA A   1     -33.723  27.503   4.562  0.00  0.00    -0.370 N 
ATOM     28  CZ  ALA A   1     -34.680  27.363   3.583  0.00  0.00    +0.189 C 
ATOM     29 HH11 ALA A   1     -35.930  28.614   2.538  0.00  0.00    +0.159 HD
ATOM     30 HH12 ALA A   1     -34.927  29.402   3.670  0.00  0.00    +0.159 HD
ATOM     31 HH21 ALA A   1     -33.251  26.711   4.905  0.00  0.00    +0.159 HD
ATOM     32 HH22 ALA A   1     -33.512  28.396   4.920  0.00  0.00    +0.159 HD
ENDBRANCH  25  28
ENDBRANCH  24  25
ENDBRANCH  23  24
ENDBRANCH  22  23
ENDBRANCH  17  22
ENDBRANCH   2  17
TORSDOF 11
ENDMDL
MODEL 2
REMARK VINA RESULT:      -6.1      2.734      5.688
REMARK  Name = 5492170
REMARK  11 active torsions:
REMARK  status: ('A' for Active; 'I' for Inactive)
REMARK    1  A    between atoms: N_2  and  CA_17
REMARK    2  A    between atoms: C_3  and  CA_5
REMARK    3  A    between atoms: CA_5  and  N_8
REMARK    4  A    between atoms: C_9  and  C_11
REMARK    5  A    between atoms: CA_17  and  C_19
REMARK    6  A    between atoms: CA_17  and  CB_22
REMARK    7  A    between atoms: C_19  and  O_20
REMARK    8  A    between atoms: CB_22  and  CG_23
REMARK    9  A    between atoms: CG_23  and  CD_24
REMARK   10  A    between atoms: CD_24  and  NE_25
REMARK   11  A    between atoms: NE_25  and  CZ_28
REMARK                            x       y       z     vdW  Elec       q    Type
REMARK                         _______ _______ _______ _____ _____    ______ ____
ROOT
ATOM      1  O   ALA A   1     -36.168  25.380   5.709  0.00  0.00    -0.273 OA
ATOM      2  N   ALA A   1     -34.777  24.001   4.463  0.00  0.00    -0.295 N 
ATOM      3  C   ALA A   1     -35.115  25.185   5.107  0.00  0.00    +0.241 C 
ATOM      4  H   ALA A   1     -33.907  23.943   4.007  0.00  0.00    +0.150 HD
ENDROOT
BRANCH   3   5
ATOM      5  CA  ALA A   1     -33.999  26.220   5.030  0.00  0.00    +0.149 C 
ATOM      6  CB  ALA A   1     -33.470  26.553   6.415  0.00  0.00    +0.031 C 
BRANCH   5   8
ATOM      7  O   UNK A   0     -34.478  26.537   2.216  0.00  0.00    -0.270 OA
ATOM      8  N   ALA A   1     -34.522  27.389   4.373  0.00  0.00    -0.295 N 
ATOM      9  C   UNK A   0     -34.721  27.451   3.000  0.00  0.00    +0.246 C 
ATOM     10  H   ALA A   1     -34.749  28.176   4.919  0.00  0.00    +0.150 HD
BRANCH   9  11
ATOM     11  C   UNK A   0     -35.244  28.738   2.474  0.00  0.00    +0.053 C 
ATOM     12  C   UNK A   0     -34.806  29.944   3.021  0.00  0.00    +0.005 C 
ATOM     13  C   UNK A   0     -36.171  28.741   1.433  0.00  0.00    +0.005 C 
ATOM     14  C   UNK A   0     -35.296  31.153   2.527  0.00  0.00    +0.000 C 
ATOM     15  C   UNK A   0     -36.662  29.950   0.939  0.00  0.00    +0.000 C 
ATOM     16  C   UNK A   0     -36.224  31.156   1.486  0.00  0.00    +0.000 C 
ENDBRANCH   9  11
ENDBRANCH   5   8
ENDBRANCH   3   5
BRANCH   2  17
ATOM     17  CA  ALA A   1     -35.650  22.854   4.433  0.00  0.00    +0.171 C 
BRANCH  17  19
ATOM     18  OXT ALA A   1     -35.232  22.334   6.776  0.00  0.00    -0.248 OA
ATOM     19  C   ALA A   1     -35.305  21.964   5.613  0.00  0.00    +0.332 C 
BRANCH  19  20
ATOM     20  O   ALA A   1     -35.120  20.671   5.236  0.00  0.00    -0.479 OA
ATOM     21  H   ALA A   1     -34.298  20.402   4.874  0.00  0.00    +0.295 HD
ENDBRANCH  19  20
ENDBRANCH  17  19
BRANCH  17  22
ATOM     22  CB  ALA A   1     -35.587  22.105   3.099  0.00  0.00    +0.033 C 
BRANCH  22  23
ATOM     23  CG  ALA A   1     -36.616  22.573   2.064  0.00  0.00    +0.029 C 
BRANCH  23  24
ATOM     24  CD  ALA A   1     -37.956  22.884   2.721  0.00  0.00    +0.129 C 
BRANCH  24  25
ATOM     25  NE  ALA A   1     -38.422  24.192   2.258  0.00  0.00    -0.240 NA
BRANCH  25  28
ATOM     26  NH1 ALA A   1     -39.892  24.993   3.982  0.00  0.00    -0.370 N 
ATOM     27  NH2 ALA A   1     -38.012  26.154   3.423  0.00  0.00    -0.370 N 
ATOM     28  CZ  ALA A   1     -38.780  25.041   3.171  0.00  0.00    +0.189 C 
ATOM     29 HH11 ALA A   1     -40.526  24.244   3.903  0.00  0.00    +0.159 HD
ATOM     30 HH12 ALA A   1     -40.052  25.706   4.642  0.00  0.00    +0.159 HD
ATOM     31 HH21 ALA A   1     -37.186  26.309   2.910  0.00  0.00    +0.159 HD
ATOM     32 HH22 ALA A   1     -38.288  26.795   4.117  0.00  0.00    +0.159 HD
ENDBRANCH  25  28
ENDBRANCH  24  25
ENDBRANCH  23  24
ENDBRANCH  22  23
ENDBRANCH  17  22
ENDBRANCH   2  17
TORSDOF 11
ENDMDL
MODEL 3
REMARK VINA RESULT:      -6.1      2.898      5.625
REMARK  Name = 5492170
REMARK  11 active torsions:
REMARK  status: ('A' for Active; 'I' for Inactive)
REMARK    1  A    between atoms: N_2  and  CA_17
REMARK    2  A    between atoms: C_3  and  CA_5
REMARK    3  A    between atoms: CA_5  and  N_8
REMARK    4  A    between atoms: C_9  and  C_11
REMARK    5  A    between atoms: CA_17  and  C_19
REMARK    6  A    between atoms: CA_17  and  CB_22
REMARK    7  A    between atoms: C_19  and  O_20
REMARK    8  A    between atoms: CB_22  and  CG_23
REMARK    9  A    between atoms: CG_23  and  CD_24
REMARK   10  A    between atoms: CD_24  and  NE_25
REMARK   11  A    between atoms: NE_25  and  CZ_28
REMARK                            x       y       z     vdW  Elec       q    Type
REMARK                         _______ _______ _______ _____ _____    ______ ____
ROOT
ATOM      1  O   ALA A   1     -37.394  23.280   3.485  0.00  0.00    -0.273 OA
ATOM      2  N   ALA A   1     -35.198  22.564   3.716  0.00  0.00    -0.295 N 
ATOM      3  C   ALA A   1     -36.392  22.738   3.025  0.00  0.00    +0.241 C 
ATOM      4  H   ALA A   1     -34.450  22.116   3.259  0.00  0.00    +0.150 HD
ENDROOT
BRANCH   3   5
ATOM      5  CA  ALA A   1     -36.309  22.220   1.594  0.00  0.00    +0.149 C 
ATOM      6  CB  ALA A   1     -37.626  21.591   1.167  0.00  0.00    +0.031 C 
BRANCH   5   8
ATOM      7  O   UNK A   0     -34.171  22.189  -0.322  0.00  0.00    -0.270 OA
ATOM      8  N   ALA A   1     -35.229  21.271   1.527  0.00  0.00    -0.295 N 
ATOM      9  C   UNK A   0     -34.235  21.336   0.559  0.00  0.00    +0.246 C 
ATOM     10  H   ALA A   1     -35.193  20.547   2.193  0.00  0.00    +0.150 HD
BRANCH   9  11
ATOM     11  C   UNK A   0     -33.205  20.266   0.610  0.00  0.00    +0.053 C 
ATOM     12  C   UNK A   0     -31.982  20.446  -0.037  0.00  0.00    +0.005 C 
ATOM     13  C   UNK A   0     -33.460  19.084   1.304  0.00  0.00    +0.005 C 
ATOM     14  C   UNK A   0     -31.014  19.442   0.010  0.00  0.00    +0.000 C 
ATOM     15  C   UNK A   0     -32.492  18.080   1.351  0.00  0.00    +0.000 C 
ATOM     16  C   UNK A   0     -31.269  18.259   0.704  0.00  0.00    +0.000 C 
ENDBRANCH   9  11
ENDBRANCH   5   8
ENDBRANCH   3   5
BRANCH   2  17
ATOM     17  CA  ALA A   1     -35.010  23.010   5.073  0.00  0.00    +0.171 C 
BRANCH  17  19
ATOM     18  OXT ALA A   1     -36.184  22.060   6.986  0.00  0.00    -0.248 OA
ATOM     19  C   ALA A   1     -35.472  21.904   6.004  0.00  0.00    +0.332 C 
BRANCH  19  20
ATOM     20  O   ALA A   1     -35.034  20.683   5.598  0.00  0.00    -0.479 OA
ATOM     21  H   ALA A   1     -34.642  20.096   6.215  0.00  0.00    +0.295 HD
ENDBRANCH  19  20
ENDBRANCH  17  19
BRANCH  17  22
ATOM     22  CB  ALA A   1     -35.712  24.340   5.355  0.00  0.00    +0.033 C 
BRANCH  22  23
ATOM     23  CG  ALA A   1     -34.760  25.500   5.667  0.00  0.00    +0.029 C 
BRANCH  23  24
ATOM     24  CD  ALA A   1     -33.973  25.915   4.430  0.00  0.00    +0.129 C 
BRANCH  24  25
ATOM     25  NE  ALA A   1     -34.874  25.943   3.277  0.00  0.00    -0.240 NA
BRANCH  25  28
ATOM     26  NH1 ALA A   1     -35.138  28.330   3.358  0.00  0.00    -0.370 N 
ATOM     27  NH2 ALA A   1     -36.796  27.003   2.529  0.00  0.00    -0.370 N 
ATOM     28  CZ  ALA A   1     -35.536  27.041   3.079  0.00  0.00    +0.189 C 
ATOM     29 HH11 ALA A   1     -34.253  28.496   3.756  0.00  0.00    +0.159 HD
ATOM     30 HH12 ALA A   1     -35.738  29.085   3.159  0.00  0.00    +0.159 HD
ATOM     31 HH21 ALA A   1     -37.199  26.140   2.283  0.00  0.00    +0.159 HD
ATOM     32 HH22 ALA A   1     -37.293  27.839   2.381  0.00  0.00    +0.159 HD
ENDBRANCH  25  28
ENDBRANCH  24  25
ENDBRANCH  23  24
ENDBRANCH  22  23
ENDBRANCH  17  22
ENDBRANCH   2  17
TORSDOF 11
ENDMDL
MODEL 4
REMARK VINA RESULT:      -6.1      3.126      5.934
REMARK  Name = 5492170
REMARK  11 active torsions:
REMARK  status: ('A' for Active; 'I' for Inactive)
REMARK    1  A    between atoms: N_2  and  CA_17
REMARK    2  A    between atoms: C_3  and  CA_5
REMARK    3  A    between atoms: CA_5  and  N_8
REMARK    4  A    between atoms: C_9  and  C_11
REMARK    5  A    between atoms: CA_17  and  C_19
REMARK    6  A    between atoms: CA_17  and  CB_22
REMARK    7  A    between atoms: C_19  and  O_20
REMARK    8  A    between atoms: CB_22  and  CG_23
REMARK    9  A    between atoms: CG_23  and  CD_24
REMARK   10  A    between atoms: CD_24  and  NE_25
REMARK   11  A    between atoms: NE_25  and  CZ_28
REMARK                            x       y       z     vdW  Elec       q    Type
REMARK                         _______ _______ _______ _____ _____    ______ ____
ROOT
ATOM      1  O   ALA A   1     -34.492  24.140   2.000  0.00  0.00    -0.273 OA
ATOM      2  N   ALA A   1     -35.676  22.571   3.235  0.00  0.00    -0.295 N 
ATOM      3  C   ALA A   1     -35.170  23.117   2.061  0.00  0.00    +0.241 C 
ATOM      4  H   ALA A   1     -36.210  21.746   3.180  0.00  0.00    +0.150 HD
ENDROOT
BRANCH   3   5
ATOM      5  CA  ALA A   1     -35.509  22.270   0.841  0.00  0.00    +0.149 C 
ATOM      6  CB  ALA A   1     -36.771  21.457   1.077  0.00  0.00    +0.031 C 
BRANCH   5   8
ATOM      7  O   UNK A   0     -34.731  19.923   2.301  0.00  0.00    -0.270 OA
ATOM      8  N   ALA A   1     -34.382  21.419   0.563  0.00  0.00    -0.295 N 
ATOM      9  C   UNK A   0     -34.082  20.300   1.329  0.00  0.00    +0.246 C 
ATOM     10  H   ALA A   1     -33.800  21.639  -0.200  0.00  0.00    +0.150 HD
BRANCH   9  11
ATOM     11  C   UNK A   0     -32.869  19.541   0.928  0.00  0.00    +0.053 C 
ATOM     12  C   UNK A   0     -32.703  18.221   1.348  0.00  0.00    +0.005 C 
ATOM     13  C   UNK A   0     -31.898  20.147   0.132  0.00  0.00    +0.005 C 
ATOM     14  C   UNK A   0     -31.564  17.508   0.971  0.00  0.00    +0.000 C 
ATOM     15  C   UNK A   0     -30.759  19.434  -0.244  0.00  0.00    +0.000 C 
ATOM     16  C   UNK A   0     -30.593  18.114   0.175  0.00  0.00    +0.000 C 
ENDBRANCH   9  11
ENDBRANCH   5   8
ENDBRANCH   3   5
BRANCH   2  17
ATOM     17  CA  ALA A   1     -35.454  23.165   4.530  0.00  0.00    +0.171 C 
BRANCH  17  19
ATOM     18  OXT ALA A   1     -35.931  22.227   6.728  0.00  0.00    -0.248 OA
ATOM     19  C   ALA A   1     -35.550  22.070   5.576  0.00  0.00    +0.332 C 
BRANCH  19  20
ATOM     20  O   ALA A   1     -35.196  20.857   5.075  0.00  0.00    -0.479 OA
ATOM     21  H   ALA A   1     -34.521  20.796   4.427  0.00  0.00    +0.295 HD
ENDBRANCH  19  20
ENDBRANCH  17  19
BRANCH  17  22
ATOM     22  CB  ALA A   1     -36.409  24.327   4.813  0.00  0.00    +0.033 C 
BRANCH  22  23
ATOM     23  CG  ALA A   1     -35.769  25.498   5.569  0.00  0.00    +0.029 C 
BRANCH  23  24
ATOM     24  CD  ALA A   1     -34.289  25.630   5.228  0.00  0.00    +0.129 C 
BRANCH  24  25
ATOM     25  NE  ALA A   1     -34.004  27.020   4.871  0.00  0.00    -0.240 NA
BRANCH  25  28
ATOM     26  NH1 ALA A   1     -33.649  26.895   2.498  0.00  0.00    -0.370 N 
ATOM     27  NH2 ALA A   1     -35.197  28.322   3.369  0.00  0.00    -0.370 N 
ATOM     28  CZ  ALA A   1     -34.245  27.369   3.645  0.00  0.00    +0.189 C 
ATOM     29 HH11 ALA A   1     -32.948  26.206   2.556  0.00  0.00    +0.159 HD
ATOM     30 HH12 ALA A   1     -33.923  27.244   1.619  0.00  0.00    +0.159 HD
ATOM     31 HH21 ALA A   1     -35.700  28.743   4.103  0.00  0.00    +0.159 HD
ATOM     32 HH22 ALA A   1     -35.377  28.583   2.437  0.00  0.00    +0.159 HD
ENDBRANCH  25  28
ENDBRANCH  24  25
ENDBRANCH  23  24
ENDBRANCH  22  23
ENDBRANCH  17  22
ENDBRANCH   2  17
TORSDOF 11
ENDMDL
MODEL 5
REMARK VINA RESULT:      -6.0      1.181      1.773
REMARK  Name = 5492170
REMARK  11 active torsions:
REMARK  status: ('A' for Active; 'I' for Inactive)
REMARK    1  A    between atoms: N_2  and  CA_17
REMARK    2  A    between atoms: C_3  and  CA_5
REMARK    3  A    between atoms: CA_5  and  N_8
REMARK    4  A    between atoms: C_9  and  C_11
REMARK    5  A    between atoms: CA_17  and  C_19
REMARK    6  A    between atoms: CA_17  and  CB_22
REMARK    7  A    between atoms: C_19  and  O_20
REMARK    8  A    between atoms: CB_22  and  CG_23
REMARK    9  A    between atoms: CG_23  and  CD_24
REMARK   10  A    between atoms: CD_24  and  NE_25
REMARK   11  A    between atoms: NE_25  and  CZ_28
REMARK                            x       y       z     vdW  Elec       q    Type
REMARK                         _______ _______ _______ _____ _____    ______ ____
ROOT
ATOM      1  O   ALA A   1     -35.172  20.566   2.569  0.00  0.00    -0.273 OA
ATOM      2  N   ALA A   1     -36.350  22.303   3.560  0.00  0.00    -0.295 N 
ATOM      3  C   ALA A   1     -36.175  21.271   2.645  0.00  0.00    +0.241 C 
ATOM      4  H   ALA A   1     -37.192  22.812   3.541  0.00  0.00    +0.150 HD
ENDROOT
BRANCH   3   5
ATOM      5  CA  ALA A   1     -37.401  21.072   1.762  0.00  0.00    +0.149 C 
ATOM      6  CB  ALA A   1     -36.995  20.706   0.343  0.00  0.00    +0.031 C 
BRANCH   5   8
ATOM      7  O   UNK A   0     -40.247  21.290   2.074  0.00  0.00    -0.270 OA
ATOM      8  N   ALA A   1     -38.171  22.287   1.791  0.00  0.00    -0.295 N 
ATOM      9  C   UNK A   0     -39.551  22.295   1.946  0.00  0.00    +0.246 C 
ATOM     10  H   ALA A   1     -37.702  23.147   1.696  0.00  0.00    +0.150 HD
BRANCH   9  11
ATOM     11  C   UNK A   0     -40.202  23.630   1.929  0.00  0.00    +0.053 C 
ATOM     12  C   UNK A   0     -39.934  24.550   2.943  0.00  0.00    +0.005 C 
ATOM     13  C   UNK A   0     -41.080  23.965   0.898  0.00  0.00    +0.005 C 
ATOM     14  C   UNK A   0     -40.545  25.804   2.927  0.00  0.00    +0.000 C 
ATOM     15  C   UNK A   0     -41.690  25.220   0.882  0.00  0.00    +0.000 C 
ATOM     16  C   UNK A   0     -41.423  26.139   1.896  0.00  0.00    +0.000 C 
ENDBRANCH   9  11
ENDBRANCH   5   8
ENDBRANCH   3   5
BRANCH   2  17
ATOM     17  CA  ALA A   1     -35.349  22.660   4.533  0.00  0.00    +0.171 C 
BRANCH  17  19
ATOM     18  OXT ALA A   1     -36.152  22.128   6.772  0.00  0.00    -0.248 OA
ATOM     19  C   ALA A   1     -35.550  21.791   5.761  0.00  0.00    +0.332 C 
BRANCH  19  20
ATOM     20  O   ALA A   1     -35.012  20.553   5.601  0.00  0.00    -0.479 OA
ATOM     21  H   ALA A   1     -34.122  20.393   5.851  0.00  0.00    +0.295 HD
ENDBRANCH  19  20
ENDBRANCH  17  19
BRANCH  17  22
ATOM     22  CB  ALA A   1     -35.362  24.154   4.867  0.00  0.00    +0.033 C 
BRANCH  22  23
ATOM     23  CG  ALA A   1     -33.971  24.772   5.044  0.00  0.00    +0.029 C 
BRANCH  23  24
ATOM     24  CD  ALA A   1     -34.061  26.278   5.267  0.00  0.00    +0.129 C 
BRANCH  24  25
ATOM     25  NE  ALA A   1     -32.756  26.880   4.990  0.00  0.00    -0.240 NA
BRANCH  25  28
ATOM     26  NH1 ALA A   1     -32.470  29.254   5.227  0.00  0.00    -0.370 N 
ATOM     27  NH2 ALA A   1     -32.051  27.850   6.974  0.00  0.00    -0.370 N 
ATOM     28  CZ  ALA A   1     -32.451  27.947   5.661  0.00  0.00    +0.189 C 
ATOM     29 HH11 ALA A   1     -32.739  29.461   4.304  0.00  0.00    +0.159 HD
ATOM     30 HH12 ALA A   1     -32.214  29.981   5.841  0.00  0.00    +0.159 HD
ATOM     31 HH21 ALA A   1     -31.994  26.968   7.407  0.00  0.00    +0.159 HD
ATOM     32 HH22 ALA A   1     -31.821  28.663   7.479  0.00  0.00    +0.159 HD
ENDBRANCH  25  28
ENDBRANCH  24  25
ENDBRANCH  23  24
ENDBRANCH  22  23
ENDBRANCH  17  22
ENDBRANCH   2  17
TORSDOF 11
ENDMDL
MODEL 6
REMARK VINA RESULT:      -5.8      4.553      7.444
REMARK  Name = 5492170
REMARK  11 active torsions:
REMARK  status: ('A' for Active; 'I' for Inactive)
REMARK    1  A    between atoms: N_2  and  CA_17
REMARK    2  A    between atoms: C_3  and  CA_5
REMARK    3  A    between atoms: CA_5  and  N_8
REMARK    4  A    between atoms: C_9  and  C_11
REMARK    5  A    between atoms: CA_17  and  C_19
REMARK    6  A    between atoms: CA_17  and  CB_22
REMARK    7  A    between atoms: C_19  and  O_20
REMARK    8  A    between atoms: CB_22  and  CG_23
REMARK    9  A    between atoms: CG_23  and  CD_24
REMARK   10  A    between atoms: CD_24  and  NE_25
REMARK   11  A    between atoms: NE_25  and  CZ_28
REMARK                            x       y       z     vdW  Elec       q    Type
REMARK                         _______ _______ _______ _____ _____    ______ ____
ROOT
ATOM      1  O   ALA A   1     -31.232  27.141   3.300  0.00  0.00    -0.273 OA
ATOM      2  N   ALA A   1     -32.626  28.512   4.551  0.00  0.00    -0.295 N 
ATOM      3  C   ALA A   1     -32.339  27.627   3.518  0.00  0.00    +0.241 C 
ATOM      4  H   ALA A   1     -33.547  28.847   4.643  0.00  0.00    +0.150 HD
ENDROOT
BRANCH   3   5
ATOM      5  CA  ALA A   1     -33.576  27.279   2.699  0.00  0.00    +0.149 C 
ATOM      6  CB  ALA A   1     -34.689  28.286   2.941  0.00  0.00    +0.031 C 
BRANCH   5   8
ATOM      7  O   UNK A   0     -34.863  26.480   5.138  0.00  0.00    -0.270 OA
ATOM      8  N   ALA A   1     -33.986  25.947   3.057  0.00  0.00    -0.295 N 
ATOM      9  C   UNK A   0     -34.604  25.654   4.266  0.00  0.00    +0.246 C 
ATOM     10  H   ALA A   1     -33.821  25.214   2.421  0.00  0.00    +0.150 HD
BRANCH   9  11
ATOM     11  C   UNK A   0     -34.942  24.225   4.496  0.00  0.00    +0.053 C 
ATOM     12  C   UNK A   0     -35.181  23.382   3.411  0.00  0.00    +0.005 C 
ATOM     13  C   UNK A   0     -35.019  23.727   5.796  0.00  0.00    +0.005 C 
ATOM     14  C   UNK A   0     -35.498  22.041   3.627  0.00  0.00    +0.000 C 
ATOM     15  C   UNK A   0     -35.336  22.386   6.012  0.00  0.00    +0.000 C 
ATOM     16  C   UNK A   0     -35.575  21.543   4.927  0.00  0.00    +0.000 C 
ENDBRANCH   9  11
ENDBRANCH   5   8
ENDBRANCH   3   5
BRANCH   2  17
ATOM     17  CA  ALA A   1     -31.631  28.961   5.493  0.00  0.00    +0.171 C 
BRANCH  17  19
ATOM     18  OXT ALA A   1     -32.558  27.408   7.126  0.00  0.00    -0.248 OA
ATOM     19  C   ALA A   1     -32.039  28.487   6.875  0.00  0.00    +0.332 C 
BRANCH  19  20
ATOM     20  O   ALA A   1     -31.723  29.395   7.836  0.00  0.00    -0.479 OA
ATOM     21  H   ALA A   1     -30.831  29.654   7.962  0.00  0.00    +0.295 HD
ENDBRANCH  19  20
ENDBRANCH  17  19
BRANCH  17  22
ATOM     22  CB  ALA A   1     -31.411  30.474   5.435  0.00  0.00    +0.033 C 
BRANCH  22  23
ATOM     23  CG  ALA A   1     -29.942  30.893   5.306  0.00  0.00    +0.029 C 
BRANCH  23  24
ATOM     24  CD  ALA A   1     -29.045  29.685   5.059  0.00  0.00    +0.129 C 
BRANCH  24  25
ATOM     25  NE  ALA A   1     -28.065  29.590   6.141  0.00  0.00    -0.240 NA
BRANCH  25  28
ATOM     26  NH1 ALA A   1     -28.648  29.385   8.463  0.00  0.00    -0.370 N 
ATOM     27  NH2 ALA A   1     -28.601  27.552   7.109  0.00  0.00    -0.370 N 
ATOM     28  CZ  ALA A   1     -28.416  28.913   7.190  0.00  0.00    +0.189 C 
ATOM     29 HH11 ALA A   1     -28.551  30.345   8.657  0.00  0.00    +0.159 HD
ATOM     30 HH12 ALA A   1     -28.913  28.763   9.179  0.00  0.00    +0.159 HD
ATOM     31 HH21 ALA A   1     -28.466  27.088   6.252  0.00  0.00    +0.159 HD
ATOM     32 HH22 ALA A   1     -28.868  27.043   7.908  0.00  0.00    +0.159 HD
ENDBRANCH  25  28
ENDBRANCH  24  25
ENDBRANCH  23  24
ENDBRANCH  22  23
ENDBRANCH  17  22
ENDBRANCH   2  17
TORSDOF 11
ENDMDL
MODEL 7
REMARK VINA RESULT:      -5.7      2.451      4.657
REMARK  Name = 5492170
REMARK  11 active torsions:
REMARK  status: ('A' for Active; 'I' for Inactive)
REMARK    1  A    between atoms: N_2  and  CA_17
REMARK    2  A    between atoms: C_3  and  CA_5
REMARK    3  A    between atoms: CA_5  and  N_8
REMARK    4  A    between atoms: C_9  and  C_11
REMARK    5  A    between atoms: CA_17  and  C_19
REMARK    6  A    between atoms: CA_17  and  CB_22
REMARK    7  A    between atoms: C_19  and  O_20
REMARK    8  A    between atoms: CB_22  and  CG_23
REMARK    9  A    between atoms: CG_23  and  CD_24
REMARK   10  A    between atoms: CD_24  and  NE_25
REMARK   11  A    between atoms: NE_25  and  CZ_28
REMARK                            x       y       z     vdW  Elec       q    Type
REMARK                         _______ _______ _______ _____ _____    ______ ____
ROOT
ATOM      1  O   ALA A   1     -37.718  24.655   4.304  0.00  0.00    -0.273 OA
ATOM      2  N   ALA A   1     -35.717  25.714   3.795  0.00  0.00    -0.295 N 
ATOM      3  C   ALA A   1     -37.028  25.328   3.542  0.00  0.00    +0.241 C 
ATOM      4  H   ALA A   1     -35.246  26.254   3.120  0.00  0.00    +0.150 HD
ENDROOT
BRANCH   3   5
ATOM      5  CA  ALA A   1     -37.545  25.878   2.218  0.00  0.00    +0.149 C 
ATOM      6  CB  ALA A   1     -36.832  27.169   1.851  0.00  0.00    +0.031 C 
BRANCH   5   8
ATOM      7  O   UNK A   0     -39.617  24.172   1.197  0.00  0.00    -0.270 OA
ATOM      8  N   ALA A   1     -38.964  26.079   2.345  0.00  0.00    -0.295 N 
ATOM      9  C   UNK A   0     -39.896  25.197   1.815  0.00  0.00    +0.246 C 
ATOM     10  H   ALA A   1     -39.287  26.875   2.827  0.00  0.00    +0.150 HD
BRANCH   9  11
ATOM     11  C   UNK A   0     -41.323  25.561   2.009  0.00  0.00    +0.053 C 
ATOM     12  C   UNK A   0     -41.686  26.439   3.030  0.00  0.00    +0.005 C 
ATOM     13  C   UNK A   0     -42.300  25.025   1.171  0.00  0.00    +0.005 C 
ATOM     14  C   UNK A   0     -43.026  26.782   3.212  0.00  0.00    +0.000 C 
ATOM     15  C   UNK A   0     -43.641  25.368   1.353  0.00  0.00    +0.000 C 
ATOM     16  C   UNK A   0     -44.003  26.246   2.374  0.00  0.00    +0.000 C 
ENDBRANCH   9  11
ENDBRANCH   5   8
ENDBRANCH   3   5
BRANCH   2  17
ATOM     17  CA  ALA A   1     -35.017  25.355   5.002  0.00  0.00    +0.171 C 
BRANCH  17  19
ATOM     18  OXT ALA A   1     -33.179  26.407   6.207  0.00  0.00    -0.248 OA
ATOM     19  C   ALA A   1     -34.002  26.442   5.303  0.00  0.00    +0.332 C 
BRANCH  19  20
ATOM     20  O   ALA A   1     -34.079  27.468   4.415  0.00  0.00    -0.479 OA
ATOM     21  H   ALA A   1     -34.900  27.683   4.017  0.00  0.00    +0.295 HD
ENDBRANCH  19  20
ENDBRANCH  17  19
BRANCH  17  22
ATOM     22  CB  ALA A   1     -34.377  23.967   4.918  0.00  0.00    +0.033 C 
BRANCH  22  23
ATOM     23  CG  ALA A   1     -35.105  22.888   5.729  0.00  0.00    +0.029 C 
BRANCH  23  24
ATOM     24  CD  ALA A   1     -35.324  21.629   4.899  0.00  0.00    +0.129 C 
BRANCH  24  25
ATOM     25  NE  ALA A   1     -35.590  22.011   3.512  0.00  0.00    -0.240 NA
BRANCH  25  28
ATOM     26  NH1 ALA A   1     -36.579  20.089   2.463  0.00  0.00    -0.370 N 
ATOM     27  NH2 ALA A   1     -37.742  22.041   2.648  0.00  0.00    -0.370 N 
ATOM     28  CZ  ALA A   1     -36.558  21.392   2.910  0.00  0.00    +0.189 C 
ATOM     29 HH11 ALA A   1     -35.790  19.513   2.589  0.00  0.00    +0.159 HD
ATOM     30 HH12 ALA A   1     -37.382  19.734   2.017  0.00  0.00    +0.159 HD
ATOM     31 HH21 ALA A   1     -37.858  22.980   2.917  0.00  0.00    +0.159 HD
ATOM     32 HH22 ALA A   1     -38.473  21.565   2.191  0.00  0.00    +0.159 HD
ENDBRANCH  25  28
ENDBRANCH  24  25
ENDBRANCH  23  24
ENDBRANCH  22  23
ENDBRANCH  17  22
ENDBRANCH   2  17
TORSDOF 11
ENDMDL
MODEL 8
REMARK VINA RESULT:      -5.7      3.127      6.496
REMARK  Name = 5492170
REMARK  11 active torsions:
REMARK  status: ('A' for Active; 'I' for Inactive)
REMARK    1  A    between atoms: N_2  and  CA_17
REMARK    2  A    between atoms: C_3  and  CA_5
REMARK    3  A    between atoms: CA_5  and  N_8
REMARK    4  A    between atoms: C_9  and  C_11
REMARK    5  A    between atoms: CA_17  and  C_19
REMARK    6  A    between atoms: CA_17  and  CB_22
REMARK    7  A    between atoms: C_19  and  O_20
REMARK    8  A    between atoms: CB_22  and  CG_23
REMARK    9  A    between atoms: CG_23  and  CD_24
REMARK   10  A    between atoms: CD_24  and  NE_25
REMARK   11  A    between atoms: NE_25  and  CZ_28
REMARK                            x       y       z     vdW  Elec       q    Type
REMARK                         _______ _______ _______ _____ _____    ______ ____
ROOT
ATOM      1  O   ALA A   1     -33.967  24.862   2.275  0.00  0.00    -0.273 OA
ATOM      2  N   ALA A   1     -36.175  24.151   2.343  0.00  0.00    -0.295 N 
ATOM      3  C   ALA A   1     -34.940  24.342   1.734  0.00  0.00    +0.241 C 
ATOM      4  H   ALA A   1     -36.895  23.724   1.825  0.00  0.00    +0.150 HD
ENDROOT
BRANCH   3   5
ATOM      5  CA  ALA A   1     -34.905  23.787   0.316  0.00  0.00    +0.149 C 
ATOM      6  CB  ALA A   1     -36.305  23.439  -0.166  0.00  0.00    +0.031 C 
BRANCH   5   8
ATOM      7  O   UNK A   0     -35.477  21.223   1.476  0.00  0.00    -0.270 OA
ATOM      8  N   ALA A   1     -34.047  22.632   0.313  0.00  0.00    -0.295 N 
ATOM      9  C   UNK A   0     -34.410  21.428   0.902  0.00  0.00    +0.246 C 
ATOM     10  H   ALA A   1     -33.168  22.697  -0.125  0.00  0.00    +0.150 HD
BRANCH   9  11
ATOM     11  C   UNK A   0     -33.402  20.339   0.836  0.00  0.00    +0.053 C 
ATOM     12  C   UNK A   0     -33.631  19.135   1.504  0.00  0.00    +0.005 C 
ATOM     13  C   UNK A   0     -32.227  20.519   0.107  0.00  0.00    +0.005 C 
ATOM     14  C   UNK A   0     -32.684  18.112   1.442  0.00  0.00    +0.000 C 
ATOM     15  C   UNK A   0     -31.280  19.495   0.045  0.00  0.00    +0.000 C 
ATOM     16  C   UNK A   0     -31.509  18.292   0.713  0.00  0.00    +0.000 C 
ENDBRANCH   9  11
ENDBRANCH   5   8
ENDBRANCH   3   5
BRANCH   2  17
ATOM     17  CA  ALA A   1     -36.447  24.552   3.700  0.00  0.00    +0.171 C 
BRANCH  17  19
ATOM     18  OXT ALA A   1     -35.784  23.401   5.743  0.00  0.00    -0.248 OA
ATOM     19  C   ALA A   1     -36.224  23.352   4.603  0.00  0.00    +0.332 C 
BRANCH  19  20
ATOM     20  O   ALA A   1     -36.611  22.192   4.009  0.00  0.00    -0.479 OA
ATOM     21  H   ALA A   1     -36.158  21.880   3.250  0.00  0.00    +0.295 HD
ENDBRANCH  19  20
ENDBRANCH  17  19
BRANCH  17  22
ATOM     22  CB  ALA A   1     -37.844  25.154   3.865  0.00  0.00    +0.033 C 
BRANCH  22  23
ATOM     23  CG  ALA A   1     -38.556  25.465   2.543  0.00  0.00    +0.029 C 
BRANCH  23  24
ATOM     24  CD  ALA A   1     -39.718  24.507   2.305  0.00  0.00    +0.129 C 
BRANCH  24  25
ATOM     25  NE  ALA A   1     -39.383  23.200   2.870  0.00  0.00    -0.240 NA
BRANCH  25  28
ATOM     26  NH1 ALA A   1     -38.540  21.114   2.026  0.00  0.00    -0.370 N 
ATOM     27  NH2 ALA A   1     -40.355  22.108   1.070  0.00  0.00    -0.370 N 
ATOM     28  CZ  ALA A   1     -39.399  22.191   2.055  0.00  0.00    +0.189 C 
ATOM     29 HH11 ALA A   1     -37.808  21.051   2.680  0.00  0.00    +0.159 HD
ATOM     30 HH12 ALA A   1     -38.659  20.407   1.351  0.00  0.00    +0.159 HD
ATOM     31 HH21 ALA A   1     -41.032  22.817   0.981  0.00  0.00    +0.159 HD
ATOM     32 HH22 ALA A   1     -40.362  21.340   0.454  0.00  0.00    +0.159 HD
ENDBRANCH  25  28
ENDBRANCH  24  25
ENDBRANCH  23  24
ENDBRANCH  22  23
ENDBRANCH  17  22
ENDBRANCH   2  17
TORSDOF 11
ENDMDL
MODEL 9
REMARK VINA RESULT:      -5.7      2.585      6.343
REMARK  Name = 5492170
REMARK  11 active torsions:
REMARK  status: ('A' for Active; 'I' for Inactive)
REMARK    1  A    between atoms: N_2  and  CA_17
REMARK    2  A    between atoms: C_3  and  CA_5
REMARK    3  A    between atoms: CA_5  and  N_8
REMARK    4  A    between atoms: C_9  and  C_11
REMARK    5  A    between atoms: CA_17  and  C_19
REMARK    6  A    between atoms: CA_17  and  CB_22
REMARK    7  A    between atoms: C_19  and  O_20
REMARK    8  A    between atoms: CB_22  and  CG_23
REMARK    9  A    between atoms: CG_23  and  CD_24
REMARK   10  A    between atoms: CD_24  and  NE_25
REMARK   11  A    between atoms: NE_25  and  CZ_28
REMARK                            x       y       z     vdW  Elec       q    Type
REMARK                         _______ _______ _______ _____ _____    ______ ____
ROOT
ATOM      1  O   ALA A   1     -35.029  24.220   4.458  0.00  0.00    -0.273 OA
ATOM      2  N   ALA A   1     -37.128  23.713   3.605  0.00  0.00    -0.295 N 
ATOM      3  C   ALA A   1     -35.920  23.407   4.222  0.00  0.00    +0.241 C 
ATOM      4  H   ALA A   1     -37.779  22.989   3.459  0.00  0.00    +0.150 HD
ENDROOT
BRANCH   3   5
ATOM      5  CA  ALA A   1     -35.835  21.940   4.625  0.00  0.00    +0.149 C 
ATOM      6  CB  ALA A   1     -35.063  21.777   5.924  0.00  0.00    +0.031 C 
BRANCH   5   8
ATOM      7  O   UNK A   0     -37.132  20.847   2.308  0.00  0.00    -0.270 OA
ATOM      8  N   ALA A   1     -35.208  21.219   3.549  0.00  0.00    -0.295 N 
ATOM      9  C   UNK A   0     -35.920  20.725   2.464  0.00  0.00    +0.246 C 
ATOM     10  H   ALA A   1     -34.235  21.071   3.582  0.00  0.00    +0.150 HD
BRANCH   9  11
ATOM     11  C   UNK A   0     -35.130  19.980   1.449  0.00  0.00    +0.053 C 
ATOM     12  C   UNK A   0     -33.899  19.422   1.796  0.00  0.00    +0.005 C 
ATOM     13  C   UNK A   0     -35.618  19.839   0.151  0.00  0.00    +0.005 C 
ATOM     14  C   UNK A   0     -33.157  18.723   0.844  0.00  0.00    +0.000 C 
ATOM     15  C   UNK A   0     -34.875  19.139  -0.802  0.00  0.00    +0.000 C 
ATOM     16  C   UNK A   0     -33.645  18.581  -0.454  0.00  0.00    +0.000 C 
ENDBRANCH   9  11
ENDBRANCH   5   8
ENDBRANCH   3   5
BRANCH   2  17
ATOM     17  CA  ALA A   1     -37.465  25.044   3.169  0.00  0.00    +0.171 C 
BRANCH  17  19
ATOM     18  OXT ALA A   1     -39.752  24.378   3.683  0.00  0.00    -0.248 OA
ATOM     19  C   ALA A   1     -38.950  25.257   3.402  0.00  0.00    +0.332 C 
BRANCH  19  20
ATOM     20  O   ALA A   1     -39.296  26.568   3.303  0.00  0.00    -0.479 OA
ATOM     21  H   ALA A   1     -39.407  27.084   4.078  0.00  0.00    +0.295 HD
ENDBRANCH  19  20
ENDBRANCH  17  19
BRANCH  17  22
ATOM     22  CB  ALA A   1     -37.060  25.305   1.716  0.00  0.00    +0.033 C 
BRANCH  22  23
ATOM     23  CG  ALA A   1     -37.078  24.059   0.824  0.00  0.00    +0.029 C 
BRANCH  23  24
ATOM     24  CD  ALA A   1     -38.290  24.059  -0.100  0.00  0.00    +0.129 C 
BRANCH  24  25
ATOM     25  NE  ALA A   1     -38.990  22.781   0.030  0.00  0.00    -0.240 NA
BRANCH  25  28
ATOM     26  NH1 ALA A   1     -41.104  23.498   0.920  0.00  0.00    -0.370 N 
ATOM     27  NH2 ALA A   1     -39.920  21.833   1.931  0.00  0.00    -0.370 N 
ATOM     28  CZ  ALA A   1     -39.960  22.731   0.890  0.00  0.00    +0.189 C 
ATOM     29 HH11 ALA A   1     -41.256  24.182   0.229  0.00  0.00    +0.159 HD
ATOM     30 HH12 ALA A   1     -41.770  23.362   1.633  0.00  0.00    +0.159 HD
ATOM     31 HH21 ALA A   1     -39.153  21.223   2.025  0.00  0.00    +0.159 HD
ATOM     32 HH22 ALA A   1     -40.659  21.799   2.581  0.00  0.00    +0.159 HD
ENDBRANCH  25  28
ENDBRANCH  24  25
ENDBRANCH  23  24
ENDBRANCH  22  23
ENDBRANCH  17  22
ENDBRANCH   2  17
TORSDOF 11
ENDMDL
