MODEL 1
REMARK VINA RESULT:      -6.2      0.000      0.000
REMARK  Name = 192332
REMARK  6 active torsions:
REMARK  status: ('A' for Active; 'I' for Inactive)
REMARK    1  A    between atoms: C_11  and  C_19
REMARK    2  A    between atoms: C_13  and  C_23
REMARK    3  A    between atoms: C_15  and  C_27
REMARK    4  A    between atoms: C_19  and  O_20
REMARK    5  A    between atoms: C_23  and  O_24
REMARK    6  A    between atoms: C_27  and  O_28
REMARK                            x       y       z     vdW  Elec       q    Type
REMARK                         _______ _______ _______ _____ _____    ______ ____
ROOT
ATOM      1  O   UNL     1     -34.804  24.298   4.738  0.00  0.00    -0.451 OA
ATOM      2  N   UNL     1     -39.192  25.613   3.651  0.00  0.00    -0.321 N 
ATOM      3  N   UNL     1     -37.126  21.466   1.767  0.00  0.00    -0.400 NA
ATOM      4  N   UNL     1     -36.540  25.804   4.992  0.00  0.00    -0.226 NA
ATOM      5  C   UNL     1     -38.374  23.555   2.585  0.00  0.00    +0.037 C 
ATOM      6  C   UNL     1     -38.146  24.720   3.505  0.00  0.00    +0.138 C 
ATOM      7  C   UNL     1     -37.240  22.574   2.447  0.00  0.00    +0.129 C 
ATOM      8  C   UNL     1     -35.985  22.848   3.204  0.00  0.00    +0.050 C 
ATOM      9  C   UNL     1     -36.963  24.843   4.130  0.00  0.00    +0.113 C 
ATOM     10  C   UNL     1     -35.886  23.920   3.982  0.00  0.00    +0.155 C 
ATOM     11  C   UNL     1     -39.566  23.442   1.943  0.00  0.00    +0.077 C 
ATOM     12  C   UNL     1     -35.118  21.768   2.873  0.00  0.00    +0.098 C 
ATOM     13  C   UNL     1     -40.388  25.466   2.997  0.00  0.00    +0.122 C 
ATOM     14  C   UNL     1     -40.619  24.439   2.165  0.00  0.00    +0.027 C 
ATOM     15  C   UNL     1     -35.846  21.010   2.040  0.00  0.00    +0.189 C 
ATOM     16  C   UNL     1     -35.339  25.432   5.281  0.00  0.00    +0.337 C 
ATOM     17  H   UNL     1     -39.073  26.386   4.249  0.00  0.00    +0.148 HD
ENDROOT
BRANCH  11  19
ATOM     18  O   UNL     1     -40.393  21.304   1.342  0.00  0.00    -0.245 OA
ATOM     19  C   UNL     1     -39.905  22.364   0.998  0.00  0.00    +0.341 C 
BRANCH  19  20
ATOM     20  O   UNL     1     -39.580  22.773  -0.251  0.00  0.00    -0.441 OA
ATOM     21  C   UNL     1     -39.291  21.721  -1.177  0.00  0.00    +0.256 C 
ENDBRANCH  19  20
ENDBRANCH  11  19
BRANCH  13  23
ATOM     22  O   UNL     1     -41.334  27.411   3.967  0.00  0.00    -0.243 OA
ATOM     23  C   UNL     1     -41.442  26.457   3.211  0.00  0.00    +0.355 C 
BRANCH  23  24
ATOM     24  O   UNL     1     -42.511  26.129   2.439  0.00  0.00    -0.440 OA
ATOM     25  C   UNL     1     -43.733  26.800   2.766  0.00  0.00    +0.256 C 
ENDBRANCH  23  24
ENDBRANCH  13  23
BRANCH  15  27
ATOM     26  O   UNL     1     -35.918  19.140   0.587  0.00  0.00    -0.242 OA
ATOM     27  C   UNL     1     -35.334  19.780   1.455  0.00  0.00    +0.367 C 
BRANCH  27  28
ATOM     28  O   UNL     1     -34.135  19.482   2.024  0.00  0.00    -0.440 OA
ATOM     29  C   UNL     1     -33.266  18.653   1.245  0.00  0.00    +0.256 C 
ENDBRANCH  27  28
ENDBRANCH  15  27
TORSDOF 6
ENDMDL
MODEL 2
REMARK VINA RESULT:      -6.1      2.828      5.967
REMARK  Name = 192332
REMARK  6 active torsions:
REMARK  status: ('A' for Active; 'I' for Inactive)
REMARK    1  A    between atoms: C_11  and  C_19
REMARK    2  A    between atoms: C_13  and  C_23
REMARK    3  A    between atoms: C_15  and  C_27
REMARK    4  A    between atoms: C_19  and  O_20
REMARK    5  A    between atoms: C_23  and  O_24
REMARK    6  A    between atoms: C_27  and  O_28
REMARK                            x       y       z     vdW  Elec       q    Type
REMARK                         _______ _______ _______ _____ _____    ______ ____
ROOT
ATOM      1  O   UNL     1     -38.954  26.971   0.117  0.00  0.00    -0.451 OA
ATOM      2  N   UNL     1     -35.324  27.028   3.113  0.00  0.00    -0.321 N 
ATOM      3  N   UNL     1     -37.978  22.878   2.248  0.00  0.00    -0.400 NA
ATOM      4  N   UNL     1     -37.248  28.151   1.138  0.00  0.00    -0.226 NA
ATOM      5  C   UNL     1     -36.501  24.884   2.866  0.00  0.00    +0.037 C 
ATOM      6  C   UNL     1     -36.349  26.332   2.499  0.00  0.00    +0.138 C 
ATOM      7  C   UNL     1     -37.604  24.126   2.177  0.00  0.00    +0.129 C 
ATOM      8  C   UNL     1     -38.467  24.872   1.216  0.00  0.00    +0.050 C 
ATOM      9  C   UNL     1     -37.197  26.878   1.610  0.00  0.00    +0.113 C 
ATOM     10  C   UNL     1     -38.251  26.160   0.974  0.00  0.00    +0.155 C 
ATOM     11  C   UNL     1     -35.651  24.339   3.776  0.00  0.00    +0.077 C 
ATOM     12  C   UNL     1     -39.400  23.906   0.741  0.00  0.00    +0.098 C 
ATOM     13  C   UNL     1     -34.475  26.447   4.020  0.00  0.00    +0.122 C 
ATOM     14  C   UNL     1     -34.589  25.157   4.373  0.00  0.00    +0.027 C 
ATOM     15  C   UNL     1     -39.055  22.779   1.380  0.00  0.00    +0.189 C 
ATOM     16  C   UNL     1     -38.245  28.120   0.320  0.00  0.00    +0.337 C 
ATOM     17  H   UNL     1     -35.198  27.978   2.891  0.00  0.00    +0.148 HD
ENDROOT
BRANCH  11  19
ATOM     18  O   UNL     1     -35.348  21.999   3.562  0.00  0.00    -0.245 OA
ATOM     19  C   UNL     1     -35.710  22.942   4.240  0.00  0.00    +0.341 C 
BRANCH  19  20
ATOM     20  O   UNL     1     -36.218  22.931   5.495  0.00  0.00    -0.441 OA
ATOM     21  C   UNL     1     -35.509  22.108   6.427  0.00  0.00    +0.256 C 
ENDBRANCH  19  20
ENDBRANCH  11  19
BRANCH  13  23
ATOM     22  O   UNL     1     -33.129  28.384   4.251  0.00  0.00    -0.243 OA
ATOM     23  C   UNL     1     -33.415  27.255   4.622  0.00  0.00    +0.355 C 
BRANCH  23  24
ATOM     24  O   UNL     1     -32.842  26.544   5.627  0.00  0.00    -0.440 OA
ATOM     25  C   UNL     1     -32.583  27.278   6.829  0.00  0.00    +0.256 C 
ENDBRANCH  23  24
ENDBRANCH  13  23
BRANCH  15  27
ATOM     26  O   UNL     1     -40.489  21.005   2.022  0.00  0.00    -0.242 OA
ATOM     27  C   UNL     1     -39.760  21.522   1.181  0.00  0.00    +0.367 C 
BRANCH  27  28
ATOM     28  O   UNL     1     -39.475  21.043  -0.059  0.00  0.00    -0.440 OA
ATOM     29  C   UNL     1     -38.395  20.106  -0.130  0.00  0.00    +0.256 C 
ENDBRANCH  27  28
ENDBRANCH  15  27
TORSDOF 6
ENDMDL
MODEL 3
REMARK VINA RESULT:      -6.1      1.769      5.110
REMARK  Name = 192332
REMARK  6 active torsions:
REMARK  status: ('A' for Active; 'I' for Inactive)
REMARK    1  A    between atoms: C_11  and  C_19
REMARK    2  A    between atoms: C_13  and  C_23
REMARK    3  A    between atoms: C_15  and  C_27
REMARK    4  A    between atoms: C_19  and  O_20
REMARK    5  A    between atoms: C_23  and  O_24
REMARK    6  A    between atoms: C_27  and  O_28
REMARK                            x       y       z     vdW  Elec       q    Type
REMARK                         _______ _______ _______ _____ _____    ______ ____
ROOT
ATOM      1  O   UNL     1     -41.369  24.039   1.339  0.00  0.00    -0.451 OA
ATOM      2  N   UNL     1     -37.574  24.969   3.965  0.00  0.00    -0.321 N 
ATOM      3  N   UNL     1     -37.834  20.933   1.021  0.00  0.00    -0.400 NA
ATOM      4  N   UNL     1     -40.296  25.425   2.848  0.00  0.00    -0.226 NA
ATOM      5  C   UNL     1     -37.492  22.915   2.617  0.00  0.00    +0.037 C 
ATOM      6  C   UNL     1     -38.227  24.146   3.065  0.00  0.00    +0.138 C 
ATOM      7  C   UNL     1     -38.197  22.035   1.619  0.00  0.00    +0.129 C 
ATOM      8  C   UNL     1     -39.565  22.436   1.181  0.00  0.00    +0.050 C 
ATOM      9  C   UNL     1     -39.457  24.389   2.583  0.00  0.00    +0.113 C 
ATOM     10  C   UNL     1     -40.128  23.543   1.653  0.00  0.00    +0.155 C 
ATOM     11  C   UNL     1     -36.253  22.664   3.117  0.00  0.00    +0.077 C 
ATOM     12  C   UNL     1     -39.961  21.425   0.259  0.00  0.00    +0.098 C 
ATOM     13  C   UNL     1     -36.319  24.695   4.443  0.00  0.00    +0.122 C 
ATOM     14  C   UNL     1     -35.640  23.600   4.067  0.00  0.00    +0.027 C 
ATOM     15  C   UNL     1     -38.911  20.593   0.217  0.00  0.00    +0.189 C 
ATOM     16  C   UNL     1     -41.329  25.157   2.122  0.00  0.00    +0.337 C 
ATOM     17  H   UNL     1     -38.029  25.784   4.276  0.00  0.00    +0.148 HD
ENDROOT
BRANCH  11  19
ATOM     18  O   UNL     1     -35.479  20.444   3.413  0.00  0.00    -0.245 OA
ATOM     19  C   UNL     1     -35.441  21.483   2.780  0.00  0.00    +0.341 C 
BRANCH  19  20
ATOM     20  O   UNL     1     -34.694  21.776   1.689  0.00  0.00    -0.441 OA
ATOM     21  C   UNL     1     -34.205  20.641   0.967  0.00  0.00    +0.256 C 
ENDBRANCH  19  20
ENDBRANCH  11  19
BRANCH  13  23
ATOM     22  O   UNL     1     -36.330  26.432   6.056  0.00  0.00    -0.243 OA
ATOM     23  C   UNL     1     -35.702  25.620   5.393  0.00  0.00    +0.355 C 
BRANCH  23  24
ATOM     24  O   UNL     1     -34.360  25.409   5.398  0.00  0.00    -0.440 OA
ATOM     25  C   UNL     1     -33.590  26.364   6.138  0.00  0.00    +0.256 C 
ENDBRANCH  23  24
ENDBRANCH  13  23
BRANCH  15  27
ATOM     26  O   UNL     1     -39.882  18.937  -1.171  0.00  0.00    -0.242 OA
ATOM     27  C   UNL     1     -38.891  19.403  -0.620  0.00  0.00    +0.367 C 
BRANCH  27  28
ATOM     28  O   UNL     1     -37.621  18.920  -0.675  0.00  0.00    -0.440 OA
ATOM     29  C   UNL     1     -37.468  17.535  -0.346  0.00  0.00    +0.256 C 
ENDBRANCH  27  28
ENDBRANCH  15  27
TORSDOF 6
ENDMDL
MODEL 4
REMARK VINA RESULT:      -6.0      2.299      6.923
REMARK  Name = 192332
REMARK  6 active torsions:
REMARK  status: ('A' for Active; 'I' for Inactive)
REMARK    1  A    between atoms: C_11  and  C_19
REMARK    2  A    between atoms: C_13  and  C_23
REMARK    3  A    between atoms: C_15  and  C_27
REMARK    4  A    between atoms: C_19  and  O_20
REMARK    5  A    between atoms: C_23  and  O_24
REMARK    6  A    between atoms: C_27  and  O_28
REMARK                            x       y       z     vdW  Elec       q    Type
REMARK                         _______ _______ _______ _____ _____    ______ ____
ROOT
ATOM      1  O   UNL     1     -35.955  22.945   5.870  0.00  0.00    -0.451 OA
ATOM      2  N   UNL     1     -34.821  20.018   2.362  0.00  0.00    -0.321 N 
ATOM      3  N   UNL     1     -37.238  24.320   1.545  0.00  0.00    -0.400 NA
ATOM      4  N   UNL     1     -34.968  20.972   5.178  0.00  0.00    -0.226 NA
ATOM      5  C   UNL     1     -36.033  22.061   1.729  0.00  0.00    +0.037 C 
ATOM      6  C   UNL     1     -35.411  21.194   2.787  0.00  0.00    +0.138 C 
ATOM      7  C   UNL     1     -36.653  23.351   2.195  0.00  0.00    +0.129 C 
ATOM      8  C   UNL     1     -36.627  23.650   3.656  0.00  0.00    +0.050 C 
ATOM      9  C   UNL     1     -35.455  21.589   4.070  0.00  0.00    +0.113 C 
ATOM     10  C   UNL     1     -36.060  22.803   4.508  0.00  0.00    +0.155 C 
ATOM     11  C   UNL     1     -35.999  21.652   0.434  0.00  0.00    +0.077 C 
ATOM     12  C   UNL     1     -37.279  24.910   3.780  0.00  0.00    +0.098 C 
ATOM     13  C   UNL     1     -34.794  19.637   1.045  0.00  0.00    +0.122 C 
ATOM     14  C   UNL     1     -35.345  20.387   0.078  0.00  0.00    +0.027 C 
ATOM     15  C   UNL     1     -37.602  25.235   2.520  0.00  0.00    +0.189 C 
ATOM     16  C   UNL     1     -35.285  21.784   6.129  0.00  0.00    +0.337 C 
ATOM     17  H   UNL     1     -34.404  19.430   3.031  0.00  0.00    +0.148 HD
ENDROOT
BRANCH  11  19
ATOM     18  O   UNL     1     -37.755  22.275  -1.031  0.00  0.00    -0.245 OA
ATOM     19  C   UNL     1     -36.593  22.395  -0.691  0.00  0.00    +0.341 C 
BRANCH  19  20
ATOM     20  O   UNL     1     -35.637  23.188  -1.230  0.00  0.00    -0.441 OA
ATOM     21  C   UNL     1     -36.127  24.334  -1.934  0.00  0.00    +0.256 C 
ENDBRANCH  19  20
ENDBRANCH  11  19
BRANCH  13  23
ATOM     22  O   UNL     1     -34.586  17.606  -0.160  0.00  0.00    -0.243 OA
ATOM     23  C   UNL     1     -34.147  18.377   0.682  0.00  0.00    +0.355 C 
BRANCH  23  24
ATOM     24  O   UNL     1     -33.018  18.237   1.423  0.00  0.00    -0.440 OA
ATOM     25  C   UNL     1     -31.815  18.709   0.805  0.00  0.00    +0.256 C 
ENDBRANCH  23  24
ENDBRANCH  13  23
BRANCH  15  27
ATOM     26  O   UNL     1     -37.836  27.331   1.440  0.00  0.00    -0.242 OA
ATOM     27  C   UNL     1     -38.293  26.471   2.186  0.00  0.00    +0.367 C 
BRANCH  27  28
ATOM     28  O   UNL     1     -39.493  26.498   2.826  0.00  0.00    -0.440 OA
ATOM     29  C   UNL     1     -40.567  25.825   2.163  0.00  0.00    +0.256 C 
ENDBRANCH  27  28
ENDBRANCH  15  27
TORSDOF 6
ENDMDL
MODEL 5
REMARK VINA RESULT:      -5.8      2.635      5.907
REMARK  Name = 192332
REMARK  6 active torsions:
REMARK  status: ('A' for Active; 'I' for Inactive)
REMARK    1  A    between atoms: C_11  and  C_19
REMARK    2  A    between atoms: C_13  and  C_23
REMARK    3  A    between atoms: C_15  and  C_27
REMARK    4  A    between atoms: C_19  and  O_20
REMARK    5  A    between atoms: C_23  and  O_24
REMARK    6  A    between atoms: C_27  and  O_28
REMARK                            x       y       z     vdW  Elec       q    Type
REMARK                         _______ _______ _______ _____ _____    ______ ____
ROOT
ATOM      1  O   UNL     1     -34.561  18.047  -0.136  0.00  0.00    -0.451 OA
ATOM      2  N   UNL     1     -35.327  21.607   2.848  0.00  0.00    -0.321 N 
ATOM      3  N   UNL     1     -38.912  19.864  -0.173  0.00  0.00    -0.400 NA
ATOM      4  N   UNL     1     -33.756  19.464   1.505  0.00  0.00    -0.226 NA
ATOM      5  C   UNL     1     -37.226  20.936   1.439  0.00  0.00    +0.037 C 
ATOM      6  C   UNL     1     -35.797  20.756   1.864  0.00  0.00    +0.138 C 
ATOM      7  C   UNL     1     -37.739  19.992   0.384  0.00  0.00    +0.129 C 
ATOM      8  C   UNL     1     -36.791  18.983  -0.169  0.00  0.00    +0.050 C 
ATOM      9  C   UNL     1     -35.054  19.799   1.283  0.00  0.00    +0.113 C 
ATOM     10  C   UNL     1     -35.539  18.920   0.272  0.00  0.00    +0.155 C 
ATOM     11  C   UNL     1     -37.971  21.914   2.018  0.00  0.00    +0.077 C 
ATOM     12  C   UNL     1     -37.553  18.256  -1.128  0.00  0.00    +0.098 C 
ATOM     13  C   UNL     1     -36.107  22.578   3.421  0.00  0.00    +0.122 C 
ATOM     14  C   UNL     1     -37.385  22.767   3.058  0.00  0.00    +0.027 C 
ATOM     15  C   UNL     1     -38.767  18.820  -1.073  0.00  0.00    +0.189 C 
ATOM     16  C   UNL     1     -33.560  18.489   0.682  0.00  0.00    +0.337 C 
ATOM     17  H   UNL     1     -34.394  21.512   3.148  0.00  0.00    +0.148 HD
ENDROOT
BRANCH  11  19
ATOM     18  O   UNL     1     -40.318  21.627   2.169  0.00  0.00    -0.245 OA
ATOM     19  C   UNL     1     -39.372  22.209   1.673  0.00  0.00    +0.341 C 
BRANCH  19  20
ATOM     20  O   UNL     1     -39.384  23.199   0.749  0.00  0.00    -0.441 OA
ATOM     21  C   UNL     1     -40.361  24.223   0.972  0.00  0.00    +0.256 C 
ENDBRANCH  19  20
ENDBRANCH  11  19
BRANCH  13  23
ATOM     22  O   UNL     1     -34.661  24.268   4.242  0.00  0.00    -0.243 OA
ATOM     23  C   UNL     1     -35.530  23.435   4.456  0.00  0.00    +0.355 C 
BRANCH  23  24
ATOM     24  O   UNL     1     -36.120  23.142   5.644  0.00  0.00    -0.440 OA
ATOM     25  C   UNL     1     -35.531  22.059   6.373  0.00  0.00    +0.256 C 
ENDBRANCH  23  24
ENDBRANCH  13  23
BRANCH  15  27
ATOM     26  O   UNL     1     -39.745  17.942  -3.046  0.00  0.00    -0.242 OA
ATOM     27  C   UNL     1     -39.875  18.371  -1.904  0.00  0.00    +0.367 C 
BRANCH  27  28
ATOM     28  O   UNL     1     -41.036  18.510  -1.210  0.00  0.00    -0.440 OA
ATOM     29  C   UNL     1     -42.173  18.921  -1.976  0.00  0.00    +0.256 C 
ENDBRANCH  27  28
ENDBRANCH  15  27
TORSDOF 6
ENDMDL
MODEL 6
REMARK VINA RESULT:      -5.8      4.143      7.365
REMARK  Name = 192332
REMARK  6 active torsions:
REMARK  status: ('A' for Active; 'I' for Inactive)
REMARK    1  A    between atoms: C_11  and  C_19
REMARK    2  A    between atoms: C_13  and  C_23
REMARK    3  A    between atoms: C_15  and  C_27
REMARK    4  A    between atoms: C_19  and  O_20
REMARK    5  A    between atoms: C_23  and  O_24
REMARK    6  A    between atoms: C_27  and  O_28
REMARK                            x       y       z     vdW  Elec       q    Type
REMARK                         _______ _______ _______ _____ _____    ______ ____
ROOT
ATOM      1  O   UNL     1     -32.723  29.104   3.768  0.00  0.00    -0.451 OA
ATOM      2  N   UNL     1     -34.872  24.921   3.966  0.00  0.00    -0.321 N 
ATOM      3  N   UNL     1     -36.772  28.753   1.374  0.00  0.00    -0.400 NA
ATOM      4  N   UNL     1     -32.747  26.925   4.541  0.00  0.00    -0.226 NA
ATOM      5  C   UNL     1     -36.003  26.667   2.657  0.00  0.00    +0.037 C 
ATOM      6  C   UNL     1     -34.850  26.227   3.512  0.00  0.00    +0.138 C 
ATOM      7  C   UNL     1     -35.961  28.082   2.146  0.00  0.00    +0.129 C 
ATOM      8  C   UNL     1     -34.805  28.935   2.548  0.00  0.00    +0.050 C 
ATOM      9  C   UNL     1     -33.869  27.101   3.794  0.00  0.00    +0.113 C 
ATOM     10  C   UNL     1     -33.843  28.446   3.323  0.00  0.00    +0.155 C 
ATOM     11  C   UNL     1     -37.000  25.785   2.385  0.00  0.00    +0.077 C 
ATOM     12  C   UNL     1     -35.047  30.193   1.925  0.00  0.00    +0.098 C 
ATOM     13  C   UNL     1     -35.889  24.051   3.666  0.00  0.00    +0.122 C 
ATOM     14  C   UNL     1     -36.935  24.416   2.909  0.00  0.00    +0.027 C 
ATOM     15  C   UNL     1     -36.199  30.011   1.264  0.00  0.00    +0.189 C 
ATOM     16  C   UNL     1     -32.169  28.077   4.477  0.00  0.00    +0.337 C 
ATOM     17  H   UNL     1     -34.130  24.602   4.528  0.00  0.00    +0.148 HD
ENDROOT
BRANCH  11  19
ATOM     18  O   UNL     1     -38.272  25.880   0.388  0.00  0.00    -0.245 OA
ATOM     19  C   UNL     1     -38.195  26.098   1.582  0.00  0.00    +0.341 C 
BRANCH  19  20
ATOM     20  O   UNL     1     -39.126  26.645   2.399  0.00  0.00    -0.441 OA
ATOM     21  C   UNL     1     -40.447  26.112   2.253  0.00  0.00    +0.256 C 
ENDBRANCH  19  20
ENDBRANCH  11  19
BRANCH  13  23
ATOM     22  O   UNL     1     -35.493  21.718   3.522  0.00  0.00    -0.243 OA
ATOM     23  C   UNL     1     -35.834  22.685   4.187  0.00  0.00    +0.355 C 
BRANCH  23  24
ATOM     24  O   UNL     1     -36.212  22.700   5.492  0.00  0.00    -0.440 OA
ATOM     25  C   UNL     1     -35.305  22.070   6.403  0.00  0.00    +0.256 C 
ENDBRANCH  23  24
ENDBRANCH  13  23
BRANCH  15  27
ATOM     26  O   UNL     1     -36.289  31.592  -0.499  0.00  0.00    -0.242 OA
ATOM     27  C   UNL     1     -36.819  31.064   0.473  0.00  0.00    +0.367 C 
BRANCH  27  28
ATOM     28  O   UNL     1     -38.046  31.344   0.989  0.00  0.00    -0.440 OA
ATOM     29  C   UNL     1     -38.182  32.629   1.603  0.00  0.00    +0.256 C 
ENDBRANCH  27  28
ENDBRANCH  15  27
TORSDOF 6
ENDMDL
MODEL 7
REMARK VINA RESULT:      -5.8      2.945      5.836
REMARK  Name = 192332
REMARK  6 active torsions:
REMARK  status: ('A' for Active; 'I' for Inactive)
REMARK    1  A    between atoms: C_11  and  C_19
REMARK    2  A    between atoms: C_13  and  C_23
REMARK    3  A    between atoms: C_15  and  C_27
REMARK    4  A    between atoms: C_19  and  O_20
REMARK    5  A    between atoms: C_23  and  O_24
REMARK    6  A    between atoms: C_27  and  O_28
REMARK                            x       y       z     vdW  Elec       q    Type
REMARK                         _______ _______ _______ _____ _____    ______ ____
ROOT
ATOM      1  O   UNL     1     -37.128  28.681   0.989  0.00  0.00    -0.451 OA
ATOM      2  N   UNL     1     -39.028  24.388   1.335  0.00  0.00    -0.321 N 
ATOM      3  N   UNL     1     -34.808  25.617   3.722  0.00  0.00    -0.400 NA
ATOM      4  N   UNL     1     -38.820  27.213   0.417  0.00  0.00    -0.226 NA
ATOM      5  C   UNL     1     -36.936  24.758   2.571  0.00  0.00    +0.037 C 
ATOM      6  C   UNL     1     -38.020  25.274   1.668  0.00  0.00    +0.138 C 
ATOM      7  C   UNL     1     -35.854  25.734   2.950  0.00  0.00    +0.129 C 
ATOM      8  C   UNL     1     -35.926  27.110   2.382  0.00  0.00    +0.050 C 
ATOM      9  C   UNL     1     -37.963  26.543   1.232  0.00  0.00    +0.113 C 
ATOM     10  C   UNL     1     -36.926  27.458   1.579  0.00  0.00    +0.155 C 
ATOM     11  C   UNL     1     -36.988  23.469   2.999  0.00  0.00    +0.077 C 
ATOM     12  C   UNL     1     -34.786  27.781   2.909  0.00  0.00    +0.098 C 
ATOM     13  C   UNL     1     -39.059  23.095   1.791  0.00  0.00    +0.122 C 
ATOM     14  C   UNL     1     -38.103  22.604   2.594  0.00  0.00    +0.027 C 
ATOM     15  C   UNL     1     -34.190  26.856   3.674  0.00  0.00    +0.189 C 
ATOM     16  C   UNL     1     -38.288  28.385   0.331  0.00  0.00    +0.337 C 
ATOM     17  H   UNL     1     -39.753  24.697   0.745  0.00  0.00    +0.148 HD
ENDROOT
BRANCH  11  19
ATOM     18  O   UNL     1     -35.002  22.253   3.433  0.00  0.00    -0.245 OA
ATOM     19  C   UNL     1     -35.978  22.837   3.865  0.00  0.00    +0.341 C 
BRANCH  19  20
ATOM     20  O   UNL     1     -36.341  23.029   5.155  0.00  0.00    -0.441 OA
ATOM     21  C   UNL     1     -35.472  22.432   6.123  0.00  0.00    +0.256 C 
ENDBRANCH  19  20
ENDBRANCH  11  19
BRANCH  13  23
ATOM     22  O   UNL     1     -40.283  21.066   1.758  0.00  0.00    -0.243 OA
ATOM     23  C   UNL     1     -40.163  22.225   1.390  0.00  0.00    +0.355 C 
BRANCH  23  24
ATOM     24  O   UNL     1     -40.993  22.923   0.572  0.00  0.00    -0.440 OA
ATOM     25  C   UNL     1     -41.198  22.353  -0.726  0.00  0.00    +0.256 C 
ENDBRANCH  23  24
ENDBRANCH  13  23
BRANCH  15  27
ATOM     26  O   UNL     1     -31.847  27.123   3.916  0.00  0.00    -0.242 OA
ATOM     27  C   UNL     1     -32.967  27.127   4.416  0.00  0.00    +0.367 C 
BRANCH  27  28
ATOM     28  O   UNL     1     -33.282  27.374   5.716  0.00  0.00    -0.440 OA
ATOM     29  C   UNL     1     -32.198  27.805   6.547  0.00  0.00    +0.256 C 
ENDBRANCH  27  28
ENDBRANCH  15  27
TORSDOF 6
ENDMDL
MODEL 8
REMARK VINA RESULT:      -5.7      3.781      4.961
REMARK  Name = 192332
REMARK  6 active torsions:
REMARK  status: ('A' for Active; 'I' for Inactive)
REMARK    1  A    between atoms: C_11  and  C_19
REMARK    2  A    between atoms: C_13  and  C_23
REMARK    3  A    between atoms: C_15  and  C_27
REMARK    4  A    between atoms: C_19  and  O_20
REMARK    5  A    between atoms: C_23  and  O_24
REMARK    6  A    between atoms: C_27  and  O_28
REMARK                            x       y       z     vdW  Elec       q    Type
REMARK                         _______ _______ _______ _____ _____    ______ ____
ROOT
ATOM      1  O   UNL     1     -32.439  27.081   5.389  0.00  0.00    -0.451 OA
ATOM      2  N   UNL     1     -35.270  28.926   2.112  0.00  0.00    -0.321 N 
ATOM      3  N   UNL     1     -36.006  24.341   3.971  0.00  0.00    -0.400 NA
ATOM      4  N   UNL     1     -32.981  28.860   4.014  0.00  0.00    -0.226 NA
ATOM      5  C   UNL     1     -35.806  26.646   2.858  0.00  0.00    +0.037 C 
ATOM      6  C   UNL     1     -34.935  27.867   2.936  0.00  0.00    +0.138 C 
ATOM      7  C   UNL     1     -35.450  25.506   3.775  0.00  0.00    +0.129 C 
ATOM      8  C   UNL     1     -34.259  25.666   4.657  0.00  0.00    +0.050 C 
ATOM      9  C   UNL     1     -33.892  27.878   3.783  0.00  0.00    +0.113 C 
ATOM     10  C   UNL     1     -33.549  26.789   4.635  0.00  0.00    +0.155 C 
ATOM     11  C   UNL     1     -36.852  26.632   1.991  0.00  0.00    +0.077 C 
ATOM     12  C   UNL     1     -34.180  24.445   5.387  0.00  0.00    +0.098 C 
ATOM     13  C   UNL     1     -36.339  28.886   1.254  0.00  0.00    +0.122 C 
ATOM     14  C   UNL     1     -37.132  27.807   1.157  0.00  0.00    +0.027 C 
ATOM     15  C   UNL     1     -35.221  23.731   4.938  0.00  0.00    +0.189 C 
ATOM     16  C   UNL     1     -32.213  28.341   4.912  0.00  0.00    +0.337 C 
ATOM     17  H   UNL     1     -34.720  29.741   2.141  0.00  0.00    +0.148 HD
ENDROOT
BRANCH  11  19
ATOM     18  O   UNL     1     -37.554  24.595   1.004  0.00  0.00    -0.245 OA
ATOM     19  C   UNL     1     -37.763  25.490   1.801  0.00  0.00    +0.341 C 
BRANCH  19  20
ATOM     20  O   UNL     1     -38.812  25.638   2.644  0.00  0.00    -0.441 OA
ATOM     21  C   UNL     1     -39.476  24.421   3.002  0.00  0.00    +0.256 C 
ENDBRANCH  19  20
ENDBRANCH  11  19
BRANCH  13  23
ATOM     22  O   UNL     1     -36.037  30.297  -0.627  0.00  0.00    -0.243 OA
ATOM     23  C   UNL     1     -36.624  30.051   0.417  0.00  0.00    +0.355 C 
BRANCH  23  24
ATOM     24  O   UNL     1     -37.620  30.770   0.995  0.00  0.00    -0.440 OA
ATOM     25  C   UNL     1     -37.239  32.055   1.499  0.00  0.00    +0.256 C 
ENDBRANCH  23  24
ENDBRANCH  13  23
BRANCH  15  27
ATOM     26  O   UNL     1     -36.169  22.169   6.448  0.00  0.00    -0.242 OA
ATOM     27  C   UNL     1     -35.522  22.394   5.430  0.00  0.00    +0.367 C 
BRANCH  27  28
ATOM     28  O   UNL     1     -34.974  21.477   4.589  0.00  0.00    -0.440 OA
ATOM     29  C   UNL     1     -35.661  21.282   3.349  0.00  0.00    +0.256 C 
ENDBRANCH  27  28
ENDBRANCH  15  27
TORSDOF 6
ENDMDL
MODEL 9
REMARK VINA RESULT:      -5.7      3.567      6.541
REMARK  Name = 192332
REMARK  6 active torsions:
REMARK  status: ('A' for Active; 'I' for Inactive)
REMARK    1  A    between atoms: C_11  and  C_19
REMARK    2  A    between atoms: C_13  and  C_23
REMARK    3  A    between atoms: C_15  and  C_27
REMARK    4  A    between atoms: C_19  and  O_20
REMARK    5  A    between atoms: C_23  and  O_24
REMARK    6  A    between atoms: C_27  and  O_28
REMARK                            x       y       z     vdW  Elec       q    Type
REMARK                         _______ _______ _______ _____ _____    ______ ____
ROOT
ATOM      1  O   UNL     1     -33.070  24.338  -0.894  0.00  0.00    -0.451 OA
ATOM      2  N   UNL     1     -32.730  26.752   3.133  0.00  0.00    -0.321 N 
ATOM      3  N   UNL     1     -35.647  22.711   2.705  0.00  0.00    -0.400 NA
ATOM      4  N   UNL     1     -32.151  26.102   0.285  0.00  0.00    -0.226 NA
ATOM      5  C   UNL     1     -34.246  24.817   3.145  0.00  0.00    +0.037 C 
ATOM      6  C   UNL     1     -33.275  25.702   2.417  0.00  0.00    +0.138 C 
ATOM      7  C   UNL     1     -34.818  23.662   2.368  0.00  0.00    +0.129 C 
ATOM      8  C   UNL     1     -34.403  23.506   0.944  0.00  0.00    +0.050 C 
ATOM      9  C   UNL     1     -32.986  25.442   1.131  0.00  0.00    +0.113 C 
ATOM     10  C   UNL     1     -33.545  24.357   0.394  0.00  0.00    +0.155 C 
ATOM     11  C   UNL     1     -34.547  25.091   4.442  0.00  0.00    +0.077 C 
ATOM     12  C   UNL     1     -35.101  22.351   0.487  0.00  0.00    +0.098 C 
ATOM     13  C   UNL     1     -33.046  26.996   4.444  0.00  0.00    +0.122 C 
ATOM     14  C   UNL     1     -33.913  26.228   5.120  0.00  0.00    +0.027 C 
ATOM     15  C   UNL     1     -35.797  21.946   1.559  0.00  0.00    +0.189 C 
ATOM     16  C   UNL     1     -32.254  25.430  -0.811  0.00  0.00    +0.337 C 
ATOM     17  H   UNL     1     -32.089  27.348   2.683  0.00  0.00    +0.148 HD
ENDROOT
BRANCH  11  19
ATOM     18  O   UNL     1     -36.696  24.537   5.273  0.00  0.00    -0.245 OA
ATOM     19  C   UNL     1     -35.499  24.318   5.258  0.00  0.00    +0.341 C 
BRANCH  19  20
ATOM     20  O   UNL     1     -34.808  23.376   5.941  0.00  0.00    -0.441 OA
ATOM     21  C   UNL     1     -35.554  22.199   6.272  0.00  0.00    +0.256 C 
ENDBRANCH  19  20
ENDBRANCH  11  19
BRANCH  13  23
ATOM     22  O   UNL     1     -32.694  29.297   4.893  0.00  0.00    -0.243 OA
ATOM     23  C   UNL     1     -32.422  28.129   5.127  0.00  0.00    +0.355 C 
BRANCH  23  24
ATOM     24  O   UNL     1     -31.526  27.654   6.031  0.00  0.00    -0.440 OA
ATOM     25  C   UNL     1     -30.356  28.459   6.218  0.00  0.00    +0.256 C 
ENDBRANCH  23  24
ENDBRANCH  13  23
BRANCH  15  27
ATOM     26  O   UNL     1     -36.267  19.640   1.285  0.00  0.00    -0.242 OA
ATOM     27  C   UNL     1     -36.660  20.775   1.533  0.00  0.00    +0.367 C 
BRANCH  27  28
ATOM     28  O   UNL     1     -37.934  21.155   1.821  0.00  0.00    -0.440 OA
ATOM     29  C   UNL     1     -38.861  21.097   0.732  0.00  0.00    +0.256 C 
ENDBRANCH  27  28
ENDBRANCH  15  27
TORSDOF 6
ENDMDL
