MODEL 1
REMARK VINA RESULT:      -5.6      0.000      0.000
REMARK  Name = 6069240
REMARK  6 active torsions:
REMARK  status: ('A' for Active; 'I' for Inactive)
REMARK    1  A    between atoms: C_4  and  N_11
REMARK    2  A    between atoms: C_5  and  C_15
REMARK    3  A    between atoms: N_14  and  C_15
REMARK    4  A    between atoms: N_14  and  N_16
REMARK    5  A    between atoms: N_16  and  C_19
REMARK    6  A    between atoms: C_19  and  N_20
REMARK                            x       y       z     vdW  Elec       q    Type
REMARK                         _______ _______ _______ _____ _____    ______ ____
ROOT
ATOM      1  N   UNL     1     -35.130  20.919   4.629  0.00  0.00    -0.247 NA
ATOM      2  C   UNL     1     -35.967  23.607   4.602  0.00  0.00    +0.016 C 
ATOM      3  C   UNL     1     -36.090  22.814   3.443  0.00  0.00    +0.016 C 
ATOM      4  C   UNL     1     -36.390  24.945   4.563  0.00  0.00    +0.042 C 
ATOM      5  C   UNL     1     -35.658  21.488   3.520  0.00  0.00    +0.078 C 
ATOM      6  C   UNL     1     -36.632  23.368   2.271  0.00  0.00    +0.001 C 
ATOM      7  C   UNL     1     -35.424  23.037   5.760  0.00  0.00    +0.022 C 
ATOM      8  C   UNL     1     -36.928  25.486   3.394  0.00  0.00    +0.014 C 
ATOM      9  C   UNL     1     -37.049  24.699   2.250  0.00  0.00    +0.001 C 
ATOM     10  C   UNL     1     -35.027  21.709   5.719  0.00  0.00    +0.099 C 
ENDROOT
BRANCH   4  11
ATOM     11  N   UNL     1     -36.290  25.788   5.697  0.00  0.00    -0.357 N 
ATOM     12  H   UNL     1     -36.714  25.523   6.545  0.00  0.00    +0.142 HD
ATOM     13  H   UNL     1     -35.797  26.637   5.637  0.00  0.00    +0.142 HD
ENDBRANCH   4  11
BRANCH   5  14
ATOM     14  C   UNL     1     -35.735  20.576   2.384  0.00  0.00    +0.157 C 
BRANCH  14  15
ATOM     15  N   UNL     1     -34.724  20.357   1.595  0.00  0.00    -0.126 NA
BRANCH  15  16
ATOM     16  N   UNL     1     -34.010  19.245   1.892  0.00  0.00    -0.244 N 
ATOM     17  H   UNL     1     -34.338  18.629   2.587  0.00  0.00    +0.170 HD
BRANCH  16  19
ATOM     18  S   UNL     1     -32.164  20.041   0.150  0.00  0.00    -0.018 S 
ATOM     19  C   UNL     1     -32.836  18.964   1.237  0.00  0.00    +0.143 C 
BRANCH  19  20
ATOM     20  N   UNL     1     -32.242  17.763   1.516  0.00  0.00    -0.340 N 
ATOM     21  H   UNL     1     -31.459  17.727   2.110  0.00  0.00    +0.144 HD
ATOM     22  H   UNL     1     -32.599  16.935   1.122  0.00  0.00    +0.144 HD
ENDBRANCH  19  20
ENDBRANCH  16  19
ENDBRANCH  15  16
ENDBRANCH  14  15
ENDBRANCH   5  14
TORSDOF 6
ENDMDL
MODEL 2
REMARK VINA RESULT:      -5.5      2.303      2.944
REMARK  Name = 6069240
REMARK  6 active torsions:
REMARK  status: ('A' for Active; 'I' for Inactive)
REMARK    1  A    between atoms: C_4  and  N_11
REMARK    2  A    between atoms: C_5  and  C_15
REMARK    3  A    between atoms: N_14  and  C_15
REMARK    4  A    between atoms: N_14  and  N_16
REMARK    5  A    between atoms: N_16  and  C_19
REMARK    6  A    between atoms: C_19  and  N_20
REMARK                            x       y       z     vdW  Elec       q    Type
REMARK                         _______ _______ _______ _____ _____    ______ ____
ROOT
ATOM      1  N   UNL     1     -35.208  21.312   4.841  0.00  0.00    -0.247 NA
ATOM      2  C   UNL     1     -35.898  24.032   4.611  0.00  0.00    +0.016 C 
ATOM      3  C   UNL     1     -35.887  23.203   3.470  0.00  0.00    +0.016 C 
ATOM      4  C   UNL     1     -36.244  25.385   4.469  0.00  0.00    +0.042 C 
ATOM      5  C   UNL     1     -35.537  21.864   3.650  0.00  0.00    +0.078 C 
ATOM      6  C   UNL     1     -36.221  23.738   2.214  0.00  0.00    +0.001 C 
ATOM      7  C   UNL     1     -35.561  23.480   5.853  0.00  0.00    +0.022 C 
ATOM      8  C   UNL     1     -36.575  25.906   3.217  0.00  0.00    +0.014 C 
ATOM      9  C   UNL     1     -36.564  25.084   2.092  0.00  0.00    +0.001 C 
ATOM     10  C   UNL     1     -35.230  22.136   5.910  0.00  0.00    +0.099 C 
ENDROOT
BRANCH   4  11
ATOM     11  N   UNL     1     -36.272  26.263   5.580  0.00  0.00    -0.357 N 
ATOM     12  H   UNL     1     -36.019  27.207   5.467  0.00  0.00    +0.142 HD
ATOM     13  H   UNL     1     -36.544  25.929   6.465  0.00  0.00    +0.142 HD
ENDBRANCH   4  11
BRANCH   5  14
ATOM     14  C   UNL     1     -35.489  20.915   2.542  0.00  0.00    +0.157 C 
BRANCH  14  15
ATOM     15  N   UNL     1     -36.385  19.986   2.381  0.00  0.00    -0.126 NA
BRANCH  15  16
ATOM     16  N   UNL     1     -37.074  20.066   1.217  0.00  0.00    -0.244 N 
ATOM     17  H   UNL     1     -36.814  19.494   0.459  0.00  0.00    +0.170 HD
BRANCH  16  19
ATOM     18  S   UNL     1     -38.375  21.797  -0.329  0.00  0.00    -0.018 S 
ATOM     19  C   UNL     1     -38.131  20.932   1.081  0.00  0.00    +0.143 C 
BRANCH  19  20
ATOM     20  N   UNL     1     -38.974  21.055   2.152  0.00  0.00    -0.340 N 
ATOM     21  H   UNL     1     -38.736  20.648   3.015  0.00  0.00    +0.144 HD
ATOM     22  H   UNL     1     -39.820  21.550   2.058  0.00  0.00    +0.144 HD
ENDBRANCH  19  20
ENDBRANCH  16  19
ENDBRANCH  15  16
ENDBRANCH  14  15
ENDBRANCH   5  14
TORSDOF 6
ENDMDL
MODEL 3
REMARK VINA RESULT:      -5.5      4.220      7.053
REMARK  Name = 6069240
REMARK  6 active torsions:
REMARK  status: ('A' for Active; 'I' for Inactive)
REMARK    1  A    between atoms: C_4  and  N_11
REMARK    2  A    between atoms: C_5  and  C_15
REMARK    3  A    between atoms: N_14  and  C_15
REMARK    4  A    between atoms: N_14  and  N_16
REMARK    5  A    between atoms: N_16  and  C_19
REMARK    6  A    between atoms: C_19  and  N_20
REMARK                            x       y       z     vdW  Elec       q    Type
REMARK                         _______ _______ _______ _____ _____    ______ ____
ROOT
ATOM      1  N   UNL     1     -34.431  27.335   4.332  0.00  0.00    -0.247 NA
ATOM      2  C   UNL     1     -35.583  24.909   3.488  0.00  0.00    +0.016 C 
ATOM      3  C   UNL     1     -34.917  24.985   4.729  0.00  0.00    +0.016 C 
ATOM      4  C   UNL     1     -36.149  23.687   3.090  0.00  0.00    +0.042 C 
ATOM      5  C   UNL     1     -34.367  26.216   5.090  0.00  0.00    +0.078 C 
ATOM      6  C   UNL     1     -34.828  23.845   5.545  0.00  0.00    +0.001 C 
ATOM      7  C   UNL     1     -35.661  26.055   2.688  0.00  0.00    +0.022 C 
ATOM      8  C   UNL     1     -36.055  22.561   3.909  0.00  0.00    +0.014 C 
ATOM      9  C   UNL     1     -35.396  22.640   5.134  0.00  0.00    +0.001 C 
ATOM     10  C   UNL     1     -35.076  27.224   3.151  0.00  0.00    +0.099 C 
ENDROOT
BRANCH   4  11
ATOM     11  N   UNL     1     -36.829  23.553   1.855  0.00  0.00    -0.357 N 
ATOM     12  H   UNL     1     -37.217  22.685   1.599  0.00  0.00    +0.142 HD
ATOM     13  H   UNL     1     -36.913  24.327   1.253  0.00  0.00    +0.142 HD
ENDBRANCH   4  11
BRANCH   5  14
ATOM     14  C   UNL     1     -33.654  26.412   6.348  0.00  0.00    +0.157 C 
BRANCH  14  15
ATOM     15  N   UNL     1     -32.438  26.870   6.396  0.00  0.00    -0.126 NA
BRANCH  15  16
ATOM     16  N   UNL     1     -32.334  28.140   6.858  0.00  0.00    -0.244 N 
ATOM     17  H   UNL     1     -32.664  28.358   7.759  0.00  0.00    +0.170 HD
BRANCH  16  19
ATOM     18  S   UNL     1     -30.171  29.572   6.265  0.00  0.00    -0.018 S 
ATOM     19  C   UNL     1     -31.772  29.127   6.085  0.00  0.00    +0.143 C 
BRANCH  19  20
ATOM     20  N   UNL     1     -32.584  29.729   5.162  0.00  0.00    -0.340 N 
ATOM     21  H   UNL     1     -33.395  29.270   4.846  0.00  0.00    +0.144 HD
ATOM     22  H   UNL     1     -32.356  30.621   4.814  0.00  0.00    +0.144 HD
ENDBRANCH  19  20
ENDBRANCH  16  19
ENDBRANCH  15  16
ENDBRANCH  14  15
ENDBRANCH   5  14
TORSDOF 6
ENDMDL
MODEL 4
REMARK VINA RESULT:      -5.5      4.025      6.816
REMARK  Name = 6069240
REMARK  6 active torsions:
REMARK  status: ('A' for Active; 'I' for Inactive)
REMARK    1  A    between atoms: C_4  and  N_11
REMARK    2  A    between atoms: C_5  and  C_15
REMARK    3  A    between atoms: N_14  and  C_15
REMARK    4  A    between atoms: N_14  and  N_16
REMARK    5  A    between atoms: N_16  and  C_19
REMARK    6  A    between atoms: C_19  and  N_20
REMARK                            x       y       z     vdW  Elec       q    Type
REMARK                         _______ _______ _______ _____ _____    ______ ____
ROOT
ATOM      1  N   UNL     1     -34.600  26.236   3.637  0.00  0.00    -0.247 NA
ATOM      2  C   UNL     1     -35.208  23.490   3.510  0.00  0.00    +0.016 C 
ATOM      3  C   UNL     1     -34.851  24.082   4.739  0.00  0.00    +0.016 C 
ATOM      4  C   UNL     1     -35.506  22.118   3.473  0.00  0.00    +0.042 C 
ATOM      5  C   UNL     1     -34.561  25.448   4.736  0.00  0.00    +0.078 C 
ATOM      6  C   UNL     1     -34.798  23.297   5.903  0.00  0.00    +0.001 C 
ATOM      7  C   UNL     1     -35.255  24.288   2.361  0.00  0.00    +0.022 C 
ATOM      8  C   UNL     1     -35.451  21.348   4.636  0.00  0.00    +0.014 C 
ATOM      9  C   UNL     1     -35.097  21.936   5.848  0.00  0.00    +0.001 C 
ATOM     10  C   UNL     1     -34.946  25.635   2.479  0.00  0.00    +0.099 C 
ENDROOT
BRANCH   4  11
ATOM     11  N   UNL     1     -35.871  21.471   2.267  0.00  0.00    -0.357 N 
ATOM     12  H   UNL     1     -35.387  21.674   1.435  0.00  0.00    +0.142 HD
ATOM     13  H   UNL     1     -36.609  20.820   2.261  0.00  0.00    +0.142 HD
ENDBRANCH   4  11
BRANCH   5  14
ATOM     14  C   UNL     1     -34.178  26.165   5.947  0.00  0.00    +0.157 C 
BRANCH  14  15
ATOM     15  N   UNL     1     -32.987  26.659   6.118  0.00  0.00    -0.126 NA
BRANCH  15  16
ATOM     16  N   UNL     1     -32.807  27.892   5.583  0.00  0.00    -0.244 N 
ATOM     17  H   UNL     1     -33.397  28.195   4.856  0.00  0.00    +0.170 HD
BRANCH  16  19
ATOM     18  S   UNL     1     -31.844  30.366   5.743  0.00  0.00    -0.018 S 
ATOM     19  C   UNL     1     -31.815  28.722   6.042  0.00  0.00    +0.143 C 
BRANCH  19  20
ATOM     20  N   UNL     1     -30.801  28.142   6.756  0.00  0.00    -0.340 N 
ATOM     21  H   UNL     1     -30.281  28.678   7.396  0.00  0.00    +0.144 HD
ATOM     22  H   UNL     1     -30.594  27.188   6.629  0.00  0.00    +0.144 HD
ENDBRANCH  19  20
ENDBRANCH  16  19
ENDBRANCH  15  16
ENDBRANCH  14  15
ENDBRANCH   5  14
TORSDOF 6
ENDMDL
MODEL 5
REMARK VINA RESULT:      -5.5      2.815      6.437
REMARK  Name = 6069240
REMARK  6 active torsions:
REMARK  status: ('A' for Active; 'I' for Inactive)
REMARK    1  A    between atoms: C_4  and  N_11
REMARK    2  A    between atoms: C_5  and  C_15
REMARK    3  A    between atoms: N_14  and  C_15
REMARK    4  A    between atoms: N_14  and  N_16
REMARK    5  A    between atoms: N_16  and  C_19
REMARK    6  A    between atoms: C_19  and  N_20
REMARK                            x       y       z     vdW  Elec       q    Type
REMARK                         _______ _______ _______ _____ _____    ______ ____
ROOT
ATOM      1  N   UNL     1     -34.625  22.043   0.772  0.00  0.00    -0.247 NA
ATOM      2  C   UNL     1     -32.327  20.551   0.130  0.00  0.00    +0.016 C 
ATOM      3  C   UNL     1     -33.317  20.002   0.971  0.00  0.00    +0.016 C 
ATOM      4  C   UNL     1     -31.189  19.785  -0.174  0.00  0.00    +0.042 C 
ATOM      5  C   UNL     1     -34.433  20.793   1.252  0.00  0.00    +0.078 C 
ATOM      6  C   UNL     1     -33.154  18.707   1.490  0.00  0.00    +0.001 C 
ATOM      7  C   UNL     1     -32.506  21.843  -0.377  0.00  0.00    +0.022 C 
ATOM      8  C   UNL     1     -31.038  18.499   0.346  0.00  0.00    +0.014 C 
ATOM      9  C   UNL     1     -32.019  17.961   1.177  0.00  0.00    +0.001 C 
ATOM     10  C   UNL     1     -33.656  22.535  -0.029  0.00  0.00    +0.099 C 
ENDROOT
BRANCH   4  11
ATOM     11  N   UNL     1     -30.163  20.285  -1.013  0.00  0.00    -0.357 N 
ATOM     12  H   UNL     1     -30.160  21.234  -1.275  0.00  0.00    +0.142 HD
ATOM     13  H   UNL     1     -29.453  19.684  -1.335  0.00  0.00    +0.142 HD
ENDBRANCH   4  11
BRANCH   5  14
ATOM     14  C   UNL     1     -35.519  20.331   2.110  0.00  0.00    +0.157 C 
BRANCH  14  15
ATOM     15  N   UNL     1     -35.566  20.603   3.381  0.00  0.00    -0.126 NA
BRANCH  15  16
ATOM     16  N   UNL     1     -36.088  21.819   3.677  0.00  0.00    -0.244 N 
ATOM     17  H   UNL     1     -36.788  22.200   3.099  0.00  0.00    +0.170 HD
BRANCH  16  19
ATOM     18  S   UNL     1     -34.792  23.949   4.605  0.00  0.00    -0.018 S 
ATOM     19  C   UNL     1     -35.653  22.526   4.771  0.00  0.00    +0.143 C 
BRANCH  19  20
ATOM     20  N   UNL     1     -35.957  22.012   6.002  0.00  0.00    -0.340 N 
ATOM     21  H   UNL     1     -36.639  22.446   6.563  0.00  0.00    +0.144 HD
ATOM     22  H   UNL     1     -35.494  21.206   6.327  0.00  0.00    +0.144 HD
ENDBRANCH  19  20
ENDBRANCH  16  19
ENDBRANCH  15  16
ENDBRANCH  14  15
ENDBRANCH   5  14
TORSDOF 6
ENDMDL
MODEL 6
REMARK VINA RESULT:      -5.4      4.012      6.510
REMARK  Name = 6069240
REMARK  6 active torsions:
REMARK  status: ('A' for Active; 'I' for Inactive)
REMARK    1  A    between atoms: C_4  and  N_11
REMARK    2  A    between atoms: C_5  and  C_15
REMARK    3  A    between atoms: N_14  and  C_15
REMARK    4  A    between atoms: N_14  and  N_16
REMARK    5  A    between atoms: N_16  and  C_19
REMARK    6  A    between atoms: C_19  and  N_20
REMARK                            x       y       z     vdW  Elec       q    Type
REMARK                         _______ _______ _______ _____ _____    ______ ____
ROOT
ATOM      1  N   UNL     1     -35.142  26.631   5.178  0.00  0.00    -0.247 NA
ATOM      2  C   UNL     1     -35.372  24.166   3.838  0.00  0.00    +0.016 C 
ATOM      3  C   UNL     1     -34.721  25.253   3.219  0.00  0.00    +0.016 C 
ATOM      4  C   UNL     1     -35.474  22.948   3.148  0.00  0.00    +0.042 C 
ATOM      5  C   UNL     1     -34.639  26.449   3.935  0.00  0.00    +0.078 C 
ATOM      6  C   UNL     1     -34.186  25.104   1.928  0.00  0.00    +0.001 C 
ATOM      7  C   UNL     1     -35.899  24.335   5.124  0.00  0.00    +0.022 C 
ATOM      8  C   UNL     1     -34.939  22.810   1.867  0.00  0.00    +0.014 C 
ATOM      9  C   UNL     1     -34.296  23.886   1.258  0.00  0.00    +0.001 C 
ATOM     10  C   UNL     1     -35.758  25.569   5.739  0.00  0.00    +0.099 C 
ENDROOT
BRANCH   4  11
ATOM     11  N   UNL     1     -36.117  21.823   3.722  0.00  0.00    -0.357 N 
ATOM     12  H   UNL     1     -36.746  21.290   3.185  0.00  0.00    +0.142 HD
ATOM     13  H   UNL     1     -35.935  21.576   4.657  0.00  0.00    +0.142 HD
ENDBRANCH   4  11
BRANCH   5  14
ATOM     14  C   UNL     1     -33.991  27.638   3.394  0.00  0.00    +0.157 C 
BRANCH  14  15
ATOM     15  N   UNL     1     -33.277  28.439   4.130  0.00  0.00    -0.126 NA
BRANCH  15  16
ATOM     16  N   UNL     1     -32.322  27.823   4.867  0.00  0.00    -0.244 N 
ATOM     17  H   UNL     1     -31.746  27.145   4.446  0.00  0.00    +0.170 HD
BRANCH  16  19
ATOM     18  S   UNL     1     -31.446  29.575   6.667  0.00  0.00    -0.018 S 
ATOM     19  C   UNL     1     -32.145  28.133   6.193  0.00  0.00    +0.143 C 
BRANCH  19  20
ATOM     20  N   UNL     1     -32.567  27.207   7.108  0.00  0.00    -0.340 N 
ATOM     21  H   UNL     1     -33.194  27.468   7.820  0.00  0.00    +0.144 HD
ATOM     22  H   UNL     1     -32.244  26.278   7.054  0.00  0.00    +0.144 HD
ENDBRANCH  19  20
ENDBRANCH  16  19
ENDBRANCH  15  16
ENDBRANCH  14  15
ENDBRANCH   5  14
TORSDOF 6
ENDMDL
MODEL 7
REMARK VINA RESULT:      -5.4      3.404      6.061
REMARK  Name = 6069240
REMARK  6 active torsions:
REMARK  status: ('A' for Active; 'I' for Inactive)
REMARK    1  A    between atoms: C_4  and  N_11
REMARK    2  A    between atoms: C_5  and  C_15
REMARK    3  A    between atoms: N_14  and  C_15
REMARK    4  A    between atoms: N_14  and  N_16
REMARK    5  A    between atoms: N_16  and  C_19
REMARK    6  A    between atoms: C_19  and  N_20
REMARK                            x       y       z     vdW  Elec       q    Type
REMARK                         _______ _______ _______ _____ _____    ______ ____
ROOT
ATOM      1  N   UNL     1     -36.070  26.122   4.540  0.00  0.00    -0.247 NA
ATOM      2  C   UNL     1     -35.577  23.351   4.610  0.00  0.00    +0.016 C 
ATOM      3  C   UNL     1     -36.070  23.955   3.435  0.00  0.00    +0.016 C 
ATOM      4  C   UNL     1     -35.341  21.967   4.619  0.00  0.00    +0.042 C 
ATOM      5  C   UNL     1     -36.293  25.333   3.464  0.00  0.00    +0.078 C 
ATOM      6  C   UNL     1     -36.316  23.170   2.296  0.00  0.00    +0.001 C 
ATOM      7  C   UNL     1     -35.339  24.150   5.735  0.00  0.00    +0.022 C 
ATOM      8  C   UNL     1     -35.588  21.196   3.482  0.00  0.00    +0.014 C 
ATOM      9  C   UNL     1     -36.074  21.796   2.323  0.00  0.00    +0.001 C 
ATOM     10  C   UNL     1     -35.599  25.509   5.647  0.00  0.00    +0.099 C 
ENDROOT
BRANCH   4  11
ATOM     11  N   UNL     1     -34.846  21.307   5.772  0.00  0.00    -0.357 N 
ATOM     12  H   UNL     1     -35.185  21.554   6.662  0.00  0.00    +0.142 HD
ATOM     13  H   UNL     1     -34.164  20.604   5.682  0.00  0.00    +0.142 HD
ENDBRANCH   4  11
BRANCH   5  14
ATOM     14  C   UNL     1     -36.803  26.063   2.309  0.00  0.00    +0.157 C 
BRANCH  14  15
ATOM     15  N   UNL     1     -37.989  26.598   2.289  0.00  0.00    -0.126 NA
BRANCH  15  16
ATOM     16  N   UNL     1     -38.801  26.202   3.299  0.00  0.00    -0.244 N 
ATOM     17  H   UNL     1     -38.479  26.250   4.228  0.00  0.00    +0.170 HD
BRANCH  16  19
ATOM     18  S   UNL     1     -40.357  24.611   1.842  0.00  0.00    -0.018 S 
ATOM     19  C   UNL     1     -40.067  25.734   3.045  0.00  0.00    +0.143 C 
BRANCH  19  20
ATOM     20  N   UNL     1     -41.079  26.230   3.821  0.00  0.00    -0.340 N 
ATOM     21  H   UNL     1     -41.990  25.871   3.730  0.00  0.00    +0.144 HD
ATOM     22  H   UNL     1     -40.895  26.946   4.471  0.00  0.00    +0.144 HD
ENDBRANCH  19  20
ENDBRANCH  16  19
ENDBRANCH  15  16
ENDBRANCH  14  15
ENDBRANCH   5  14
TORSDOF 6
ENDMDL
MODEL 8
REMARK VINA RESULT:      -5.4      3.510      6.811
REMARK  Name = 6069240
REMARK  6 active torsions:
REMARK  status: ('A' for Active; 'I' for Inactive)
REMARK    1  A    between atoms: C_4  and  N_11
REMARK    2  A    between atoms: C_5  and  C_15
REMARK    3  A    between atoms: N_14  and  C_15
REMARK    4  A    between atoms: N_14  and  N_16
REMARK    5  A    between atoms: N_16  and  C_19
REMARK    6  A    between atoms: C_19  and  N_20
REMARK                            x       y       z     vdW  Elec       q    Type
REMARK                         _______ _______ _______ _____ _____    ______ ____
ROOT
ATOM      1  N   UNL     1     -35.252  25.666   2.380  0.00  0.00    -0.247 NA
ATOM      2  C   UNL     1     -35.443  23.035   3.361  0.00  0.00    +0.016 C 
ATOM      3  C   UNL     1     -35.185  24.104   4.243  0.00  0.00    +0.016 C 
ATOM      4  C   UNL     1     -35.533  21.732   3.876  0.00  0.00    +0.042 C 
ATOM      5  C   UNL     1     -35.101  25.386   3.694  0.00  0.00    +0.078 C 
ATOM      6  C   UNL     1     -35.021  23.854   5.615  0.00  0.00    +0.001 C 
ATOM      7  C   UNL     1     -35.602  23.304   1.996  0.00  0.00    +0.022 C 
ATOM      8  C   UNL     1     -35.370  21.494   5.241  0.00  0.00    +0.014 C 
ATOM      9  C   UNL     1     -35.114  22.554   6.110  0.00  0.00    +0.001 C 
ATOM     10  C   UNL     1     -35.498  24.618   1.566  0.00  0.00    +0.099 C 
ENDROOT
BRANCH   4  11
ATOM     11  N   UNL     1     -35.791  20.620   3.036  0.00  0.00    -0.357 N 
ATOM     12  H   UNL     1     -35.135  19.889   2.974  0.00  0.00    +0.142 HD
ATOM     13  H   UNL     1     -36.625  20.579   2.516  0.00  0.00    +0.142 HD
ENDBRANCH   4  11
BRANCH   5  14
ATOM     14  C   UNL     1     -34.836  26.566   4.510  0.00  0.00    +0.157 C 
BRANCH  14  15
ATOM     15  N   UNL     1     -34.300  27.646   4.020  0.00  0.00    -0.126 NA
BRANCH  15  16
ATOM     16  N   UNL     1     -35.160  28.440   3.338  0.00  0.00    -0.244 N 
ATOM     17  H   UNL     1     -36.067  28.114   3.137  0.00  0.00    +0.170 HD
BRANCH  16  19
ATOM     18  S   UNL     1     -33.552  29.917   1.818  0.00  0.00    -0.018 S 
ATOM     19  C   UNL     1     -34.785  29.695   2.925  0.00  0.00    +0.143 C 
BRANCH  19  20
ATOM     20  N   UNL     1     -35.466  30.754   3.460  0.00  0.00    -0.340 N 
ATOM     21  H   UNL     1     -35.634  30.793   4.429  0.00  0.00    +0.144 HD
ATOM     22  H   UNL     1     -35.788  31.478   2.876  0.00  0.00    +0.144 HD
ENDBRANCH  19  20
ENDBRANCH  16  19
ENDBRANCH  15  16
ENDBRANCH  14  15
ENDBRANCH   5  14
TORSDOF 6
ENDMDL
MODEL 9
REMARK VINA RESULT:      -5.3      2.312      3.556
REMARK  Name = 6069240
REMARK  6 active torsions:
REMARK  status: ('A' for Active; 'I' for Inactive)
REMARK    1  A    between atoms: C_4  and  N_11
REMARK    2  A    between atoms: C_5  and  C_15
REMARK    3  A    between atoms: N_14  and  C_15
REMARK    4  A    between atoms: N_14  and  N_16
REMARK    5  A    between atoms: N_16  and  C_19
REMARK    6  A    between atoms: C_19  and  N_20
REMARK                            x       y       z     vdW  Elec       q    Type
REMARK                         _______ _______ _______ _____ _____    ______ ____
ROOT
ATOM      1  N   UNL     1     -37.184  22.130   1.392  0.00  0.00    -0.247 NA
ATOM      2  C   UNL     1     -36.680  23.886   3.533  0.00  0.00    +0.016 C 
ATOM      3  C   UNL     1     -36.151  22.579   3.548  0.00  0.00    +0.016 C 
ATOM      4  C   UNL     1     -36.414  24.742   4.615  0.00  0.00    +0.042 C 
ATOM      5  C   UNL     1     -36.437  21.756   2.457  0.00  0.00    +0.078 C 
ATOM      6  C   UNL     1     -35.372  22.152   4.636  0.00  0.00    +0.001 C 
ATOM      7  C   UNL     1     -37.455  24.292   2.441  0.00  0.00    +0.022 C 
ATOM      8  C   UNL     1     -35.637  24.309   5.690  0.00  0.00    +0.014 C 
ATOM      9  C   UNL     1     -35.117  23.016   5.701  0.00  0.00    +0.001 C 
ATOM     10  C   UNL     1     -37.673  23.388   1.413  0.00  0.00    +0.099 C 
ENDROOT
BRANCH   4  11
ATOM     11  N   UNL     1     -36.919  26.065   4.653  0.00  0.00    -0.357 N 
ATOM     12  H   UNL     1     -37.463  26.405   3.907  0.00  0.00    +0.142 HD
ATOM     13  H   UNL     1     -36.726  26.643   5.425  0.00  0.00    +0.142 HD
ENDBRANCH   4  11
BRANCH   5  14
ATOM     14  C   UNL     1     -35.946  20.386   2.364  0.00  0.00    +0.157 C 
BRANCH  14  15
ATOM     15  N   UNL     1     -35.788  19.776   1.226  0.00  0.00    -0.126 NA
BRANCH  15  16
ATOM     16  N   UNL     1     -36.731  18.842   0.953  0.00  0.00    -0.244 N 
ATOM     17  H   UNL     1     -36.851  18.080   1.565  0.00  0.00    +0.170 HD
BRANCH  16  19
ATOM     18  S   UNL     1     -37.179  18.085  -1.557  0.00  0.00    -0.018 S 
ATOM     19  C   UNL     1     -37.522  18.943  -0.165  0.00  0.00    +0.143 C 
BRANCH  19  20
ATOM     20  N   UNL     1     -38.604  19.778  -0.086  0.00  0.00    -0.340 N 
ATOM     21  H   UNL     1     -38.678  20.418   0.657  0.00  0.00    +0.144 HD
ATOM     22  H   UNL     1     -39.307  19.738  -0.773  0.00  0.00    +0.144 HD
ENDBRANCH  19  20
ENDBRANCH  16  19
ENDBRANCH  15  16
ENDBRANCH  14  15
ENDBRANCH   5  14
TORSDOF 6
ENDMDL
