MODEL 1
REMARK VINA RESULT:      -6.7      0.000      0.000
REMARK  Name = 192490
REMARK  8 active torsions:
REMARK  status: ('A' for Active; 'I' for Inactive)
REMARK    1  A    between atoms: C_3  and  C_12
REMARK    2  A    between atoms: C_5  and  O_27
REMARK    3  A    between atoms: C_8  and  O_29
REMARK    4  A    between atoms: C_10  and  O_31
REMARK    5  A    between atoms: C_13  and  C_22
REMARK    6  A    between atoms: C_16  and  O_18
REMARK    7  A    between atoms: C_17  and  O_20
REMARK    8  A    between atoms: C_22  and  C_23
REMARK                            x       y       z     vdW  Elec       q    Type
REMARK                         _______ _______ _______ _____ _____    ______ ____
ROOT
ATOM      1  O   UNL     1     -35.753  25.734   2.040  0.00  0.00    -0.450 OA
ATOM      2  O   UNL     1     -39.656  26.855   1.699  0.00  0.00    -0.283 OA
ATOM      3  C   UNL     1     -36.757  25.082   2.738  0.00  0.00    +0.182 A 
ATOM      4  C   UNL     1     -37.416  27.198   1.047  0.00  0.00    +0.113 A 
ATOM      5  C   UNL     1     -38.062  25.402   2.677  0.00  0.00    +0.212 A 
ATOM      6  C   UNL     1     -36.101  26.769   1.210  0.00  0.00    +0.152 A 
ATOM      7  C   UNL     1     -38.484  26.518   1.795  0.00  0.00    +0.238 A 
ATOM      8  C   UNL     1     -37.711  28.259   0.187  0.00  0.00    +0.174 C 
ATOM      9  C   UNL     1     -35.069  27.399   0.512  0.00  0.00    +0.041 C 
ATOM     10  C   UNL     1     -36.678  28.887  -0.510  0.00  0.00    +0.168 C 
ATOM     11  C   UNL     1     -35.360  28.459  -0.348  0.00  0.00    +0.043 C 
ENDROOT
BRANCH   3  12
ATOM     12  C   UNL     1     -36.248  23.993   3.592  0.00  0.00    +0.037 C 
ATOM     13  C   UNL     1     -35.862  24.225   4.913  0.00  0.00    -0.012 C 
ATOM     14  C   UNL     1     -36.156  22.706   3.058  0.00  0.00    +0.043 C 
ATOM     15  C   UNL     1     -35.385  23.175   5.698  0.00  0.00    +0.036 C 
ATOM     16  C   UNL     1     -35.679  21.656   3.842  0.00  0.00    +0.168 C 
ATOM     17  C   UNL     1     -35.293  21.891   5.162  0.00  0.00    +0.167 C 
BRANCH  16  18
ATOM     18  O   UNL     1     -35.596  20.405   3.308  0.00  0.00    -0.503 OA
ATOM     19  H   UNL     1     -36.120  19.711   3.657  0.00  0.00    +0.292 HD
ENDBRANCH  16  18
BRANCH  17  20
ATOM     20  O   UNL     1     -34.826  20.873   5.937  0.00  0.00    -0.503 OA
ATOM     21  H   UNL     1     -34.828  20.956   6.871  0.00  0.00    +0.292 HD
ENDBRANCH  17  20
BRANCH  13  22
ATOM     22  C   UNL     1     -35.945  25.589   5.520  0.00  0.00    +0.052 C 
BRANCH  22  23
ATOM     23  C   UNL     1     -34.673  25.998   6.218  0.00  0.00    -0.030 C 
ATOM     24  C   UNL     1     -33.639  26.701   5.715  0.00  0.00    -0.048 C 
ATOM     25  C   UNL     1     -32.396  27.075   6.471  0.00  0.00    +0.026 C 
ATOM     26  C   UNL     1     -33.663  27.173   4.286  0.00  0.00    +0.026 C 
ENDBRANCH  22  23
ENDBRANCH  13  22
ENDBRANCH   3  12
BRANCH   5  27
ATOM     27  O   UNL     1     -39.032  24.753   3.411  0.00  0.00    -0.465 OA
ATOM     28  C   UNL     1     -39.696  23.785   2.620  0.00  0.00    +0.253 C 
ENDBRANCH   5  27
BRANCH   8  29
ATOM     29  O   UNL     1     -38.984  28.708  -0.000  0.00  0.00    -0.503 OA
ATOM     30  H   UNL     1     -39.297  29.444   0.489  0.00  0.00    +0.292 HD
ENDBRANCH   8  29
BRANCH  10  31
ATOM     31  O   UNL     1     -36.940  29.924  -1.355  0.00  0.00    -0.503 OA
ATOM     32  H   UNL     1     -36.516  30.750  -1.227  0.00  0.00    +0.292 HD
ENDBRANCH  10  31
TORSDOF 8
ENDMDL
MODEL 2
REMARK VINA RESULT:      -6.6      2.868      5.637
REMARK  Name = 192490
REMARK  8 active torsions:
REMARK  status: ('A' for Active; 'I' for Inactive)
REMARK    1  A    between atoms: C_3  and  C_12
REMARK    2  A    between atoms: C_5  and  O_27
REMARK    3  A    between atoms: C_8  and  O_29
REMARK    4  A    between atoms: C_10  and  O_31
REMARK    5  A    between atoms: C_13  and  C_22
REMARK    6  A    between atoms: C_16  and  O_18
REMARK    7  A    between atoms: C_17  and  O_20
REMARK    8  A    between atoms: C_22  and  C_23
REMARK                            x       y       z     vdW  Elec       q    Type
REMARK                         _______ _______ _______ _____ _____    ______ ____
ROOT
ATOM      1  O   UNL     1     -35.467  24.873   2.357  0.00  0.00    -0.450 OA
ATOM      2  O   UNL     1     -34.642  24.892   6.348  0.00  0.00    -0.283 OA
ATOM      3  C   UNL     1     -36.012  23.929   3.214  0.00  0.00    +0.182 A 
ATOM      4  C   UNL     1     -34.327  25.899   4.239  0.00  0.00    +0.113 A 
ATOM      5  C   UNL     1     -35.778  23.873   4.538  0.00  0.00    +0.212 A 
ATOM      6  C   UNL     1     -34.645  25.836   2.885  0.00  0.00    +0.152 A 
ATOM      7  C   UNL     1     -34.891  24.892   5.150  0.00  0.00    +0.238 A 
ATOM      8  C   UNL     1     -33.483  26.903   4.720  0.00  0.00    +0.174 C 
ATOM      9  C   UNL     1     -34.122  26.779   2.000  0.00  0.00    +0.041 C 
ATOM     10  C   UNL     1     -32.961  27.846   3.834  0.00  0.00    +0.168 C 
ATOM     11  C   UNL     1     -33.278  27.784   2.477  0.00  0.00    +0.043 C 
ENDROOT
BRANCH   3  12
ATOM     12  C   UNL     1     -36.873  22.954   2.520  0.00  0.00    +0.037 C 
ATOM     13  C   UNL     1     -36.338  21.831   1.888  0.00  0.00    -0.012 C 
ATOM     14  C   UNL     1     -38.253  23.169   2.502  0.00  0.00    +0.043 C 
ATOM     15  C   UNL     1     -37.177  20.925   1.241  0.00  0.00    +0.036 C 
ATOM     16  C   UNL     1     -39.093  22.264   1.854  0.00  0.00    +0.168 C 
ATOM     17  C   UNL     1     -38.555  21.141   1.223  0.00  0.00    +0.167 C 
BRANCH  16  18
ATOM     18  O   UNL     1     -40.437  22.485   1.845  0.00  0.00    -0.503 OA
ATOM     19  H   UNL     1     -40.769  23.347   1.689  0.00  0.00    +0.292 HD
ENDBRANCH  16  18
BRANCH  17  20
ATOM     20  O   UNL     1     -39.365  20.250   0.587  0.00  0.00    -0.503 OA
ATOM     21  H   UNL     1     -40.229  20.088   0.912  0.00  0.00    +0.292 HD
ENDBRANCH  17  20
BRANCH  13  22
ATOM     22  C   UNL     1     -34.866  21.567   1.885  0.00  0.00    +0.052 C 
BRANCH  22  23
ATOM     23  C   UNL     1     -34.534  20.098   1.817  0.00  0.00    -0.030 C 
ATOM     24  C   UNL     1     -33.525  19.505   1.150  0.00  0.00    -0.048 C 
ATOM     25  C   UNL     1     -33.253  18.027   1.125  0.00  0.00    +0.026 C 
ATOM     26  C   UNL     1     -32.563  20.328   0.336  0.00  0.00    +0.026 C 
ENDBRANCH  22  23
ENDBRANCH  13  22
ENDBRANCH   3  12
BRANCH   5  27
ATOM     27  O   UNL     1     -36.310  22.900   5.355  0.00  0.00    -0.465 OA
ATOM     28  C   UNL     1     -35.361  21.881   5.607  0.00  0.00    +0.253 C 
ENDBRANCH   5  27
BRANCH   8  29
ATOM     29  O   UNL     1     -33.148  27.000   6.038  0.00  0.00    -0.503 OA
ATOM     30  H   UNL     1     -33.524  27.675   6.568  0.00  0.00    +0.292 HD
ENDBRANCH   8  29
BRANCH  10  31
ATOM     31  O   UNL     1     -32.135  28.836   4.278  0.00  0.00    -0.503 OA
ATOM     32  H   UNL     1     -32.201  29.698   3.915  0.00  0.00    +0.292 HD
ENDBRANCH  10  31
TORSDOF 8
ENDMDL
MODEL 3
REMARK VINA RESULT:      -6.4      2.548      5.215
REMARK  Name = 192490
REMARK  8 active torsions:
REMARK  status: ('A' for Active; 'I' for Inactive)
REMARK    1  A    between atoms: C_3  and  C_12
REMARK    2  A    between atoms: C_5  and  O_27
REMARK    3  A    between atoms: C_8  and  O_29
REMARK    4  A    between atoms: C_10  and  O_31
REMARK    5  A    between atoms: C_13  and  C_22
REMARK    6  A    between atoms: C_16  and  O_18
REMARK    7  A    between atoms: C_17  and  O_20
REMARK    8  A    between atoms: C_22  and  C_23
REMARK                            x       y       z     vdW  Elec       q    Type
REMARK                         _______ _______ _______ _____ _____    ______ ____
ROOT
ATOM      1  O   UNL     1     -35.922  25.691   2.130  0.00  0.00    -0.450 OA
ATOM      2  O   UNL     1     -34.485  26.348   5.886  0.00  0.00    -0.283 OA
ATOM      3  C   UNL     1     -36.376  24.959   3.217  0.00  0.00    +0.182 A 
ATOM      4  C   UNL     1     -34.451  26.939   3.604  0.00  0.00    +0.113 A 
ATOM      5  C   UNL     1     -35.941  25.119   4.480  0.00  0.00    +0.212 A 
ATOM      6  C   UNL     1     -34.979  26.663   2.346  0.00  0.00    +0.152 A 
ATOM      7  C   UNL     1     -34.918  26.156   4.758  0.00  0.00    +0.238 A 
ATOM      8  C   UNL     1     -33.490  27.941   3.762  0.00  0.00    +0.174 C 
ATOM      9  C   UNL     1     -34.551  27.390   1.234  0.00  0.00    +0.041 C 
ATOM     10  C   UNL     1     -33.064  28.667   2.650  0.00  0.00    +0.168 C 
ATOM     11  C   UNL     1     -33.592  28.393   1.388  0.00  0.00    +0.043 C 
ENDROOT
BRANCH   3  12
ATOM     12  C   UNL     1     -37.384  23.950   2.848  0.00  0.00    +0.037 C 
ATOM     13  C   UNL     1     -38.736  24.281   2.735  0.00  0.00    -0.012 C 
ATOM     14  C   UNL     1     -36.969  22.639   2.609  0.00  0.00    +0.043 C 
ATOM     15  C   UNL     1     -39.669  23.305   2.384  0.00  0.00    +0.036 C 
ATOM     16  C   UNL     1     -37.901  21.662   2.258  0.00  0.00    +0.168 C 
ATOM     17  C   UNL     1     -39.252  21.996   2.145  0.00  0.00    +0.167 C 
BRANCH  16  18
ATOM     18  O   UNL     1     -37.481  20.387   2.026  0.00  0.00    -0.503 OA
ATOM     19  H   UNL     1     -37.154  20.149   1.181  0.00  0.00    +0.292 HD
ENDBRANCH  16  18
BRANCH  17  20
ATOM     20  O   UNL     1     -40.171  21.051   1.803  0.00  0.00    -0.503 OA
ATOM     21  H   UNL     1     -40.993  21.310   1.434  0.00  0.00    +0.292 HD
ENDBRANCH  17  20
BRANCH  13  22
ATOM     22  C   UNL     1     -39.220  25.674   2.985  0.00  0.00    +0.052 C 
BRANCH  22  23
ATOM     23  C   UNL     1     -40.360  26.068   2.081  0.00  0.00    -0.030 C 
ATOM     24  C   UNL     1     -41.561  26.568   2.430  0.00  0.00    -0.048 C 
ATOM     25  C   UNL     1     -42.657  26.941   1.471  0.00  0.00    +0.026 C 
ATOM     26  C   UNL     1     -41.903  26.787   3.880  0.00  0.00    +0.026 C 
ENDBRANCH  22  23
ENDBRANCH  13  22
ENDBRANCH   3  12
BRANCH   5  27
ATOM     27  O   UNL     1     -36.389  24.351   5.533  0.00  0.00    -0.465 OA
ATOM     28  C   UNL     1     -35.480  23.303   5.813  0.00  0.00    +0.253 C 
ENDBRANCH   5  27
BRANCH   8  29
ATOM     29  O   UNL     1     -32.949  28.241   4.977  0.00  0.00    -0.503 OA
ATOM     30  H   UNL     1     -32.106  27.903   5.209  0.00  0.00    +0.292 HD
ENDBRANCH   8  29
BRANCH  10  31
ATOM     31  O   UNL     1     -32.129  29.651   2.778  0.00  0.00    -0.503 OA
ATOM     32  H   UNL     1     -31.646  29.736   3.577  0.00  0.00    +0.292 HD
ENDBRANCH  10  31
TORSDOF 8
ENDMDL
MODEL 4
REMARK VINA RESULT:      -6.4      2.053      6.111
REMARK  Name = 192490
REMARK  8 active torsions:
REMARK  status: ('A' for Active; 'I' for Inactive)
REMARK    1  A    between atoms: C_3  and  C_12
REMARK    2  A    between atoms: C_5  and  O_27
REMARK    3  A    between atoms: C_8  and  O_29
REMARK    4  A    between atoms: C_10  and  O_31
REMARK    5  A    between atoms: C_13  and  C_22
REMARK    6  A    between atoms: C_16  and  O_18
REMARK    7  A    between atoms: C_17  and  O_20
REMARK    8  A    between atoms: C_22  and  C_23
REMARK                            x       y       z     vdW  Elec       q    Type
REMARK                         _______ _______ _______ _____ _____    ______ ____
ROOT
ATOM      1  O   UNL     1     -34.744  24.833   1.542  0.00  0.00    -0.450 OA
ATOM      2  O   UNL     1     -36.698  22.853   4.519  0.00  0.00    -0.283 OA
ATOM      3  C   UNL     1     -35.414  25.515   2.546  0.00  0.00    +0.182 A 
ATOM      4  C   UNL     1     -35.382  22.727   2.567  0.00  0.00    +0.113 A 
ATOM      5  C   UNL     1     -36.084  24.926   3.553  0.00  0.00    +0.212 A 
ATOM      6  C   UNL     1     -34.736  23.462   1.576  0.00  0.00    +0.152 A 
ATOM      7  C   UNL     1     -36.107  23.445   3.627  0.00  0.00    +0.238 A 
ATOM      8  C   UNL     1     -35.342  21.331   2.550  0.00  0.00    +0.174 C 
ATOM      9  C   UNL     1     -34.043  22.805   0.559  0.00  0.00    +0.041 C 
ATOM     10  C   UNL     1     -34.648  20.675   1.532  0.00  0.00    +0.168 C 
ATOM     11  C   UNL     1     -34.001  21.410   0.538  0.00  0.00    +0.043 C 
ENDROOT
BRANCH   3  12
ATOM     12  C   UNL     1     -35.344  26.979   2.391  0.00  0.00    +0.037 C 
ATOM     13  C   UNL     1     -34.317  27.723   2.975  0.00  0.00    -0.012 C 
ATOM     14  C   UNL     1     -36.328  27.625   1.641  0.00  0.00    +0.043 C 
ATOM     15  C   UNL     1     -34.276  29.108   2.811  0.00  0.00    +0.036 C 
ATOM     16  C   UNL     1     -36.288  29.009   1.477  0.00  0.00    +0.168 C 
ATOM     17  C   UNL     1     -35.261  29.751   2.062  0.00  0.00    +0.167 C 
BRANCH  16  18
ATOM     18  O   UNL     1     -37.255  29.626   0.742  0.00  0.00    -0.503 OA
ATOM     19  H   UNL     1     -37.991  30.016   1.170  0.00  0.00    +0.292 HD
ENDBRANCH  16  18
BRANCH  17  20
ATOM     20  O   UNL     1     -35.210  31.103   1.909  0.00  0.00    -0.503 OA
ATOM     21  H   UNL     1     -35.109  31.656   2.658  0.00  0.00    +0.292 HD
ENDBRANCH  17  20
BRANCH  13  22
ATOM     22  C   UNL     1     -33.245  27.068   3.786  0.00  0.00    +0.052 C 
BRANCH  22  23
ATOM     23  C   UNL     1     -32.394  28.058   4.540  0.00  0.00    -0.030 C 
ATOM     24  C   UNL     1     -32.157  28.110   5.865  0.00  0.00    -0.048 C 
ATOM     25  C   UNL     1     -31.293  29.129   6.552  0.00  0.00    +0.026 C 
ATOM     26  C   UNL     1     -32.785  27.102   6.791  0.00  0.00    +0.026 C 
ENDBRANCH  22  23
ENDBRANCH  13  22
ENDBRANCH   3  12
BRANCH   5  27
ATOM     27  O   UNL     1     -36.768  25.634   4.517  0.00  0.00    -0.465 OA
ATOM     28  C   UNL     1     -35.987  25.772   5.689  0.00  0.00    +0.253 C 
ENDBRANCH   5  27
BRANCH   8  29
ATOM     29  O   UNL     1     -35.960  20.575   3.501  0.00  0.00    -0.503 OA
ATOM     30  H   UNL     1     -36.103  19.661   3.352  0.00  0.00    +0.292 HD
ENDBRANCH   8  29
BRANCH  10  31
ATOM     31  O   UNL     1     -34.593  19.313   1.493  0.00  0.00    -0.503 OA
ATOM     32  H   UNL     1     -34.609  18.868   0.669  0.00  0.00    +0.292 HD
ENDBRANCH  10  31
TORSDOF 8
ENDMDL
MODEL 5
REMARK VINA RESULT:      -6.1      2.816      5.077
REMARK  Name = 192490
REMARK  8 active torsions:
REMARK  status: ('A' for Active; 'I' for Inactive)
REMARK    1  A    between atoms: C_3  and  C_12
REMARK    2  A    between atoms: C_5  and  O_27
REMARK    3  A    between atoms: C_8  and  O_29
REMARK    4  A    between atoms: C_10  and  O_31
REMARK    5  A    between atoms: C_13  and  C_22
REMARK    6  A    between atoms: C_16  and  O_18
REMARK    7  A    between atoms: C_17  and  O_20
REMARK    8  A    between atoms: C_22  and  C_23
REMARK                            x       y       z     vdW  Elec       q    Type
REMARK                         _______ _______ _______ _____ _____    ______ ____
ROOT
ATOM      1  O   UNL     1     -34.619  24.122   2.191  0.00  0.00    -0.450 OA
ATOM      2  O   UNL     1     -34.880  24.851   6.191  0.00  0.00    -0.283 OA
ATOM      3  C   UNL     1     -35.291  23.258   3.041  0.00  0.00    +0.182 A 
ATOM      4  C   UNL     1     -34.105  25.558   4.079  0.00  0.00    +0.113 A 
ATOM      5  C   UNL     1     -35.410  23.435   4.370  0.00  0.00    +0.212 A 
ATOM      6  C   UNL     1     -34.048  25.250   2.723  0.00  0.00    +0.152 A 
ATOM      7  C   UNL     1     -34.804  24.638   4.989  0.00  0.00    +0.238 A 
ATOM      8  C   UNL     1     -33.503  26.721   4.565  0.00  0.00    +0.174 C 
ATOM      9  C   UNL     1     -33.389  26.106   1.839  0.00  0.00    +0.041 C 
ATOM     10  C   UNL     1     -32.844  27.577   3.681  0.00  0.00    +0.168 C 
ATOM     11  C   UNL     1     -32.787  27.270   2.321  0.00  0.00    +0.043 C 
ENDROOT
BRANCH   3  12
ATOM     12  C   UNL     1     -35.856  22.090   2.343  0.00  0.00    +0.037 C 
ATOM     13  C   UNL     1     -37.196  22.053   1.953  0.00  0.00    -0.012 C 
ATOM     14  C   UNL     1     -35.024  21.002   2.070  0.00  0.00    +0.043 C 
ATOM     15  C   UNL     1     -37.703  20.934   1.293  0.00  0.00    +0.036 C 
ATOM     16  C   UNL     1     -35.531  19.882   1.410  0.00  0.00    +0.168 C 
ATOM     17  C   UNL     1     -36.870  19.849   1.022  0.00  0.00    +0.167 C 
BRANCH  16  18
ATOM     18  O   UNL     1     -34.707  18.829   1.149  0.00  0.00    -0.503 OA
ATOM     19  H   UNL     1     -33.798  18.976   0.979  0.00  0.00    +0.292 HD
ENDBRANCH  16  18
BRANCH  17  20
ATOM     20  O   UNL     1     -37.376  18.761   0.377  0.00  0.00    -0.503 OA
ATOM     21  H   UNL     1     -37.527  18.793  -0.547  0.00  0.00    +0.292 HD
ENDBRANCH  17  20
BRANCH  13  22
ATOM     22  C   UNL     1     -38.118  23.198   2.229  0.00  0.00    +0.052 C 
BRANCH  22  23
ATOM     23  C   UNL     1     -38.055  24.268   1.169  0.00  0.00    -0.030 C 
ATOM     24  C   UNL     1     -37.827  25.586   1.332  0.00  0.00    -0.048 C 
ATOM     25  C   UNL     1     -37.778  26.601   0.225  0.00  0.00    +0.026 C 
ATOM     26  C   UNL     1     -37.608  26.156   2.708  0.00  0.00    +0.026 C 
ENDBRANCH  22  23
ENDBRANCH  13  22
ENDBRANCH   3  12
BRANCH   5  27
ATOM     27  O   UNL     1     -36.058  22.538   5.192  0.00  0.00    -0.465 OA
ATOM     28  C   UNL     1     -35.130  21.678   5.827  0.00  0.00    +0.253 C 
ENDBRANCH   5  27
BRANCH   8  29
ATOM     29  O   UNL     1     -33.536  27.058   5.886  0.00  0.00    -0.503 OA
ATOM     30  H   UNL     1     -34.244  27.575   6.219  0.00  0.00    +0.292 HD
ENDBRANCH   8  29
BRANCH  10  31
ATOM     31  O   UNL     1     -32.250  28.718   4.129  0.00  0.00    -0.503 OA
ATOM     32  H   UNL     1     -32.776  29.440   4.411  0.00  0.00    +0.292 HD
ENDBRANCH  10  31
TORSDOF 8
ENDMDL
MODEL 6
REMARK VINA RESULT:      -6.1      2.064      6.557
REMARK  Name = 192490
REMARK  8 active torsions:
REMARK  status: ('A' for Active; 'I' for Inactive)
REMARK    1  A    between atoms: C_3  and  C_12
REMARK    2  A    between atoms: C_5  and  O_27
REMARK    3  A    between atoms: C_8  and  O_29
REMARK    4  A    between atoms: C_10  and  O_31
REMARK    5  A    between atoms: C_13  and  C_22
REMARK    6  A    between atoms: C_16  and  O_18
REMARK    7  A    between atoms: C_17  and  O_20
REMARK    8  A    between atoms: C_22  and  C_23
REMARK                            x       y       z     vdW  Elec       q    Type
REMARK                         _______ _______ _______ _____ _____    ______ ____
ROOT
ATOM      1  O   UNL     1     -35.222  25.494   4.059  0.00  0.00    -0.450 OA
ATOM      2  O   UNL     1     -35.042  22.469   1.334  0.00  0.00    -0.283 OA
ATOM      3  C   UNL     1     -35.131  25.749   2.699  0.00  0.00    +0.182 A 
ATOM      4  C   UNL     1     -35.212  23.111   3.597  0.00  0.00    +0.113 A 
ATOM      5  C   UNL     1     -35.062  24.800   1.747  0.00  0.00    +0.212 A 
ATOM      6  C   UNL     1     -35.266  24.188   4.476  0.00  0.00    +0.152 A 
ATOM      7  C   UNL     1     -35.101  23.375   2.154  0.00  0.00    +0.238 A 
ATOM      8  C   UNL     1     -35.259  21.801   4.081  0.00  0.00    +0.174 C 
ATOM      9  C   UNL     1     -35.368  23.964   5.850  0.00  0.00    +0.041 C 
ATOM     10  C   UNL     1     -35.362  21.578   5.454  0.00  0.00    +0.168 C 
ATOM     11  C   UNL     1     -35.416  22.657   6.337  0.00  0.00    +0.043 C 
ENDROOT
BRANCH   3  12
ATOM     12  C   UNL     1     -35.093  27.189   2.387  0.00  0.00    +0.037 C 
ATOM     13  C   UNL     1     -33.976  27.969   2.691  0.00  0.00    -0.012 C 
ATOM     14  C   UNL     1     -36.201  27.774   1.772  0.00  0.00    +0.043 C 
ATOM     15  C   UNL     1     -33.967  29.329   2.383  0.00  0.00    +0.036 C 
ATOM     16  C   UNL     1     -36.193  29.134   1.464  0.00  0.00    +0.168 C 
ATOM     17  C   UNL     1     -35.076  29.912   1.769  0.00  0.00    +0.167 C 
BRANCH  16  18
ATOM     18  O   UNL     1     -37.282  29.692   0.863  0.00  0.00    -0.503 OA
ATOM     19  H   UNL     1     -37.301  29.795  -0.068  0.00  0.00    +0.292 HD
ENDBRANCH  16  18
BRANCH  17  20
ATOM     20  O   UNL     1     -35.056  31.241   1.473  0.00  0.00    -0.503 OA
ATOM     21  H   UNL     1     -35.665  31.592   0.853  0.00  0.00    +0.292 HD
ENDBRANCH  17  20
BRANCH  13  22
ATOM     22  C   UNL     1     -32.770  27.379   3.350  0.00  0.00    +0.052 C 
BRANCH  22  23
ATOM     23  C   UNL     1     -32.167  28.289   4.391  0.00  0.00    -0.030 C 
ATOM     24  C   UNL     1     -32.210  28.159   5.731  0.00  0.00    -0.048 C 
ATOM     25  C   UNL     1     -31.584  29.109   6.713  0.00  0.00    +0.026 C 
ATOM     26  C   UNL     1     -32.934  27.000   6.362  0.00  0.00    +0.026 C 
ENDBRANCH  22  23
ENDBRANCH  13  22
ENDBRANCH   3  12
BRANCH   5  27
ATOM     27  O   UNL     1     -34.939  25.089   0.405  0.00  0.00    -0.465 OA
ATOM     28  C   UNL     1     -36.168  24.887  -0.267  0.00  0.00    +0.253 C 
ENDBRANCH   5  27
BRANCH   8  29
ATOM     29  O   UNL     1     -35.209  20.719   3.252  0.00  0.00    -0.503 OA
ATOM     30  H   UNL     1     -35.991  20.410   2.838  0.00  0.00    +0.292 HD
ENDBRANCH   8  29
BRANCH  10  31
ATOM     31  O   UNL     1     -35.411  20.310   5.952  0.00  0.00    -0.503 OA
ATOM     32  H   UNL     1     -36.229  19.855   5.995  0.00  0.00    +0.292 HD
ENDBRANCH  10  31
TORSDOF 8
ENDMDL
MODEL 7
REMARK VINA RESULT:      -6.0      4.308      7.072
REMARK  Name = 192490
REMARK  8 active torsions:
REMARK  status: ('A' for Active; 'I' for Inactive)
REMARK    1  A    between atoms: C_3  and  C_12
REMARK    2  A    between atoms: C_5  and  O_27
REMARK    3  A    between atoms: C_8  and  O_29
REMARK    4  A    between atoms: C_10  and  O_31
REMARK    5  A    between atoms: C_13  and  C_22
REMARK    6  A    between atoms: C_16  and  O_18
REMARK    7  A    between atoms: C_17  and  O_20
REMARK    8  A    between atoms: C_22  and  C_23
REMARK                            x       y       z     vdW  Elec       q    Type
REMARK                         _______ _______ _______ _____ _____    ______ ____
ROOT
ATOM      1  O   UNL     1     -35.551  20.724   2.839  0.00  0.00    -0.450 OA
ATOM      2  O   UNL     1     -36.007  24.327   0.992  0.00  0.00    -0.283 OA
ATOM      3  C   UNL     1     -35.682  20.820   1.463  0.00  0.00    +0.182 A 
ATOM      4  C   UNL     1     -35.711  23.140   3.008  0.00  0.00    +0.113 A 
ATOM      5  C   UNL     1     -35.842  21.974   0.790  0.00  0.00    +0.212 A 
ATOM      6  C   UNL     1     -35.563  21.879   3.579  0.00  0.00    +0.152 A 
ATOM      7  C   UNL     1     -35.865  23.247   1.549  0.00  0.00    +0.238 A 
ATOM      8  C   UNL     1     -35.717  24.283   3.812  0.00  0.00    +0.174 C 
ATOM      9  C   UNL     1     -35.417  21.750   4.960  0.00  0.00    +0.041 C 
ATOM     10  C   UNL     1     -35.571  24.153   5.194  0.00  0.00    +0.168 C 
ATOM     11  C   UNL     1     -35.422  22.889   5.767  0.00  0.00    +0.043 C 
ENDROOT
BRANCH   3  12
ATOM     12  C   UNL     1     -35.654  19.508   0.791  0.00  0.00    +0.037 C 
ATOM     13  C   UNL     1     -34.452  18.834   0.562  0.00  0.00    -0.012 C 
ATOM     14  C   UNL     1     -36.859  18.936   0.378  0.00  0.00    +0.043 C 
ATOM     15  C   UNL     1     -34.456  17.594  -0.075  0.00  0.00    +0.036 C 
ATOM     16  C   UNL     1     -36.863  17.696  -0.260  0.00  0.00    +0.168 C 
ATOM     17  C   UNL     1     -35.661  17.025  -0.486  0.00  0.00    +0.167 C 
BRANCH  16  18
ATOM     18  O   UNL     1     -38.047  17.150  -0.655  0.00  0.00    -0.503 OA
ATOM     19  H   UNL     1     -38.123  16.762  -1.505  0.00  0.00    +0.292 HD
ENDBRANCH  16  18
BRANCH  17  20
ATOM     20  O   UNL     1     -35.652  15.813  -1.108  0.00  0.00    -0.503 OA
ATOM     21  H   UNL     1     -35.714  15.027  -0.603  0.00  0.00    +0.292 HD
ENDBRANCH  17  20
BRANCH  13  22
ATOM     22  C   UNL     1     -33.142  19.415   0.988  0.00  0.00    +0.052 C 
BRANCH  22  23
ATOM     23  C   UNL     1     -32.058  18.375   1.125  0.00  0.00    -0.030 C 
ATOM     24  C   UNL     1     -30.834  18.372   0.562  0.00  0.00    -0.048 C 
ATOM     25  C   UNL     1     -29.800  17.298   0.742  0.00  0.00    +0.026 C 
ATOM     26  C   UNL     1     -30.409  19.500  -0.340  0.00  0.00    +0.026 C 
ENDBRANCH  22  23
ENDBRANCH  13  22
ENDBRANCH   3  12
BRANCH   5  27
ATOM     27  O   UNL     1     -36.003  22.031  -0.578  0.00  0.00    -0.465 OA
ATOM     28  C   UNL     1     -34.753  22.183  -1.225  0.00  0.00    +0.253 C 
ENDBRANCH   5  27
BRANCH   8  29
ATOM     29  O   UNL     1     -35.860  25.535   3.292  0.00  0.00    -0.503 OA
ATOM     30  H   UNL     1     -36.185  25.645   2.420  0.00  0.00    +0.292 HD
ENDBRANCH   8  29
BRANCH  10  31
ATOM     31  O   UNL     1     -35.572  25.252   6.000  0.00  0.00    -0.503 OA
ATOM     32  H   UNL     1     -36.051  25.240   6.806  0.00  0.00    +0.292 HD
ENDBRANCH  10  31
TORSDOF 8
ENDMDL
MODEL 8
REMARK VINA RESULT:      -5.9      3.123      5.937
REMARK  Name = 192490
REMARK  8 active torsions:
REMARK  status: ('A' for Active; 'I' for Inactive)
REMARK    1  A    between atoms: C_3  and  C_12
REMARK    2  A    between atoms: C_5  and  O_27
REMARK    3  A    between atoms: C_8  and  O_29
REMARK    4  A    between atoms: C_10  and  O_31
REMARK    5  A    between atoms: C_13  and  C_22
REMARK    6  A    between atoms: C_16  and  O_18
REMARK    7  A    between atoms: C_17  and  O_20
REMARK    8  A    between atoms: C_22  and  C_23
REMARK                            x       y       z     vdW  Elec       q    Type
REMARK                         _______ _______ _______ _____ _____    ______ ____
ROOT
ATOM      1  O   UNL     1     -36.595  23.009   2.931  0.00  0.00    -0.450 OA
ATOM      2  O   UNL     1     -36.805  26.958   1.949  0.00  0.00    -0.283 OA
ATOM      3  C   UNL     1     -37.265  23.438   1.796  0.00  0.00    +0.182 A 
ATOM      4  C   UNL     1     -36.015  25.311   3.440  0.00  0.00    +0.113 A 
ATOM      5  C   UNL     1     -37.378  24.724   1.416  0.00  0.00    +0.212 A 
ATOM      6  C   UNL     1     -35.983  23.948   3.722  0.00  0.00    +0.152 A 
ATOM      7  C   UNL     1     -36.736  25.773   2.244  0.00  0.00    +0.238 A 
ATOM      8  C   UNL     1     -35.374  26.222   4.283  0.00  0.00    +0.174 C 
ATOM      9  C   UNL     1     -35.307  23.484   4.851  0.00  0.00    +0.041 C 
ATOM     10  C   UNL     1     -34.698  25.757   5.411  0.00  0.00    +0.168 C 
ATOM     11  C   UNL     1     -34.665  24.391   5.696  0.00  0.00    +0.043 C 
ENDROOT
BRANCH   3  12
ATOM     12  C   UNL     1     -37.876  22.331   1.038  0.00  0.00    +0.037 C 
ATOM     13  C   UNL     1     -37.122  21.546   0.163  0.00  0.00    -0.012 C 
ATOM     14  C   UNL     1     -39.237  22.070   1.206  0.00  0.00    +0.043 C 
ATOM     15  C   UNL     1     -37.727  20.505  -0.540  0.00  0.00    +0.036 C 
ATOM     16  C   UNL     1     -39.842  21.029   0.503  0.00  0.00    +0.168 C 
ATOM     17  C   UNL     1     -39.087  20.246  -0.371  0.00  0.00    +0.167 C 
BRANCH  16  18
ATOM     18  O   UNL     1     -41.171  20.785   0.678  0.00  0.00    -0.503 OA
ATOM     19  H   UNL     1     -41.533  19.958   0.428  0.00  0.00    +0.292 HD
ENDBRANCH  16  18
BRANCH  17  20
ATOM     20  O   UNL     1     -39.666  19.227  -1.063  0.00  0.00    -0.503 OA
ATOM     21  H   UNL     1     -40.153  19.407  -1.843  0.00  0.00    +0.292 HD
ENDBRANCH  17  20
BRANCH  13  22
ATOM     22  C   UNL     1     -35.662  21.795  -0.045  0.00  0.00    +0.052 C 
BRANCH  22  23
ATOM     23  C   UNL     1     -34.838  20.535   0.027  0.00  0.00    -0.030 C 
ATOM     24  C   UNL     1     -34.442  19.863   1.126  0.00  0.00    -0.048 C 
ATOM     25  C   UNL     1     -33.617  18.608   1.125  0.00  0.00    +0.026 C 
ATOM     26  C   UNL     1     -34.813  20.362   2.498  0.00  0.00    +0.026 C 
ENDBRANCH  22  23
ENDBRANCH  13  22
ENDBRANCH   3  12
BRANCH   5  27
ATOM     27  O   UNL     1     -38.081  25.118   0.298  0.00  0.00    -0.465 OA
ATOM     28  C   UNL     1     -37.220  25.241  -0.819  0.00  0.00    +0.253 C 
ENDBRANCH   5  27
BRANCH   8  29
ATOM     29  O   UNL     1     -35.382  27.564   4.042  0.00  0.00    -0.503 OA
ATOM     30  H   UNL     1     -35.525  28.165   4.747  0.00  0.00    +0.292 HD
ENDBRANCH   8  29
BRANCH  10  31
ATOM     31  O   UNL     1     -34.064  26.625   6.250  0.00  0.00    -0.503 OA
ATOM     32  H   UNL     1     -33.832  26.354   7.116  0.00  0.00    +0.292 HD
ENDBRANCH  10  31
TORSDOF 8
ENDMDL
MODEL 9
REMARK VINA RESULT:      -5.8      2.744      5.623
REMARK  Name = 192490
REMARK  8 active torsions:
REMARK  status: ('A' for Active; 'I' for Inactive)
REMARK    1  A    between atoms: C_3  and  C_12
REMARK    2  A    between atoms: C_5  and  O_27
REMARK    3  A    between atoms: C_8  and  O_29
REMARK    4  A    between atoms: C_10  and  O_31
REMARK    5  A    between atoms: C_13  and  C_22
REMARK    6  A    between atoms: C_16  and  O_18
REMARK    7  A    between atoms: C_17  and  O_20
REMARK    8  A    between atoms: C_22  and  C_23
REMARK                            x       y       z     vdW  Elec       q    Type
REMARK                         _______ _______ _______ _____ _____    ______ ____
ROOT
ATOM      1  O   UNL     1     -35.115  26.686   2.687  0.00  0.00    -0.450 OA
ATOM      2  O   UNL     1     -33.281  26.204   6.294  0.00  0.00    -0.283 OA
ATOM      3  C   UNL     1     -35.608  25.806   3.638  0.00  0.00    +0.182 A 
ATOM      4  C   UNL     1     -33.322  27.297   4.205  0.00  0.00    +0.113 A 
ATOM      5  C   UNL     1     -35.050  25.593   4.844  0.00  0.00    +0.212 A 
ATOM      6  C   UNL     1     -33.993  27.414   2.991  0.00  0.00    +0.152 A 
ATOM      7  C   UNL     1     -33.832  26.354   5.212  0.00  0.00    +0.238 A 
ATOM      8  C   UNL     1     -32.181  28.063   4.458  0.00  0.00    +0.174 C 
ATOM      9  C   UNL     1     -33.528  28.299   2.018  0.00  0.00    +0.041 C 
ATOM     10  C   UNL     1     -31.718  28.949   3.485  0.00  0.00    +0.168 C 
ATOM     11  C   UNL     1     -32.389  29.067   2.267  0.00  0.00    +0.043 C 
ENDROOT
BRANCH   3  12
ATOM     12  C   UNL     1     -36.815  25.090   3.186  0.00  0.00    +0.037 C 
ATOM     13  C   UNL     1     -36.730  23.986   2.335  0.00  0.00    -0.012 C 
ATOM     14  C   UNL     1     -38.064  25.533   3.624  0.00  0.00    +0.043 C 
ATOM     15  C   UNL     1     -37.889  23.328   1.925  0.00  0.00    +0.036 C 
ATOM     16  C   UNL     1     -39.224  24.875   3.214  0.00  0.00    +0.168 C 
ATOM     17  C   UNL     1     -39.136  23.772   2.364  0.00  0.00    +0.167 C 
BRANCH  16  18
ATOM     18  O   UNL     1     -40.436  25.317   3.651  0.00  0.00    -0.503 OA
ATOM     19  H   UNL     1     -40.496  26.120   4.132  0.00  0.00    +0.292 HD
ENDBRANCH  16  18
BRANCH  17  20
ATOM     20  O   UNL     1     -40.260  23.121   1.957  0.00  0.00    -0.503 OA
ATOM     21  H   UNL     1     -40.193  22.385   1.381  0.00  0.00    +0.292 HD
ENDBRANCH  17  20
BRANCH  13  22
ATOM     22  C   UNL     1     -35.410  23.483   1.843  0.00  0.00    +0.052 C 
BRANCH  22  23
ATOM     23  C   UNL     1     -35.239  21.998   2.044  0.00  0.00    -0.030 C 
ATOM     24  C   UNL     1     -34.493  21.143   1.318  0.00  0.00    -0.048 C 
ATOM     25  C   UNL     1     -34.367  19.668   1.575  0.00  0.00    +0.026 C 
ATOM     26  C   UNL     1     -33.705  21.637   0.134  0.00  0.00    +0.026 C 
ENDBRANCH  22  23
ENDBRANCH  13  22
ENDBRANCH   3  12
BRANCH   5  27
ATOM     27  O   UNL     1     -35.548  24.685   5.753  0.00  0.00    -0.465 OA
ATOM     28  C   UNL     1     -34.942  23.418   5.580  0.00  0.00    +0.253 C 
ENDBRANCH   5  27
BRANCH   8  29
ATOM     29  O   UNL     1     -31.496  27.979   5.634  0.00  0.00    -0.503 OA
ATOM     30  H   UNL     1     -31.935  28.151   6.444  0.00  0.00    +0.292 HD
ENDBRANCH   8  29
BRANCH  10  31
ATOM     31  O   UNL     1     -30.607  29.708   3.707  0.00  0.00    -0.503 OA
ATOM     32  H   UNL     1     -30.697  30.611   3.944  0.00  0.00    +0.292 HD
ENDBRANCH  10  31
TORSDOF 8
ENDMDL
