MODEL 1
REMARK VINA RESULT:      -6.3      0.000      0.000
REMARK  Name = 191669
REMARK  7 active torsions:
REMARK  status: ('A' for Active; 'I' for Inactive)
REMARK    1  A    between atoms: C_1  and  C_9
REMARK    2  A    between atoms: C_3  and  O_28
REMARK    3  A    between atoms: C_4  and  S_19
REMARK    4  A    between atoms: C_5  and  N_25
REMARK    5  A    between atoms: N_8  and  C_11
REMARK    6  A    between atoms: C_11  and  C_13
REMARK    7  A    between atoms: S_19  and  N_22
REMARK                            x       y       z     vdW  Elec       q    Type
REMARK                         _______ _______ _______ _____ _____    ______ ____
ROOT
ATOM      1  C   UNL     1     -36.104  24.370   3.799  0.00  0.00    +0.089 C 
ATOM      2  C   UNL     1     -35.716  25.450   3.033  0.00  0.00    +0.029 C 
ATOM      3  C   UNL     1     -35.651  24.184   5.090  0.00  0.00    +0.144 C 
ATOM      4  C   UNL     1     -34.837  26.385   3.580  0.00  0.00    +0.135 C 
ATOM      5  C   UNL     1     -34.365  26.218   4.883  0.00  0.00    +0.063 C 
ATOM      6  C   UNL     1     -34.772  25.118   5.638  0.00  0.00    +0.052 C 
ENDROOT
BRANCH   1   9
ATOM      7  O   UNL     1     -38.248  23.615   3.219  0.00  0.00    -0.270 OA
ATOM      8  N   UNL     1     -36.445  22.285   2.633  0.00  0.00    -0.303 N 
ATOM      9  C   UNL     1     -37.041  23.386   3.197  0.00  0.00    +0.249 C 
ATOM     10  H   UNL     1     -35.465  22.197   2.671  0.00  0.00    +0.150 HD
BRANCH   8  11
ATOM     11  C   UNL     1     -37.233  21.236   1.976  0.00  0.00    +0.069 C 
BRANCH  11  13
ATOM     12  N   UNL     1     -36.170  19.686   0.325  0.00  0.00    +0.388 N 
ATOM     13  C   UNL     1     -36.359  20.009   1.746  0.00  0.00    -0.038 C 
ATOM     14  C   UNL     1     -34.927  20.232   2.235  0.00  0.00    -0.021 C 
ATOM     15  C   UNL     1     -34.045  19.439   1.276  0.00  0.00    -0.025 C 
ATOM     16  C   UNL     1     -35.008  18.794   0.292  0.00  0.00    -0.077 C 
ATOM     17  C   UNL     1     -37.337  19.063  -0.287  0.00  0.00    -0.101 C 
ATOM     18  H   UNL     1     -36.027  20.535  -0.223  0.00  0.00    -0.080 HD
ENDBRANCH  11  13
ENDBRANCH   8  11
ENDBRANCH   1   9
BRANCH   4  19
ATOM     19  S   UNL     1     -34.350  27.753   2.602  0.00  0.00    +0.058 S 
ATOM     20  O   UNL     1     -32.904  27.884   2.690  0.00  0.00    -0.153 OA
ATOM     21  O   UNL     1     -34.993  27.635   1.301  0.00  0.00    -0.153 OA
BRANCH  19  22
ATOM     22  N   UNL     1     -35.078  29.037   3.461  0.00  0.00    -0.203 NA
ATOM     23  H   UNL     1     -35.087  28.817   4.457  0.00  0.00    +0.144 HD
ATOM     24  H   UNL     1     -36.035  29.167   3.132  0.00  0.00    +0.144 HD
ENDBRANCH  19  22
ENDBRANCH   4  19
BRANCH   5  25
ATOM     25  N   UNL     1     -33.475  27.151   5.459  0.00  0.00    -0.356 N 
ATOM     26  H   UNL     1     -33.610  27.452   6.386  0.00  0.00    +0.142 HD
ATOM     27  H   UNL     1     -32.719  27.501   4.933  0.00  0.00    +0.142 HD
ENDBRANCH   5  25
BRANCH   3  28
ATOM     28  O   UNL     1     -36.037  23.116   5.844  0.00  0.00    -0.471 OA
ATOM     29  C   UNL     1     -35.057  22.112   6.095  0.00  0.00    +0.252 C 
ENDBRANCH   3  28
TORSDOF 7
ENDMDL
MODEL 2
REMARK VINA RESULT:      -6.1      2.158      3.547
REMARK  Name = 191669
REMARK  7 active torsions:
REMARK  status: ('A' for Active; 'I' for Inactive)
REMARK    1  A    between atoms: C_1  and  C_9
REMARK    2  A    between atoms: C_3  and  O_28
REMARK    3  A    between atoms: C_4  and  S_19
REMARK    4  A    between atoms: C_5  and  N_25
REMARK    5  A    between atoms: N_8  and  C_11
REMARK    6  A    between atoms: C_11  and  C_13
REMARK    7  A    between atoms: S_19  and  N_22
REMARK                            x       y       z     vdW  Elec       q    Type
REMARK                         _______ _______ _______ _____ _____    ______ ____
ROOT
ATOM      1  C   UNL     1     -36.201  22.443   3.047  0.00  0.00    +0.089 C 
ATOM      2  C   UNL     1     -35.535  23.519   3.597  0.00  0.00    +0.029 C 
ATOM      3  C   UNL     1     -37.512  22.529   2.622  0.00  0.00    +0.144 C 
ATOM      4  C   UNL     1     -36.209  24.733   3.730  0.00  0.00    +0.135 C 
ATOM      5  C   UNL     1     -37.534  24.845   3.309  0.00  0.00    +0.063 C 
ATOM      6  C   UNL     1     -38.186  23.743   2.755  0.00  0.00    +0.052 C 
ENDROOT
BRANCH   1   9
ATOM      7  O   UNL     1     -35.195  20.515   3.925  0.00  0.00    -0.270 OA
ATOM      8  N   UNL     1     -35.166  20.789   1.625  0.00  0.00    -0.303 N 
ATOM      9  C   UNL     1     -35.465  21.159   2.914  0.00  0.00    +0.249 C 
ATOM     10  H   UNL     1     -35.429  21.381   0.884  0.00  0.00    +0.150 HD
BRANCH   8  11
ATOM     11  C   UNL     1     -34.466  19.535   1.327  0.00  0.00    +0.069 C 
BRANCH  11  13
ATOM     12  N   UNL     1     -35.050  17.348   0.262  0.00  0.00    +0.388 N 
ATOM     13  C   UNL     1     -35.176  18.811   0.190  0.00  0.00    -0.038 C 
ATOM     14  C   UNL     1     -36.691  19.021   0.241  0.00  0.00    -0.021 C 
ATOM     15  C   UNL     1     -37.296  17.722  -0.279  0.00  0.00    -0.025 C 
ATOM     16  C   UNL     1     -36.107  16.835  -0.611  0.00  0.00    -0.077 C 
ATOM     17  C   UNL     1     -33.738  16.861  -0.146  0.00  0.00    -0.101 C 
ATOM     18  H   UNL     1     -35.146  17.024   1.225  0.00  0.00    -0.080 HD
ENDBRANCH  11  13
ENDBRANCH   8  11
ENDBRANCH   1   9
BRANCH   4  19
ATOM     19  S   UNL     1     -35.357  26.094   4.429  0.00  0.00    +0.058 S 
ATOM     20  O   UNL     1     -34.121  25.602   5.018  0.00  0.00    -0.153 OA
ATOM     21  O   UNL     1     -35.317  27.164   3.443  0.00  0.00    -0.153 OA
BRANCH  19  22
ATOM     22  N   UNL     1     -36.431  26.537   5.680  0.00  0.00    -0.203 NA
ATOM     23  H   UNL     1     -36.364  25.861   6.441  0.00  0.00    +0.144 HD
ATOM     24  H   UNL     1     -37.385  26.551   5.319  0.00  0.00    +0.144 HD
ENDBRANCH  19  22
ENDBRANCH   4  19
BRANCH   5  25
ATOM     25  N   UNL     1     -38.237  26.064   3.432  0.00  0.00    -0.356 N 
ATOM     26  H   UNL     1     -38.600  26.337   4.305  0.00  0.00    +0.142 HD
ATOM     27  H   UNL     1     -38.365  26.640   2.643  0.00  0.00    +0.142 HD
ENDBRANCH   5  25
BRANCH   3  28
ATOM     28  O   UNL     1     -38.166  21.464   2.078  0.00  0.00    -0.471 OA
ATOM     29  C   UNL     1     -39.574  21.594   1.892  0.00  0.00    +0.252 C 
ENDBRANCH   3  28
TORSDOF 7
ENDMDL
MODEL 3
REMARK VINA RESULT:      -6.0      3.211      7.423
REMARK  Name = 191669
REMARK  7 active torsions:
REMARK  status: ('A' for Active; 'I' for Inactive)
REMARK    1  A    between atoms: C_1  and  C_9
REMARK    2  A    between atoms: C_3  and  O_28
REMARK    3  A    between atoms: C_4  and  S_19
REMARK    4  A    between atoms: C_5  and  N_25
REMARK    5  A    between atoms: N_8  and  C_11
REMARK    6  A    between atoms: C_11  and  C_13
REMARK    7  A    between atoms: S_19  and  N_22
REMARK                            x       y       z     vdW  Elec       q    Type
REMARK                         _______ _______ _______ _____ _____    ______ ____
ROOT
ATOM      1  C   UNL     1     -34.309  25.466   3.592  0.00  0.00    +0.089 C 
ATOM      2  C   UNL     1     -34.673  24.308   2.933  0.00  0.00    +0.029 C 
ATOM      3  C   UNL     1     -34.499  25.628   4.950  0.00  0.00    +0.144 C 
ATOM      4  C   UNL     1     -35.250  23.269   3.663  0.00  0.00    +0.135 C 
ATOM      5  C   UNL     1     -35.452  23.410   5.036  0.00  0.00    +0.063 C 
ATOM      6  C   UNL     1     -35.076  24.589   5.680  0.00  0.00    +0.052 C 
ENDROOT
BRANCH   1   9
ATOM      7  O   UNL     1     -34.259  26.949   1.776  0.00  0.00    -0.270 OA
ATOM      8  N   UNL     1     -32.527  27.068   3.310  0.00  0.00    -0.303 N 
ATOM      9  C   UNL     1     -33.696  26.560   2.797  0.00  0.00    +0.249 C 
ATOM     10  H   UNL     1     -32.160  26.683   4.138  0.00  0.00    +0.150 HD
BRANCH   8  11
ATOM     11  C   UNL     1     -31.814  28.170   2.654  0.00  0.00    +0.069 C 
BRANCH  11  13
ATOM     12  N   UNL     1     -32.684  29.785   4.355  0.00  0.00    +0.388 N 
ATOM     13  C   UNL     1     -31.494  29.252   3.678  0.00  0.00    -0.038 C 
ATOM     14  C   UNL     1     -30.661  28.706   4.840  0.00  0.00    -0.021 C 
ATOM     15  C   UNL     1     -31.112  29.495   6.064  0.00  0.00    -0.025 C 
ATOM     16  C   UNL     1     -32.169  30.458   5.550  0.00  0.00    -0.077 C 
ATOM     17  C   UNL     1     -33.462  30.696   3.523  0.00  0.00    -0.101 C 
ATOM     18  H   UNL     1     -33.338  29.036   4.579  0.00  0.00    -0.080 HD
ENDBRANCH  11  13
ENDBRANCH   8  11
ENDBRANCH   1   9
BRANCH   4  19
ATOM     19  S   UNL     1     -35.707  21.804   2.819  0.00  0.00    +0.058 S 
ATOM     20  O   UNL     1     -35.273  21.923   1.435  0.00  0.00    -0.153 OA
ATOM     21  O   UNL     1     -35.283  20.665   3.619  0.00  0.00    -0.153 OA
BRANCH  19  22
ATOM     22  N   UNL     1     -37.409  21.917   2.879  0.00  0.00    -0.203 NA
ATOM     23  H   UNL     1     -37.788  21.846   1.935  0.00  0.00    +0.144 HD
ATOM     24  H   UNL     1     -37.676  22.814   3.286  0.00  0.00    +0.144 HD
ENDBRANCH  19  22
ENDBRANCH   4  19
BRANCH   5  25
ATOM     25  N   UNL     1     -36.033  22.371   5.796  0.00  0.00    -0.356 N 
ATOM     26  H   UNL     1     -35.853  22.307   6.762  0.00  0.00    +0.142 HD
ATOM     27  H   UNL     1     -36.619  21.711   5.360  0.00  0.00    +0.142 HD
ENDBRANCH   5  25
BRANCH   3  28
ATOM     28  O   UNL     1     -34.138  26.772   5.598  0.00  0.00    -0.471 OA
ATOM     29  C   UNL     1     -33.251  26.637   6.705  0.00  0.00    +0.252 C 
ENDBRANCH   3  28
TORSDOF 7
ENDMDL
MODEL 4
REMARK VINA RESULT:      -6.0      2.463      3.798
REMARK  Name = 191669
REMARK  7 active torsions:
REMARK  status: ('A' for Active; 'I' for Inactive)
REMARK    1  A    between atoms: C_1  and  C_9
REMARK    2  A    between atoms: C_3  and  O_28
REMARK    3  A    between atoms: C_4  and  S_19
REMARK    4  A    between atoms: C_5  and  N_25
REMARK    5  A    between atoms: N_8  and  C_11
REMARK    6  A    between atoms: C_11  and  C_13
REMARK    7  A    between atoms: S_19  and  N_22
REMARK                            x       y       z     vdW  Elec       q    Type
REMARK                         _______ _______ _______ _____ _____    ______ ____
ROOT
ATOM      1  C   UNL     1     -36.187  22.504   2.987  0.00  0.00    +0.089 C 
ATOM      2  C   UNL     1     -35.477  23.481   3.656  0.00  0.00    +0.029 C 
ATOM      3  C   UNL     1     -37.499  22.688   2.597  0.00  0.00    +0.144 C 
ATOM      4  C   UNL     1     -36.105  24.692   3.948  0.00  0.00    +0.135 C 
ATOM      5  C   UNL     1     -37.429  24.900   3.564  0.00  0.00    +0.063 C 
ATOM      6  C   UNL     1     -38.127  23.899   2.888  0.00  0.00    +0.052 C 
ENDROOT
BRANCH   1   9
ATOM      7  O   UNL     1     -35.197  20.472   3.611  0.00  0.00    -0.270 OA
ATOM      8  N   UNL     1     -35.281  20.978   1.353  0.00  0.00    -0.303 N 
ATOM      9  C   UNL     1     -35.500  21.222   2.687  0.00  0.00    +0.249 C 
ATOM     10  H   UNL     1     -35.563  21.648   0.690  0.00  0.00    +0.150 HD
BRANCH   8  11
ATOM     11  C   UNL     1     -34.636  19.743   0.893  0.00  0.00    +0.069 C 
BRANCH  11  13
ATOM     12  N   UNL     1     -32.411  18.840   0.193  0.00  0.00    +0.388 N 
ATOM     13  C   UNL     1     -33.125  19.934   0.867  0.00  0.00    -0.038 C 
ATOM     14  C   UNL     1     -32.721  21.158   0.042  0.00  0.00    -0.021 C 
ATOM     15  C   UNL     1     -31.387  20.790  -0.598  0.00  0.00    -0.025 C 
ATOM     16  C   UNL     1     -31.084  19.384  -0.107  0.00  0.00    -0.077 C 
ATOM     17  C   UNL     1     -32.320  17.627   0.998  0.00  0.00    -0.101 C 
ATOM     18  H   UNL     1     -32.911  18.543  -0.645  0.00  0.00    -0.080 HD
ENDBRANCH  11  13
ENDBRANCH   8  11
ENDBRANCH   1   9
BRANCH   4  19
ATOM     19  S   UNL     1     -35.196  25.926   4.796  0.00  0.00    +0.058 S 
ATOM     20  O   UNL     1     -35.892  26.231   6.036  0.00  0.00    -0.153 OA
ATOM     21  O   UNL     1     -33.798  25.523   4.826  0.00  0.00    -0.153 OA
BRANCH  19  22
ATOM     22  N   UNL     1     -35.366  27.243   3.723  0.00  0.00    -0.203 NA
ATOM     23  H   UNL     1     -35.135  26.944   2.777  0.00  0.00    +0.144 HD
ATOM     24  H   UNL     1     -34.737  27.995   4.006  0.00  0.00    +0.144 HD
ENDBRANCH  19  22
ENDBRANCH   4  19
BRANCH   5  25
ATOM     25  N   UNL     1     -38.087  26.118   3.846  0.00  0.00    -0.356 N 
ATOM     26  H   UNL     1     -38.630  26.557   3.153  0.00  0.00    +0.142 HD
ATOM     27  H   UNL     1     -38.001  26.529   4.737  0.00  0.00    +0.142 HD
ENDBRANCH   5  25
BRANCH   3  28
ATOM     28  O   UNL     1     -38.197  21.721   1.936  0.00  0.00    -0.471 OA
ATOM     29  C   UNL     1     -39.618  21.826   1.948  0.00  0.00    +0.252 C 
ENDBRANCH   3  28
TORSDOF 7
ENDMDL
MODEL 5
REMARK VINA RESULT:      -5.8      2.566      3.569
REMARK  Name = 191669
REMARK  7 active torsions:
REMARK  status: ('A' for Active; 'I' for Inactive)
REMARK    1  A    between atoms: C_1  and  C_9
REMARK    2  A    between atoms: C_3  and  O_28
REMARK    3  A    between atoms: C_4  and  S_19
REMARK    4  A    between atoms: C_5  and  N_25
REMARK    5  A    between atoms: N_8  and  C_11
REMARK    6  A    between atoms: C_11  and  C_13
REMARK    7  A    between atoms: S_19  and  N_22
REMARK                            x       y       z     vdW  Elec       q    Type
REMARK                         _______ _______ _______ _____ _____    ______ ____
ROOT
ATOM      1  C   UNL     1     -35.597  24.302   3.694  0.00  0.00    +0.089 C 
ATOM      2  C   UNL     1     -34.944  25.370   3.112  0.00  0.00    +0.029 C 
ATOM      3  C   UNL     1     -35.546  24.063   5.053  0.00  0.00    +0.144 C 
ATOM      4  C   UNL     1     -34.208  26.235   3.923  0.00  0.00    +0.135 C 
ATOM      5  C   UNL     1     -34.142  26.014   5.298  0.00  0.00    +0.063 C 
ATOM      6  C   UNL     1     -34.811  24.928   5.864  0.00  0.00    +0.052 C 
ENDROOT
BRANCH   1   9
ATOM      7  O   UNL     1     -35.799  22.805   1.901  0.00  0.00    -0.270 OA
ATOM      8  N   UNL     1     -37.706  23.275   3.129  0.00  0.00    -0.303 N 
ATOM      9  C   UNL     1     -36.374  23.393   2.813  0.00  0.00    +0.249 C 
ATOM     10  H   UNL     1     -38.067  23.793   3.884  0.00  0.00    +0.150 HD
BRANCH   8  11
ATOM     11  C   UNL     1     -38.601  22.396   2.370  0.00  0.00    +0.069 C 
BRANCH  11  13
ATOM     12  N   UNL     1     -40.585  22.568   0.856  0.00  0.00    +0.388 N 
ATOM     13  C   UNL     1     -39.346  23.209   1.318  0.00  0.00    -0.038 C 
ATOM     14  C   UNL     1     -39.845  24.542   1.879  0.00  0.00    -0.021 C 
ATOM     15  C   UNL     1     -41.159  24.818   1.157  0.00  0.00    -0.025 C 
ATOM     16  C   UNL     1     -41.347  23.641   0.213  0.00  0.00    -0.077 C 
ATOM     17  C   UNL     1     -40.355  21.456  -0.059  0.00  0.00    -0.101 C 
ATOM     18  H   UNL     1     -41.087  22.146   1.637  0.00  0.00    -0.080 HD
ENDBRANCH  11  13
ENDBRANCH   8  11
ENDBRANCH   1   9
BRANCH   4  19
ATOM     19  S   UNL     1     -33.384  27.587   3.176  0.00  0.00    +0.058 S 
ATOM     20  O   UNL     1     -33.588  27.506   1.738  0.00  0.00    -0.153 OA
ATOM     21  O   UNL     1     -33.749  28.799   3.895  0.00  0.00    -0.153 OA
BRANCH  19  22
ATOM     22  N   UNL     1     -31.758  27.206   3.529  0.00  0.00    -0.203 NA
ATOM     23  H   UNL     1     -31.715  26.303   4.000  0.00  0.00    +0.144 HD
ATOM     24  H   UNL     1     -31.364  27.926   4.136  0.00  0.00    +0.144 HD
ENDBRANCH  19  22
ENDBRANCH   4  19
BRANCH   5  25
ATOM     25  N   UNL     1     -33.405  26.876   6.140  0.00  0.00    -0.356 N 
ATOM     26  H   UNL     1     -33.812  27.709   6.469  0.00  0.00    +0.142 HD
ATOM     27  H   UNL     1     -32.484  26.643   6.398  0.00  0.00    +0.142 HD
ENDBRANCH   5  25
BRANCH   3  28
ATOM     28  O   UNL     1     -36.192  23.008   5.625  0.00  0.00    -0.471 OA
ATOM     29  C   UNL     1     -35.382  21.977   6.183  0.00  0.00    +0.252 C 
ENDBRANCH   3  28
TORSDOF 7
ENDMDL
MODEL 6
REMARK VINA RESULT:      -5.6      1.352      2.125
REMARK  Name = 191669
REMARK  7 active torsions:
REMARK  status: ('A' for Active; 'I' for Inactive)
REMARK    1  A    between atoms: C_1  and  C_9
REMARK    2  A    between atoms: C_3  and  O_28
REMARK    3  A    between atoms: C_4  and  S_19
REMARK    4  A    between atoms: C_5  and  N_25
REMARK    5  A    between atoms: N_8  and  C_11
REMARK    6  A    between atoms: C_11  and  C_13
REMARK    7  A    between atoms: S_19  and  N_22
REMARK                            x       y       z     vdW  Elec       q    Type
REMARK                         _______ _______ _______ _____ _____    ______ ____
ROOT
ATOM      1  C   UNL     1     -36.652  24.639   3.833  0.00  0.00    +0.089 C 
ATOM      2  C   UNL     1     -36.353  25.790   3.132  0.00  0.00    +0.029 C 
ATOM      3  C   UNL     1     -35.946  24.259   4.957  0.00  0.00    +0.144 C 
ATOM      4  C   UNL     1     -35.302  26.595   3.573  0.00  0.00    +0.135 C 
ATOM      5  C   UNL     1     -34.574  26.231   4.706  0.00  0.00    +0.063 C 
ATOM      6  C   UNL     1     -34.896  25.064   5.398  0.00  0.00    +0.052 C 
ENDROOT
BRANCH   1   9
ATOM      7  O   UNL     1     -38.920  24.238   3.388  0.00  0.00    -0.270 OA
ATOM      8  N   UNL     1     -37.409  22.565   2.858  0.00  0.00    -0.303 N 
ATOM      9  C   UNL     1     -37.775  23.796   3.347  0.00  0.00    +0.249 C 
ATOM     10  H   UNL     1     -36.459  22.307   2.871  0.00  0.00    +0.150 HD
BRANCH   8  11
ATOM     11  C   UNL     1     -38.398  21.627   2.317  0.00  0.00    +0.069 C 
BRANCH  11  13
ATOM     12  N   UNL     1     -37.872  20.004   0.488  0.00  0.00    +0.388 N 
ATOM     13  C   UNL     1     -38.136  21.408   0.832  0.00  0.00    -0.038 C 
ATOM     14  C   UNL     1     -39.367  21.737  -0.016  0.00  0.00    -0.021 C 
ATOM     15  C   UNL     1     -39.323  20.760  -1.186  0.00  0.00    -0.025 C 
ATOM     16  C   UNL     1     -38.072  19.926  -0.961  0.00  0.00    -0.077 C 
ATOM     17  C   UNL     1     -36.537  19.558   0.867  0.00  0.00    -0.101 C 
ATOM     18  H   UNL     1     -38.496  19.382   1.002  0.00  0.00    -0.080 HD
ENDBRANCH  11  13
ENDBRANCH   8  11
ENDBRANCH   1   9
BRANCH   4  19
ATOM     19  S   UNL     1     -34.930  28.053   2.677  0.00  0.00    +0.058 S 
ATOM     20  O   UNL     1     -34.653  29.114   3.632  0.00  0.00    -0.153 OA
ATOM     21  O   UNL     1     -33.950  27.722   1.652  0.00  0.00    -0.153 OA
BRANCH  19  22
ATOM     22  N   UNL     1     -36.432  28.360   1.926  0.00  0.00    -0.203 NA
ATOM     23  H   UNL     1     -36.515  27.787   1.086  0.00  0.00    +0.144 HD
ATOM     24  H   UNL     1     -36.489  29.347   1.672  0.00  0.00    +0.144 HD
ENDBRANCH  19  22
ENDBRANCH   4  19
BRANCH   5  25
ATOM     25  N   UNL     1     -33.507  27.031   5.172  0.00  0.00    -0.356 N 
ATOM     26  H   UNL     1     -32.886  26.676   5.849  0.00  0.00    +0.142 HD
ATOM     27  H   UNL     1     -33.385  27.942   4.822  0.00  0.00    +0.142 HD
ENDBRANCH   5  25
BRANCH   3  28
ATOM     28  O   UNL     1     -36.245  23.123   5.648  0.00  0.00    -0.471 OA
ATOM     29  C   UNL     1     -35.150  22.310   6.062  0.00  0.00    +0.252 C 
ENDBRANCH   3  28
TORSDOF 7
ENDMDL
MODEL 7
REMARK VINA RESULT:      -5.5      3.140      6.480
REMARK  Name = 191669
REMARK  7 active torsions:
REMARK  status: ('A' for Active; 'I' for Inactive)
REMARK    1  A    between atoms: C_1  and  C_9
REMARK    2  A    between atoms: C_3  and  O_28
REMARK    3  A    between atoms: C_4  and  S_19
REMARK    4  A    between atoms: C_5  and  N_25
REMARK    5  A    between atoms: N_8  and  C_11
REMARK    6  A    between atoms: C_11  and  C_13
REMARK    7  A    between atoms: S_19  and  N_22
REMARK                            x       y       z     vdW  Elec       q    Type
REMARK                         _______ _______ _______ _____ _____    ______ ____
ROOT
ATOM      1  C   UNL     1     -34.787  25.399   3.779  0.00  0.00    +0.089 C 
ATOM      2  C   UNL     1     -35.058  24.287   3.007  0.00  0.00    +0.029 C 
ATOM      3  C   UNL     1     -34.883  25.377   5.156  0.00  0.00    +0.144 C 
ATOM      4  C   UNL     1     -35.440  23.104   3.638  0.00  0.00    +0.135 C 
ATOM      5  C   UNL     1     -35.544  23.058   5.029  0.00  0.00    +0.063 C 
ATOM      6  C   UNL     1     -35.266  24.194   5.788  0.00  0.00    +0.052 C 
ENDROOT
BRANCH   1   9
ATOM      7  O   UNL     1     -33.380  26.644   2.376  0.00  0.00    -0.270 OA
ATOM      8  N   UNL     1     -35.209  27.725   3.297  0.00  0.00    -0.303 N 
ATOM      9  C   UNL     1     -34.382  26.649   3.086  0.00  0.00    +0.249 C 
ATOM     10  H   UNL     1     -35.989  27.622   3.887  0.00  0.00    +0.150 HD
BRANCH   8  11
ATOM     11  C   UNL     1     -34.958  29.024   2.662  0.00  0.00    +0.069 C 
BRANCH  11  13
ATOM     12  N   UNL     1     -34.705  28.537   0.221  0.00  0.00    +0.388 N 
ATOM     13  C   UNL     1     -35.592  29.047   1.276  0.00  0.00    -0.038 C 
ATOM     14  C   UNL     1     -36.796  28.108   1.187  0.00  0.00    -0.021 C 
ATOM     15  C   UNL     1     -36.788  27.576  -0.242  0.00  0.00    -0.025 C 
ATOM     16  C   UNL     1     -35.592  28.238  -0.905  0.00  0.00    -0.077 C 
ATOM     17  C   UNL     1     -33.658  29.478  -0.159  0.00  0.00    -0.101 C 
ATOM     18  H   UNL     1     -34.193  27.716   0.545  0.00  0.00    -0.080 HD
ENDBRANCH  11  13
ENDBRANCH   8  11
ENDBRANCH   1   9
BRANCH   4  19
ATOM     19  S   UNL     1     -35.780  21.698   2.651  0.00  0.00    +0.058 S 
ATOM     20  O   UNL     1     -35.403  22.003   1.280  0.00  0.00    -0.153 OA
ATOM     21  O   UNL     1     -35.225  20.528   3.315  0.00  0.00    -0.153 OA
BRANCH  19  22
ATOM     22  N   UNL     1     -37.484  21.636   2.758  0.00  0.00    -0.203 NA
ATOM     23  H   UNL     1     -37.815  20.745   2.388  0.00  0.00    +0.144 HD
ATOM     24  H   UNL     1     -37.886  22.400   2.215  0.00  0.00    +0.144 HD
ENDBRANCH  19  22
ENDBRANCH   4  19
BRANCH   5  25
ATOM     25  N   UNL     1     -35.929  21.871   5.691  0.00  0.00    -0.356 N 
ATOM     26  H   UNL     1     -35.491  21.614   6.534  0.00  0.00    +0.142 HD
ATOM     27  H   UNL     1     -36.635  21.301   5.309  0.00  0.00    +0.142 HD
ENDBRANCH   5  25
BRANCH   3  28
ATOM     28  O   UNL     1     -34.614  26.477   5.915  0.00  0.00    -0.471 OA
ATOM     29  C   UNL     1     -33.306  26.576   6.472  0.00  0.00    +0.252 C 
ENDBRANCH   3  28
TORSDOF 7
ENDMDL
MODEL 8
REMARK VINA RESULT:      -5.5      2.067      2.745
REMARK  Name = 191669
REMARK  7 active torsions:
REMARK  status: ('A' for Active; 'I' for Inactive)
REMARK    1  A    between atoms: C_1  and  C_9
REMARK    2  A    between atoms: C_3  and  O_28
REMARK    3  A    between atoms: C_4  and  S_19
REMARK    4  A    between atoms: C_5  and  N_25
REMARK    5  A    between atoms: N_8  and  C_11
REMARK    6  A    between atoms: C_11  and  C_13
REMARK    7  A    between atoms: S_19  and  N_22
REMARK                            x       y       z     vdW  Elec       q    Type
REMARK                         _______ _______ _______ _____ _____    ______ ____
ROOT
ATOM      1  C   UNL     1     -35.933  23.868   2.106  0.00  0.00    +0.089 C 
ATOM      2  C   UNL     1     -34.879  24.674   2.486  0.00  0.00    +0.029 C 
ATOM      3  C   UNL     1     -37.142  23.876   2.773  0.00  0.00    +0.144 C 
ATOM      4  C   UNL     1     -35.040  25.524   3.580  0.00  0.00    +0.135 C 
ATOM      5  C   UNL     1     -36.252  25.550   4.271  0.00  0.00    +0.063 C 
ATOM      6  C   UNL     1     -37.303  24.726   3.868  0.00  0.00    +0.052 C 
ENDROOT
BRANCH   1   9
ATOM      7  O   UNL     1     -35.328  23.440  -0.119  0.00  0.00    -0.270 OA
ATOM      8  N   UNL     1     -36.032  21.647   1.167  0.00  0.00    -0.303 N 
ATOM      9  C   UNL     1     -35.741  22.970   0.938  0.00  0.00    +0.249 C 
ATOM     10  H   UNL     1     -36.358  21.375   2.055  0.00  0.00    +0.150 HD
BRANCH   8  11
ATOM     11  C   UNL     1     -35.869  20.631   0.121  0.00  0.00    +0.069 C 
BRANCH  11  13
ATOM     12  N   UNL     1     -34.634  18.495  -0.291  0.00  0.00    +0.388 N 
ATOM     13  C   UNL     1     -35.230  19.382   0.717  0.00  0.00    -0.038 C 
ATOM     14  C   UNL     1     -34.038  19.726   1.612  0.00  0.00    -0.021 C 
ATOM     15  C   UNL     1     -33.056  18.572   1.436  0.00  0.00    -0.025 C 
ATOM     16  C   UNL     1     -33.732  17.621   0.462  0.00  0.00    -0.077 C 
ATOM     17  C   UNL     1     -35.620  17.726  -1.040  0.00  0.00    -0.101 C 
ATOM     18  H   UNL     1     -34.147  19.036  -1.006  0.00  0.00    -0.080 HD
ENDBRANCH  11  13
ENDBRANCH   8  11
ENDBRANCH   1   9
BRANCH   4  19
ATOM     19  S   UNL     1     -33.697  26.543   4.055  0.00  0.00    +0.058 S 
ATOM     20  O   UNL     1     -32.512  26.095   3.341  0.00  0.00    -0.153 OA
ATOM     21  O   UNL     1     -34.123  27.932   3.961  0.00  0.00    -0.153 OA
BRANCH  19  22
ATOM     22  N   UNL     1     -33.544  26.125   5.704  0.00  0.00    -0.203 NA
ATOM     23  H   UNL     1     -33.814  26.920   6.283  0.00  0.00    +0.144 HD
ATOM     24  H   UNL     1     -32.576  25.872   5.901  0.00  0.00    +0.144 HD
ENDBRANCH  19  22
ENDBRANCH   4  19
BRANCH   5  25
ATOM     25  N   UNL     1     -36.439  26.402   5.381  0.00  0.00    -0.356 N 
ATOM     26  H   UNL     1     -36.636  26.021   6.267  0.00  0.00    +0.142 HD
ATOM     27  H   UNL     1     -36.373  27.378   5.269  0.00  0.00    +0.142 HD
ENDBRANCH   5  25
BRANCH   3  28
ATOM     28  O   UNL     1     -38.181  23.079   2.394  0.00  0.00    -0.471 OA
ATOM     29  C   UNL     1     -39.489  23.639   2.476  0.00  0.00    +0.252 C 
ENDBRANCH   3  28
TORSDOF 7
ENDMDL
MODEL 9
REMARK VINA RESULT:      -5.4      2.886      6.905
REMARK  Name = 191669
REMARK  7 active torsions:
REMARK  status: ('A' for Active; 'I' for Inactive)
REMARK    1  A    between atoms: C_1  and  C_9
REMARK    2  A    between atoms: C_3  and  O_28
REMARK    3  A    between atoms: C_4  and  S_19
REMARK    4  A    between atoms: C_5  and  N_25
REMARK    5  A    between atoms: N_8  and  C_11
REMARK    6  A    between atoms: C_11  and  C_13
REMARK    7  A    between atoms: S_19  and  N_22
REMARK                            x       y       z     vdW  Elec       q    Type
REMARK                         _______ _______ _______ _____ _____    ______ ____
ROOT
ATOM      1  C   UNL     1     -36.592  23.009   3.336  0.00  0.00    +0.089 C 
ATOM      2  C   UNL     1     -37.547  22.769   2.368  0.00  0.00    +0.029 C 
ATOM      3  C   UNL     1     -35.671  22.052   3.712  0.00  0.00    +0.144 C 
ATOM      4  C   UNL     1     -37.583  21.518   1.751  0.00  0.00    +0.135 C 
ATOM      5  C   UNL     1     -36.663  20.535   2.115  0.00  0.00    +0.063 C 
ATOM      6  C   UNL     1     -35.707  20.801   3.096  0.00  0.00    +0.052 C 
ENDROOT
BRANCH   1   9
ATOM      7  O   UNL     1     -37.610  24.803   4.451  0.00  0.00    -0.270 OA
ATOM      8  N   UNL     1     -35.342  24.960   4.010  0.00  0.00    -0.303 N 
ATOM      9  C   UNL     1     -36.571  24.347   3.980  0.00  0.00    +0.249 C 
ATOM     10  H   UNL     1     -34.570  24.506   3.601  0.00  0.00    +0.150 HD
BRANCH   8  11
ATOM     11  C   UNL     1     -35.152  26.274   4.635  0.00  0.00    +0.069 C 
BRANCH  11  13
ATOM     12  N   UNL     1     -34.803  28.363   3.304  0.00  0.00    +0.388 N 
ATOM     13  C   UNL     1     -34.203  27.111   3.786  0.00  0.00    -0.038 C 
ATOM     14  C   UNL     1     -33.002  27.603   4.596  0.00  0.00    -0.021 C 
ATOM     15  C   UNL     1     -32.658  28.971   4.018  0.00  0.00    -0.025 C 
ATOM     16  C   UNL     1     -33.666  29.196   2.902  0.00  0.00    -0.077 C 
ATOM     17  C   UNL     1     -35.737  28.169   2.202  0.00  0.00    -0.101 C 
ATOM     18  H   UNL     1     -35.368  28.798   4.033  0.00  0.00    -0.080 HD
ENDBRANCH  11  13
ENDBRANCH   8  11
ENDBRANCH   1   9
BRANCH   4  19
ATOM     19  S   UNL     1     -38.796  21.222   0.524  0.00  0.00    +0.058 S 
ATOM     20  O   UNL     1     -38.951  22.435  -0.264  0.00  0.00    -0.153 OA
ATOM     21  O   UNL     1     -38.484  19.961  -0.133  0.00  0.00    -0.153 OA
BRANCH  19  22
ATOM     22  N   UNL     1     -40.186  21.009   1.493  0.00  0.00    -0.203 NA
ATOM     23  H   UNL     1     -40.010  21.381   2.426  0.00  0.00    +0.144 HD
ATOM     24  H   UNL     1     -40.406  20.015   1.558  0.00  0.00    +0.144 HD
ENDBRANCH  19  22
ENDBRANCH   4  19
BRANCH   5  25
ATOM     25  N   UNL     1     -36.678  19.261   1.505  0.00  0.00    -0.356 N 
ATOM     26  H   UNL     1     -37.325  18.582   1.800  0.00  0.00    +0.142 HD
ATOM     27  H   UNL     1     -36.040  19.053   0.784  0.00  0.00    +0.142 HD
ENDBRANCH   5  25
BRANCH   3  28
ATOM     28  O   UNL     1     -34.729  22.293   4.668  0.00  0.00    -0.471 OA
ATOM     29  C   UNL     1     -34.999  21.807   5.981  0.00  0.00    +0.252 C 
ENDBRANCH   3  28
TORSDOF 7
ENDMDL
