MODEL 1
REMARK VINA RESULT:      -6.8      0.000      0.000
REMARK  Name = 51723030
REMARK  6 active torsions:
REMARK  status: ('A' for Active; 'I' for Inactive)
REMARK    1  A    between atoms: C_6  and  O_18
REMARK    2  A    between atoms: C_7  and  O_20
REMARK    3  A    between atoms: O_20  and  C_22
REMARK    4  A    between atoms: C_22  and  C_23
REMARK    5  A    between atoms: C_23  and  N_25
REMARK    6  A    between atoms: C_23  and  C_29
REMARK                            x       y       z     vdW  Elec       q    Type
REMARK                         _______ _______ _______ _____ _____    ______ ____
ROOT
ATOM      1  O   UNL     1     -39.068  18.910  -0.669  0.00  0.00    -0.443 OA
ATOM      2  O   UNL     1     -39.273  16.618  -0.841  0.00  0.00    -0.245 OA
ATOM      3  C   UNL     1     -35.322  19.481  -0.526  0.00  0.00    +0.067 C 
ATOM      4  C   UNL     1     -34.387  18.313   0.006  0.00  0.00    +0.010 C 
ATOM      5  C   UNL     1     -32.833  18.580   0.008  0.00  0.00    +0.001 C 
ATOM      6  C   UNL     1     -36.788  19.087  -0.089  0.00  0.00    +0.156 C 
ATOM      7  C   UNL     1     -34.871  20.854   0.065  0.00  0.00    +0.171 C 
ATOM      8  C   UNL     1     -32.530  20.000   0.548  0.00  0.00    +0.004 C 
ATOM      9  C   UNL     1     -33.368  21.103  -0.094  0.00  0.00    +0.044 C 
ATOM     10  C   UNL     1     -34.793  16.937  -0.608  0.00  0.00    +0.026 C 
ATOM     11  C   UNL     1     -35.255  19.605  -2.077  0.00  0.00    +0.006 C 
ATOM     12  C   UNL     1     -37.148  17.705  -0.501  0.00  0.00    +0.077 C 
ATOM     13  C   UNL     1     -37.964  19.846  -0.683  0.00  0.00    +0.240 C 
ATOM     14  C   UNL     1     -32.151  17.572   0.973  0.00  0.00    +0.000 C 
ATOM     15  C   UNL     1     -32.133  18.395  -1.354  0.00  0.00    +0.000 C 
ATOM     16  C   UNL     1     -36.279  16.719  -0.734  0.00  0.00    -0.022 C 
ATOM     17  C   UNL     1     -38.604  17.624  -0.697  0.00  0.00    +0.339 C 
ENDROOT
BRANCH   6  18
ATOM     18  O   UNL     1     -36.938  19.097   1.337  0.00  0.00    -0.379 OA
ATOM     19  H   UNL     1     -36.103  18.830   1.752  0.00  0.00    +0.211 HD
ENDBRANCH   6  18
BRANCH   7  20
ATOM     20  O   UNL     1     -35.189  21.002   1.447  0.00  0.00    -0.451 OA
BRANCH  20  22
ATOM     21  O   UNL     1     -35.149  23.301   1.453  0.00  0.00    -0.248 OA
ATOM     22  C   UNL     1     -35.629  22.236   1.829  0.00  0.00    +0.335 C 
BRANCH  22  23
ATOM     23  C   UNL     1     -36.807  22.160   2.792  0.00  0.00    +0.171 C 
BRANCH  23  25
ATOM     24  O   UNL     1     -35.084  20.788   4.684  0.00  0.00    -0.275 OA
ATOM     25  N   UNL     1     -36.436  22.596   4.116  0.00  0.00    -0.297 N 
ATOM     26  C   UNL     1     -35.602  21.869   4.951  0.00  0.00    +0.223 C 
ATOM     27  C   UNL     1     -35.357  22.565   6.262  0.00  0.00    +0.095 C 
ATOM     28  H   UNL     1     -36.792  23.454   4.442  0.00  0.00    +0.150 HD
ENDBRANCH  23  25
BRANCH  23  29
ATOM     29  C   UNL     1     -38.037  22.911   2.236  0.00  0.00    +0.029 C 
ATOM     30  C   UNL     1     -38.439  24.124   3.083  0.00  0.00    +0.002 C 
ATOM     31  C   UNL     1     -39.234  21.970   2.071  0.00  0.00    +0.002 C 
ENDBRANCH  23  29
ENDBRANCH  22  23
ENDBRANCH  20  22
ENDBRANCH   7  20
TORSDOF 6
ENDMDL
MODEL 2
REMARK VINA RESULT:      -6.6      3.115      5.762
REMARK  Name = 51723030
REMARK  6 active torsions:
REMARK  status: ('A' for Active; 'I' for Inactive)
REMARK    1  A    between atoms: C_6  and  O_18
REMARK    2  A    between atoms: C_7  and  O_20
REMARK    3  A    between atoms: O_20  and  C_22
REMARK    4  A    between atoms: C_22  and  C_23
REMARK    5  A    between atoms: C_23  and  N_25
REMARK    6  A    between atoms: C_23  and  C_29
REMARK                            x       y       z     vdW  Elec       q    Type
REMARK                         _______ _______ _______ _____ _____    ______ ____
ROOT
ATOM      1  O   UNL     1     -37.844  20.413  -0.329  0.00  0.00    -0.443 OA
ATOM      2  O   UNL     1     -36.621  18.532   0.207  0.00  0.00    -0.245 OA
ATOM      3  C   UNL     1     -36.721  22.988   2.218  0.00  0.00    +0.067 C 
ATOM      4  C   UNL     1     -36.143  22.488   3.611  0.00  0.00    +0.010 C 
ATOM      5  C   UNL     1     -35.649  23.593   4.622  0.00  0.00    +0.001 C 
ATOM      6  C   UNL     1     -37.445  21.735   1.584  0.00  0.00    +0.156 C 
ATOM      7  C   UNL     1     -37.689  24.194   2.430  0.00  0.00    +0.171 C 
ATOM      8  C   UNL     1     -36.663  24.762   4.682  0.00  0.00    +0.004 C 
ATOM      9  C   UNL     1     -37.086  25.291   3.312  0.00  0.00    +0.044 C 
ATOM     10  C   UNL     1     -35.137  21.311   3.418  0.00  0.00    +0.026 C 
ATOM     11  C   UNL     1     -35.586  23.471   1.268  0.00  0.00    +0.006 C 
ATOM     12  C   UNL     1     -36.571  20.534   1.550  0.00  0.00    +0.077 C 
ATOM     13  C   UNL     1     -37.865  21.788   0.123  0.00  0.00    +0.240 C 
ATOM     14  C   UNL     1     -35.583  22.977   6.046  0.00  0.00    +0.000 C 
ATOM     15  C   UNL     1     -34.240  24.156   4.343  0.00  0.00    +0.000 C 
ATOM     16  C   UNL     1     -35.535  20.311   2.361  0.00  0.00    -0.022 C 
ATOM     17  C   UNL     1     -36.974  19.676   0.424  0.00  0.00    +0.339 C 
ENDROOT
BRANCH   6  18
ATOM     18  O   UNL     1     -38.589  21.337   2.352  0.00  0.00    -0.379 OA
ATOM     19  H   UNL     1     -39.094  22.124   2.611  0.00  0.00    +0.211 HD
ENDBRANCH   6  18
BRANCH   7  20
ATOM     20  O   UNL     1     -38.939  23.817   3.005  0.00  0.00    -0.451 OA
BRANCH  20  22
ATOM     21  O   UNL     1     -40.710  23.193   1.678  0.00  0.00    -0.248 OA
ATOM     22  C   UNL     1     -40.043  24.057   2.240  0.00  0.00    +0.335 C 
BRANCH  22  23
ATOM     23  C   UNL     1     -40.377  25.541   2.152  0.00  0.00    +0.171 C 
BRANCH  23  25
ATOM     24  O   UNL     1     -38.557  27.563   1.137  0.00  0.00    -0.275 OA
ATOM     25  N   UNL     1     -40.273  26.026   0.797  0.00  0.00    -0.297 N 
ATOM     26  C   UNL     1     -39.367  27.000   0.405  0.00  0.00    +0.223 C 
ATOM     27  C   UNL     1     -39.452  27.300  -1.067  0.00  0.00    +0.095 C 
ATOM     28  H   UNL     1     -40.875  25.645   0.117  0.00  0.00    +0.150 HD
ENDBRANCH  23  25
BRANCH  23  29
ATOM     29  C   UNL     1     -41.748  25.848   2.794  0.00  0.00    +0.029 C 
ATOM     30  C   UNL     1     -42.848  26.130   1.765  0.00  0.00    +0.002 C 
ATOM     31  C   UNL     1     -41.649  27.011   3.785  0.00  0.00    +0.002 C 
ENDBRANCH  23  29
ENDBRANCH  22  23
ENDBRANCH  20  22
ENDBRANCH   7  20
TORSDOF 6
ENDMDL
MODEL 3
REMARK VINA RESULT:      -6.5      1.288      1.728
REMARK  Name = 51723030
REMARK  6 active torsions:
REMARK  status: ('A' for Active; 'I' for Inactive)
REMARK    1  A    between atoms: C_6  and  O_18
REMARK    2  A    between atoms: C_7  and  O_20
REMARK    3  A    between atoms: O_20  and  C_22
REMARK    4  A    between atoms: C_22  and  C_23
REMARK    5  A    between atoms: C_23  and  N_25
REMARK    6  A    between atoms: C_23  and  C_29
REMARK                            x       y       z     vdW  Elec       q    Type
REMARK                         _______ _______ _______ _____ _____    ______ ____
ROOT
ATOM      1  O   UNL     1     -39.084  18.437  -0.768  0.00  0.00    -0.443 OA
ATOM      2  O   UNL     1     -39.047  16.131  -0.701  0.00  0.00    -0.245 OA
ATOM      3  C   UNL     1     -35.427  19.415  -0.565  0.00  0.00    +0.067 C 
ATOM      4  C   UNL     1     -34.401  18.414   0.120  0.00  0.00    +0.010 C 
ATOM      5  C   UNL     1     -32.884  18.844   0.145  0.00  0.00    +0.001 C 
ATOM      6  C   UNL     1     -36.862  18.914  -0.137  0.00  0.00    +0.156 C 
ATOM      7  C   UNL     1     -35.145  20.882  -0.110  0.00  0.00    +0.171 C 
ATOM      8  C   UNL     1     -32.752  20.336   0.539  0.00  0.00    +0.004 C 
ATOM      9  C   UNL     1     -33.670  21.272  -0.245  0.00  0.00    +0.044 C 
ATOM     10  C   UNL     1     -34.637  16.947  -0.356  0.00  0.00    +0.026 C 
ATOM     11  C   UNL     1     -35.305  19.385  -2.117  0.00  0.00    +0.006 C 
ATOM     12  C   UNL     1     -37.061  17.467  -0.409  0.00  0.00    +0.077 C 
ATOM     13  C   UNL     1     -38.083  19.479  -0.847  0.00  0.00    +0.240 C 
ATOM     14  C   UNL     1     -32.146  18.019   1.234  0.00  0.00    +0.000 C 
ATOM     15  C   UNL     1     -32.110  18.595  -1.166  0.00  0.00    +0.000 C 
ATOM     16  C   UNL     1     -36.086  16.560  -0.507  0.00  0.00    -0.022 C 
ATOM     17  C   UNL     1     -38.491  17.212  -0.644  0.00  0.00    +0.339 C 
ENDROOT
BRANCH   6  18
ATOM     18  O   UNL     1     -37.075  19.056   1.275  0.00  0.00    -0.379 OA
ATOM     19  H   UNL     1     -36.559  19.808   1.606  0.00  0.00    +0.211 HD
ENDBRANCH   6  18
BRANCH   7  20
ATOM     20  O   UNL     1     -35.537  21.138   1.237  0.00  0.00    -0.451 OA
BRANCH  20  22
ATOM     21  O   UNL     1     -37.333  22.519   0.850  0.00  0.00    -0.248 OA
ATOM     22  C   UNL     1     -36.288  22.259   1.438  0.00  0.00    +0.335 C 
BRANCH  22  23
ATOM     23  C   UNL     1     -35.686  23.180   2.492  0.00  0.00    +0.171 C 
BRANCH  23  25
ATOM     24  O   UNL     1     -36.435  23.719   5.245  0.00  0.00    -0.275 OA
ATOM     25  N   UNL     1     -35.288  22.446   3.668  0.00  0.00    -0.297 N 
ATOM     26  C   UNL     1     -35.699  22.781   4.949  0.00  0.00    +0.223 C 
ATOM     27  C   UNL     1     -35.159  21.836   5.988  0.00  0.00    +0.095 C 
ATOM     28  H   UNL     1     -34.695  21.669   3.555  0.00  0.00    +0.150 HD
ENDBRANCH  23  25
BRANCH  23  29
ATOM     29  C   UNL     1     -34.543  24.036   1.903  0.00  0.00    +0.029 C 
ATOM     30  C   UNL     1     -34.046  25.123   2.863  0.00  0.00    +0.002 C 
ATOM     31  C   UNL     1     -34.952  24.665   0.568  0.00  0.00    +0.002 C 
ENDBRANCH  23  29
ENDBRANCH  22  23
ENDBRANCH  20  22
ENDBRANCH   7  20
TORSDOF 6
ENDMDL
MODEL 4
REMARK VINA RESULT:      -6.5      5.123      8.177
REMARK  Name = 51723030
REMARK  6 active torsions:
REMARK  status: ('A' for Active; 'I' for Inactive)
REMARK    1  A    between atoms: C_6  and  O_18
REMARK    2  A    between atoms: C_7  and  O_20
REMARK    3  A    between atoms: O_20  and  C_22
REMARK    4  A    between atoms: C_22  and  C_23
REMARK    5  A    between atoms: C_23  and  N_25
REMARK    6  A    between atoms: C_23  and  C_29
REMARK                            x       y       z     vdW  Elec       q    Type
REMARK                         _______ _______ _______ _____ _____    ______ ____
ROOT
ATOM      1  O   UNL     1     -35.152  22.896   6.356  0.00  0.00    -0.443 OA
ATOM      2  O   UNL     1     -35.326  20.823   5.357  0.00  0.00    -0.245 OA
ATOM      3  C   UNL     1     -35.516  25.331   3.473  0.00  0.00    +0.067 C 
ATOM      4  C   UNL     1     -35.133  24.850   2.008  0.00  0.00    +0.010 C 
ATOM      5  C   UNL     1     -35.340  25.883   0.835  0.00  0.00    +0.001 C 
ATOM      6  C   UNL     1     -34.888  24.262   4.451  0.00  0.00    +0.156 C 
ATOM      7  C   UNL     1     -34.973  26.772   3.734  0.00  0.00    +0.171 C 
ATOM      8  C   UNL     1     -34.827  27.284   1.252  0.00  0.00    +0.004 C 
ATOM      9  C   UNL     1     -35.333  27.754   2.614  0.00  0.00    +0.044 C 
ATOM     10  C   UNL     1     -35.704  23.429   1.710  0.00  0.00    +0.026 C 
ATOM     11  C   UNL     1     -37.059  25.379   3.673  0.00  0.00    +0.006 C 
ATOM     12  C   UNL     1     -35.265  22.872   4.086  0.00  0.00    +0.077 C 
ATOM     13  C   UNL     1     -35.305  24.265   5.914  0.00  0.00    +0.240 C 
ATOM     14  C   UNL     1     -34.492  25.434  -0.386  0.00  0.00    +0.000 C 
ATOM     15  C   UNL     1     -36.787  26.006   0.317  0.00  0.00    +0.000 C 
ATOM     16  C   UNL     1     -35.629  22.466   2.867  0.00  0.00    -0.022 C 
ATOM     17  C   UNL     1     -35.261  22.037   5.298  0.00  0.00    +0.339 C 
ENDROOT
BRANCH   6  18
ATOM     18  O   UNL     1     -33.454  24.279   4.406  0.00  0.00    -0.379 OA
ATOM     19  H   UNL     1     -33.102  24.212   5.307  0.00  0.00    +0.211 HD
ENDBRANCH   6  18
BRANCH   7  20
ATOM     20  O   UNL     1     -33.559  26.817   3.909  0.00  0.00    -0.451 OA
BRANCH  20  22
ATOM     21  O   UNL     1     -33.446  26.955   6.200  0.00  0.00    -0.248 OA
ATOM     22  C   UNL     1     -33.119  27.349   5.085  0.00  0.00    +0.335 C 
BRANCH  22  23
ATOM     23  C   UNL     1     -32.157  28.512   4.873  0.00  0.00    +0.171 C 
BRANCH  23  25
ATOM     24  O   UNL     1     -32.170  29.783   2.262  0.00  0.00    -0.275 OA
ATOM     25  N   UNL     1     -32.857  29.712   4.486  0.00  0.00    -0.297 N 
ATOM     26  C   UNL     1     -32.802  30.246   3.207  0.00  0.00    +0.223 C 
ATOM     27  C   UNL     1     -33.646  31.485   3.069  0.00  0.00    +0.095 C 
ATOM     28  H   UNL     1     -33.402  30.174   5.163  0.00  0.00    +0.150 HD
ENDBRANCH  23  25
BRANCH  23  29
ATOM     29  C   UNL     1     -31.246  28.719   6.103  0.00  0.00    +0.029 C 
ATOM     30  C   UNL     1     -31.653  29.923   6.960  0.00  0.00    +0.002 C 
ATOM     31  C   UNL     1     -29.777  28.843   5.690  0.00  0.00    +0.002 C 
ENDBRANCH  23  29
ENDBRANCH  22  23
ENDBRANCH  20  22
ENDBRANCH   7  20
TORSDOF 6
ENDMDL
MODEL 5
REMARK VINA RESULT:      -6.4      2.934      5.629
REMARK  Name = 51723030
REMARK  6 active torsions:
REMARK  status: ('A' for Active; 'I' for Inactive)
REMARK    1  A    between atoms: C_6  and  O_18
REMARK    2  A    between atoms: C_7  and  O_20
REMARK    3  A    between atoms: O_20  and  C_22
REMARK    4  A    between atoms: C_22  and  C_23
REMARK    5  A    between atoms: C_23  and  N_25
REMARK    6  A    between atoms: C_23  and  C_29
REMARK                            x       y       z     vdW  Elec       q    Type
REMARK                         _______ _______ _______ _____ _____    ______ ____
ROOT
ATOM      1  O   UNL     1     -37.431  20.320  -0.400  0.00  0.00    -0.443 OA
ATOM      2  O   UNL     1     -36.125  18.483   0.095  0.00  0.00    -0.245 OA
ATOM      3  C   UNL     1     -36.523  22.835   2.288  0.00  0.00    +0.067 C 
ATOM      4  C   UNL     1     -35.961  22.307   3.676  0.00  0.00    +0.010 C 
ATOM      5  C   UNL     1     -35.557  23.390   4.748  0.00  0.00    +0.001 C 
ATOM      6  C   UNL     1     -37.160  21.576   1.578  0.00  0.00    +0.156 C 
ATOM      7  C   UNL     1     -37.560  23.980   2.519  0.00  0.00    +0.171 C 
ATOM      8  C   UNL     1     -36.633  24.502   4.824  0.00  0.00    +0.004 C 
ATOM      9  C   UNL     1     -37.043  25.067   3.465  0.00  0.00    +0.044 C 
ATOM     10  C   UNL     1     -34.888  21.192   3.466  0.00  0.00    +0.026 C 
ATOM     11  C   UNL     1     -35.388  23.418   1.396  0.00  0.00    +0.006 C 
ATOM     12  C   UNL     1     -36.223  20.425   1.522  0.00  0.00    +0.077 C 
ATOM     13  C   UNL     1     -37.538  21.671   0.108  0.00  0.00    +0.240 C 
ATOM     14  C   UNL     1     -35.500  22.717   6.147  0.00  0.00    +0.000 C 
ATOM     15  C   UNL     1     -34.173  24.037   4.539  0.00  0.00    +0.000 C 
ATOM     16  C   UNL     1     -35.200  20.221   2.356  0.00  0.00    -0.022 C 
ATOM     17  C   UNL     1     -36.545  19.597   0.349  0.00  0.00    +0.339 C 
ENDROOT
BRANCH   6  18
ATOM     18  O   UNL     1     -38.303  21.086   2.292  0.00  0.00    -0.379 OA
ATOM     19  H   UNL     1     -39.061  21.668   2.128  0.00  0.00    +0.211 HD
ENDBRANCH   6  18
BRANCH   7  20
ATOM     20  O   UNL     1     -38.804  23.514   3.036  0.00  0.00    -0.451 OA
BRANCH  20  22
ATOM     21  O   UNL     1     -40.285  24.967   4.026  0.00  0.00    -0.248 OA
ATOM     22  C   UNL     1     -39.828  24.415   3.030  0.00  0.00    +0.335 C 
BRANCH  22  23
ATOM     23  C   UNL     1     -40.362  24.678   1.627  0.00  0.00    +0.171 C 
BRANCH  23  25
ATOM     24  O   UNL     1     -40.103  23.789  -1.125  0.00  0.00    -0.275 OA
ATOM     25  N   UNL     1     -40.908  23.480   1.038  0.00  0.00    -0.297 N 
ATOM     26  C   UNL     1     -40.730  23.138  -0.294  0.00  0.00    +0.223 C 
ATOM     27  C   UNL     1     -41.382  21.826  -0.640  0.00  0.00    +0.095 C 
ATOM     28  H   UNL     1     -41.433  22.875   1.610  0.00  0.00    +0.150 HD
ENDBRANCH  23  25
BRANCH  23  29
ATOM     29  C   UNL     1     -41.357  25.859   1.616  0.00  0.00    +0.029 C 
ATOM     30  C   UNL     1     -42.814  25.420   1.437  0.00  0.00    +0.002 C 
ATOM     31  C   UNL     1     -40.986  26.887   0.543  0.00  0.00    +0.002 C 
ENDBRANCH  23  29
ENDBRANCH  22  23
ENDBRANCH  20  22
ENDBRANCH   7  20
TORSDOF 6
ENDMDL
MODEL 6
REMARK VINA RESULT:      -6.4      5.216      7.567
REMARK  Name = 51723030
REMARK  6 active torsions:
REMARK  status: ('A' for Active; 'I' for Inactive)
REMARK    1  A    between atoms: C_6  and  O_18
REMARK    2  A    between atoms: C_7  and  O_20
REMARK    3  A    between atoms: O_20  and  C_22
REMARK    4  A    between atoms: C_22  and  C_23
REMARK    5  A    between atoms: C_23  and  N_25
REMARK    6  A    between atoms: C_23  and  C_29
REMARK                            x       y       z     vdW  Elec       q    Type
REMARK                         _______ _______ _______ _____ _____    ______ ____
ROOT
ATOM      1  O   UNL     1     -35.711  25.006   5.880  0.00  0.00    -0.443 OA
ATOM      2  O   UNL     1     -35.980  22.723   6.078  0.00  0.00    -0.245 OA
ATOM      3  C   UNL     1     -34.789  25.503   2.236  0.00  0.00    +0.067 C 
ATOM      4  C   UNL     1     -34.105  24.306   1.446  0.00  0.00    +0.010 C 
ATOM      5  C   UNL     1     -33.778  24.543  -0.078  0.00  0.00    +0.001 C 
ATOM      6  C   UNL     1     -34.672  25.127   3.765  0.00  0.00    +0.156 C 
ATOM      7  C   UNL     1     -34.083  26.854   1.896  0.00  0.00    +0.171 C 
ATOM      8  C   UNL     1     -33.151  25.945  -0.283  0.00  0.00    +0.004 C 
ATOM      9  C   UNL     1     -33.923  27.078   0.390  0.00  0.00    +0.044 C 
ATOM     10  C   UNL     1     -34.824  22.951   1.737  0.00  0.00    +0.026 C 
ATOM     11  C   UNL     1     -36.289  25.659   1.850  0.00  0.00    +0.006 C 
ATOM     12  C   UNL     1     -35.183  23.762   4.053  0.00  0.00    +0.077 C 
ATOM     13  C   UNL     1     -35.476  25.921   4.784  0.00  0.00    +0.240 C 
ATOM     14  C   UNL     1     -32.719  23.501  -0.532  0.00  0.00    +0.000 C 
ATOM     15  C   UNL     1     -34.971  24.374  -1.040  0.00  0.00    +0.000 C 
ATOM     16  C   UNL     1     -35.258  22.764   3.168  0.00  0.00    -0.022 C 
ATOM     17  C   UNL     1     -35.676  23.713   5.438  0.00  0.00    +0.339 C 
ENDROOT
BRANCH   6  18
ATOM     18  O   UNL     1     -33.307  25.109   4.205  0.00  0.00    -0.379 OA
ATOM     19  H   UNL     1     -33.265  25.362   5.141  0.00  0.00    +0.211 HD
ENDBRANCH   6  18
BRANCH   7  20
ATOM     20  O   UNL     1     -32.792  26.978   2.490  0.00  0.00    -0.451 OA
BRANCH  20  22
ATOM     21  O   UNL     1     -31.283  28.656   2.056  0.00  0.00    -0.248 OA
ATOM     22  C   UNL     1     -32.305  28.248   2.598  0.00  0.00    +0.335 C 
BRANCH  22  23
ATOM     23  C   UNL     1     -33.179  29.132   3.479  0.00  0.00    +0.171 C 
BRANCH  23  25
ATOM     24  O   UNL     1     -32.611  27.513   5.821  0.00  0.00    -0.275 OA
ATOM     25  N   UNL     1     -32.483  29.537   4.676  0.00  0.00    -0.297 N 
ATOM     26  C   UNL     1     -32.258  28.687   5.748  0.00  0.00    +0.223 C 
ATOM     27  C   UNL     1     -31.487  29.356   6.855  0.00  0.00    +0.095 C 
ATOM     28  H   UNL     1     -32.151  30.461   4.733  0.00  0.00    +0.150 HD
ENDBRANCH  23  25
BRANCH  23  29
ATOM     29  C   UNL     1     -33.749  30.327   2.684  0.00  0.00    +0.029 C 
ATOM     30  C   UNL     1     -33.035  31.650   2.985  0.00  0.00    +0.002 C 
ATOM     31  C   UNL     1     -35.255  30.482   2.918  0.00  0.00    +0.002 C 
ENDBRANCH  23  29
ENDBRANCH  22  23
ENDBRANCH  20  22
ENDBRANCH   7  20
TORSDOF 6
ENDMDL
MODEL 7
REMARK VINA RESULT:      -6.4      6.427      9.008
REMARK  Name = 51723030
REMARK  6 active torsions:
REMARK  status: ('A' for Active; 'I' for Inactive)
REMARK    1  A    between atoms: C_6  and  O_18
REMARK    2  A    between atoms: C_7  and  O_20
REMARK    3  A    between atoms: O_20  and  C_22
REMARK    4  A    between atoms: C_22  and  C_23
REMARK    5  A    between atoms: C_23  and  N_25
REMARK    6  A    between atoms: C_23  and  C_29
REMARK                            x       y       z     vdW  Elec       q    Type
REMARK                         _______ _______ _______ _____ _____    ______ ____
ROOT
ATOM      1  O   UNL     1     -36.052  24.899   5.582  0.00  0.00    -0.443 OA
ATOM      2  O   UNL     1     -36.536  22.892   4.552  0.00  0.00    -0.245 OA
ATOM      3  C   UNL     1     -34.011  26.781   2.999  0.00  0.00    +0.067 C 
ATOM      4  C   UNL     1     -33.207  25.956   1.906  0.00  0.00    +0.010 C 
ATOM      5  C   UNL     1     -32.406  26.781   0.827  0.00  0.00    +0.001 C 
ATOM      6  C   UNL     1     -34.403  25.738   4.119  0.00  0.00    +0.156 C 
ATOM      7  C   UNL     1     -33.138  27.952   3.552  0.00  0.00    +0.171 C 
ATOM      8  C   UNL     1     -31.646  27.952   1.498  0.00  0.00    +0.004 C 
ATOM      9  C   UNL     1     -32.503  28.794   2.441  0.00  0.00    +0.044 C 
ATOM     10  C   UNL     1     -34.078  24.807   1.308  0.00  0.00    +0.026 C 
ATOM     11  C   UNL     1     -35.302  27.414   2.402  0.00  0.00    +0.006 C 
ATOM     12  C   UNL     1     -35.076  24.537   3.562  0.00  0.00    +0.077 C 
ATOM     13  C   UNL     1     -35.422  26.137   5.175  0.00  0.00    +0.240 C 
ATOM     14  C   UNL     1     -31.338  25.858   0.179  0.00  0.00    +0.000 C 
ATOM     15  C   UNL     1     -33.252  27.327  -0.341  0.00  0.00    +0.000 C 
ATOM     16  C   UNL     1     -34.947  24.090   2.310  0.00  0.00    -0.022 C 
ATOM     17  C   UNL     1     -35.977  23.973   4.580  0.00  0.00    +0.339 C 
ENDROOT
BRANCH   6  18
ATOM     18  O   UNL     1     -33.246  25.230   4.798  0.00  0.00    -0.379 OA
ATOM     19  H   UNL     1     -32.810  25.951   5.279  0.00  0.00    +0.211 HD
ENDBRANCH   6  18
BRANCH   7  20
ATOM     20  O   UNL     1     -32.090  27.513   4.413  0.00  0.00    -0.451 OA
BRANCH  20  22
ATOM     21  O   UNL     1     -32.404  29.161   5.984  0.00  0.00    -0.248 OA
ATOM     22  C   UNL     1     -31.668  28.413   5.347  0.00  0.00    +0.335 C 
BRANCH  22  23
ATOM     23  C   UNL     1     -30.155  28.398   5.527  0.00  0.00    +0.171 C 
BRANCH  23  25
ATOM     24  O   UNL     1     -27.997  26.566   4.883  0.00  0.00    -0.275 OA
ATOM     25  N   UNL     1     -29.475  28.255   4.263  0.00  0.00    -0.297 N 
ATOM     26  C   UNL     1     -28.450  27.346   4.050  0.00  0.00    +0.223 C 
ATOM     27  C   UNL     1     -27.935  27.386   2.636  0.00  0.00    +0.095 C 
ATOM     28  H   UNL     1     -29.753  28.830   3.515  0.00  0.00    +0.150 HD
ENDBRANCH  23  25
BRANCH  23  29
ATOM     29  C   UNL     1     -29.673  29.625   6.332  0.00  0.00    +0.029 C 
ATOM     30  C   UNL     1     -29.165  30.767   5.445  0.00  0.00    +0.002 C 
ATOM     31  C   UNL     1     -28.596  29.234   7.348  0.00  0.00    +0.002 C 
ENDBRANCH  23  29
ENDBRANCH  22  23
ENDBRANCH  20  22
ENDBRANCH   7  20
TORSDOF 6
ENDMDL
MODEL 8
REMARK VINA RESULT:      -6.3      2.362      3.907
REMARK  Name = 51723030
REMARK  6 active torsions:
REMARK  status: ('A' for Active; 'I' for Inactive)
REMARK    1  A    between atoms: C_6  and  O_18
REMARK    2  A    between atoms: C_7  and  O_20
REMARK    3  A    between atoms: O_20  and  C_22
REMARK    4  A    between atoms: C_22  and  C_23
REMARK    5  A    between atoms: C_23  and  N_25
REMARK    6  A    between atoms: C_23  and  C_29
REMARK                            x       y       z     vdW  Elec       q    Type
REMARK                         _______ _______ _______ _____ _____    ______ ____
ROOT
ATOM      1  O   UNL     1     -40.928  22.381   0.802  0.00  0.00    -0.443 OA
ATOM      2  O   UNL     1     -41.809  20.629  -0.415  0.00  0.00    -0.245 OA
ATOM      3  C   UNL     1     -37.180  21.841   0.597  0.00  0.00    +0.067 C 
ATOM      4  C   UNL     1     -36.629  20.373   0.344  0.00  0.00    +0.010 C 
ATOM      5  C   UNL     1     -35.066  20.203   0.224  0.00  0.00    +0.001 C 
ATOM      6  C   UNL     1     -38.692  21.662   1.020  0.00  0.00    +0.156 C 
ATOM      7  C   UNL     1     -36.334  22.562   1.693  0.00  0.00    +0.171 C 
ATOM      8  C   UNL     1     -34.347  21.025   1.323  0.00  0.00    +0.004 C 
ATOM      9  C   UNL     1     -34.827  22.471   1.435  0.00  0.00    +0.044 C 
ATOM     10  C   UNL     1     -37.434  19.651  -0.781  0.00  0.00    +0.026 C 
ATOM     11  C   UNL     1     -37.099  22.712  -0.692  0.00  0.00    +0.006 C 
ATOM     12  C   UNL     1     -39.452  20.821   0.059  0.00  0.00    +0.077 C 
ATOM     13  C   UNL     1     -39.596  22.885   1.061  0.00  0.00    +0.240 C 
ATOM     14  C   UNL     1     -34.703  18.712   0.462  0.00  0.00    +0.000 C 
ATOM     15  C   UNL     1     -34.470  20.565  -1.152  0.00  0.00    +0.000 C 
ATOM     16  C   UNL     1     -38.919  19.907  -0.756  0.00  0.00    -0.022 C 
ATOM     17  C   UNL     1     -40.868  21.219   0.085  0.00  0.00    +0.339 C 
ENDROOT
BRANCH   6  18
ATOM     18  O   UNL     1     -38.814  20.986   2.279  0.00  0.00    -0.379 OA
ATOM     19  H   UNL     1     -38.022  21.153   2.814  0.00  0.00    +0.211 HD
ENDBRANCH   6  18
BRANCH   7  20
ATOM     20  O   UNL     1     -36.577  22.064   3.007  0.00  0.00    -0.451 OA
BRANCH  20  22
ATOM     21  O   UNL     1     -36.025  22.632   5.165  0.00  0.00    -0.248 OA
ATOM     22  C   UNL     1     -36.362  22.944   4.028  0.00  0.00    +0.335 C 
BRANCH  22  23
ATOM     23  C   UNL     1     -36.586  24.390   3.604  0.00  0.00    +0.171 C 
BRANCH  23  25
ATOM     24  O   UNL     1     -38.247  26.031   1.878  0.00  0.00    -0.275 OA
ATOM     25  N   UNL     1     -37.949  24.802   3.833  0.00  0.00    -0.297 N 
ATOM     26  C   UNL     1     -38.664  25.591   2.945  0.00  0.00    +0.223 C 
ATOM     27  C   UNL     1     -40.071  25.850   3.416  0.00  0.00    +0.095 C 
ATOM     28  H   UNL     1     -38.393  24.508   4.661  0.00  0.00    +0.150 HD
ENDBRANCH  23  25
BRANCH  23  29
ATOM     29  C   UNL     1     -35.555  25.334   4.262  0.00  0.00    +0.029 C 
ATOM     30  C   UNL     1     -36.081  26.010   5.533  0.00  0.00    +0.002 C 
ATOM     31  C   UNL     1     -35.062  26.394   3.272  0.00  0.00    +0.002 C 
ENDBRANCH  23  29
ENDBRANCH  22  23
ENDBRANCH  20  22
ENDBRANCH   7  20
TORSDOF 6
ENDMDL
MODEL 9
REMARK VINA RESULT:      -6.2      3.863      8.047
REMARK  Name = 51723030
REMARK  6 active torsions:
REMARK  status: ('A' for Active; 'I' for Inactive)
REMARK    1  A    between atoms: C_6  and  O_18
REMARK    2  A    between atoms: C_7  and  O_20
REMARK    3  A    between atoms: O_20  and  C_22
REMARK    4  A    between atoms: C_22  and  C_23
REMARK    5  A    between atoms: C_23  and  N_25
REMARK    6  A    between atoms: C_23  and  C_29
REMARK                            x       y       z     vdW  Elec       q    Type
REMARK                         _______ _______ _______ _____ _____    ______ ____
ROOT
ATOM      1  O   UNL     1     -33.537  26.920   3.573  0.00  0.00    -0.443 OA
ATOM      2  O   UNL     1     -33.591  29.213   3.824  0.00  0.00    -0.245 OA
ATOM      3  C   UNL     1     -36.215  26.224   0.980  0.00  0.00    +0.067 C 
ATOM      4  C   UNL     1     -37.409  27.259   0.812  0.00  0.00    +0.010 C 
ATOM      5  C   UNL     1     -38.476  26.950  -0.307  0.00  0.00    +0.001 C 
ATOM      6  C   UNL     1     -35.531  26.582   2.358  0.00  0.00    +0.156 C 
ATOM      7  C   UNL     1     -36.752  24.759   0.941  0.00  0.00    +0.171 C 
ATOM      8  C   UNL     1     -38.867  25.451  -0.282  0.00  0.00    +0.004 C 
ATOM      9  C   UNL     1     -37.675  24.496  -0.253  0.00  0.00    +0.044 C 
ATOM     10  C   UNL     1     -36.888  28.730   0.803  0.00  0.00    +0.026 C 
ATOM     11  C   UNL     1     -35.174  26.362  -0.170  0.00  0.00    +0.006 C 
ATOM     12  C   UNL     1     -35.183  28.023   2.460  0.00  0.00    +0.077 C 
ATOM     13  C   UNL     1     -34.180  25.968   2.692  0.00  0.00    +0.240 C 
ATOM     14  C   UNL     1     -39.767  27.761  -0.008  0.00  0.00    +0.000 C 
ATOM     15  C   UNL     1     -38.058  27.342  -1.739  0.00  0.00    +0.000 C 
ATOM     16  C   UNL     1     -35.776  29.009   1.782  0.00  0.00    -0.022 C 
ATOM     17  C   UNL     1     -34.025  28.178   3.354  0.00  0.00    +0.339 C 
ENDROOT
BRANCH   6  18
ATOM     18  O   UNL     1     -36.408  26.336   3.466  0.00  0.00    -0.379 OA
ATOM     19  H   UNL     1     -36.071  25.590   3.986  0.00  0.00    +0.211 HD
ENDBRANCH   6  18
BRANCH   7  20
ATOM     20  O   UNL     1     -37.460  24.389   2.123  0.00  0.00    -0.451 OA
BRANCH  20  22
ATOM     21  O   UNL     1     -38.359  22.320   2.562  0.00  0.00    -0.248 OA
ATOM     22  C   UNL     1     -37.394  23.071   2.470  0.00  0.00    +0.335 C 
BRANCH  22  23
ATOM     23  C   UNL     1     -35.966  22.613   2.738  0.00  0.00    +0.171 C 
BRANCH  23  25
ATOM     24  O   UNL     1     -35.522  24.085   5.202  0.00  0.00    -0.275 OA
ATOM     25  N   UNL     1     -35.826  22.073   4.069  0.00  0.00    -0.297 N 
ATOM     26  C   UNL     1     -35.615  22.860   5.190  0.00  0.00    +0.223 C 
ATOM     27  C   UNL     1     -35.532  22.045   6.453  0.00  0.00    +0.095 C 
ATOM     28  H   UNL     1     -35.884  21.098   4.185  0.00  0.00    +0.150 HD
ENDBRANCH  23  25
BRANCH  23  29
ATOM     29  C   UNL     1     -35.472  21.643   1.643  0.00  0.00    +0.029 C 
ATOM     30  C   UNL     1     -35.086  20.263   2.186  0.00  0.00    +0.002 C 
ATOM     31  C   UNL     1     -34.301  22.241   0.858  0.00  0.00    +0.002 C 
ENDBRANCH  23  29
ENDBRANCH  22  23
ENDBRANCH  20  22
ENDBRANCH   7  20
TORSDOF 6
ENDMDL
