MODEL 1
REMARK VINA RESULT:      -6.1      0.000      0.000
REMARK  Name = 60750
REMARK  4 active torsions:
REMARK  status: ('A' for Active; 'I' for Inactive)
REMARK    1  A    between atoms: C_4  and  O_18
REMARK    2  A    between atoms: C_6  and  C_20
REMARK    3  A    between atoms: C_7  and  N_9
REMARK    4  A    between atoms: C_20  and  O_21
REMARK                            x       y       z     vdW  Elec       q    Type
REMARK                         _______ _______ _______ _____ _____    ______ ____
ROOT
ATOM      1  F   UNL     1     -34.132  24.669   4.776  0.00  0.00    -0.197 F 
ATOM      2  F   UNL     1     -35.514  25.793   6.032  0.00  0.00    -0.197 F 
ATOM      3  O   UNL     1     -37.588  24.564   4.164  0.00  0.00    -0.330 OA
ATOM      4  C   UNL     1     -35.775  25.990   3.699  0.00  0.00    +0.206 C 
ATOM      5  C   UNL     1     -35.396  25.116   4.866  0.00  0.00    +0.333 C 
ATOM      6  C   UNL     1     -37.288  25.915   3.765  0.00  0.00    +0.179 C 
ATOM      7  C   UNL     1     -36.430  24.010   4.817  0.00  0.00    +0.272 C 
ENDROOT
BRANCH   7   9
ATOM      8  O   UNL     1     -35.365  21.646   5.920  0.00  0.00    -0.193 OA
ATOM      9  N   UNL     1     -35.991  22.867   4.065  0.00  0.00    -0.175 N 
ATOM     10  N   UNL     1     -35.063  20.647   3.904  0.00  0.00    -0.306 NA
ATOM     11  N   UNL     1     -34.753  19.630   1.836  0.00  0.00    -0.332 N 
ATOM     12  C   UNL     1     -36.087  22.906   2.683  0.00  0.00    +0.084 C 
ATOM     13  C   UNL     1     -35.466  21.711   4.693  0.00  0.00    +0.276 C 
ATOM     14  C   UNL     1     -35.704  21.893   1.906  0.00  0.00    +0.065 C 
ATOM     15  C   UNL     1     -35.160  20.698   2.601  0.00  0.00    +0.193 C 
ATOM     16  H   UNL     1     -34.388  18.823   2.269  0.00  0.00    +0.145 HD
ATOM     17  H   UNL     1     -34.828  19.670   0.855  0.00  0.00    +0.145 HD
ENDBRANCH   7   9
BRANCH   4  18
ATOM     18  O   UNL     1     -35.310  27.316   3.845  0.00  0.00    -0.377 OA
ATOM     19  H   UNL     1     -35.198  27.718   2.970  0.00  0.00    +0.211 HD
ENDBRANCH   4  18
BRANCH   6  20
ATOM     20  C   UNL     1     -37.965  26.220   2.442  0.00  0.00    +0.169 C 
BRANCH  20  21
ATOM     21  O   UNL     1     -37.470  27.453   1.947  0.00  0.00    -0.379 OA
ATOM     22  H   UNL     1     -36.868  27.845   2.599  0.00  0.00    +0.211 HD
ENDBRANCH  20  21
ENDBRANCH   6  20
TORSDOF 4
ENDMDL
MODEL 2
REMARK VINA RESULT:      -5.7      2.495      5.029
REMARK  Name = 60750
REMARK  4 active torsions:
REMARK  status: ('A' for Active; 'I' for Inactive)
REMARK    1  A    between atoms: C_4  and  O_18
REMARK    2  A    between atoms: C_6  and  C_20
REMARK    3  A    between atoms: C_7  and  N_9
REMARK    4  A    between atoms: C_20  and  O_21
REMARK                            x       y       z     vdW  Elec       q    Type
REMARK                         _______ _______ _______ _____ _____    ______ ____
ROOT
ATOM      1  F   UNL     1     -36.182  23.652   5.541  0.00  0.00    -0.197 F 
ATOM      2  F   UNL     1     -34.112  23.271   4.973  0.00  0.00    -0.197 F 
ATOM      3  O   UNL     1     -35.364  22.829   2.227  0.00  0.00    -0.330 OA
ATOM      4  C   UNL     1     -35.729  21.711   4.266  0.00  0.00    +0.206 C 
ATOM      5  C   UNL     1     -35.399  23.148   4.572  0.00  0.00    +0.333 C 
ATOM      6  C   UNL     1     -35.125  21.568   2.881  0.00  0.00    +0.179 C 
ATOM      7  C   UNL     1     -35.579  23.835   3.234  0.00  0.00    +0.272 C 
ENDROOT
BRANCH   7   9
ATOM      8  O   UNL     1     -36.247  26.570   3.350  0.00  0.00    -0.193 OA
ATOM      9  N   UNL     1     -36.899  24.376   3.057  0.00  0.00    -0.175 N 
ATOM     10  N   UNL     1     -38.453  26.217   2.947  0.00  0.00    -0.306 NA
ATOM     11  N   UNL     1     -40.712  25.848   2.537  0.00  0.00    -0.332 N 
ATOM     12  C   UNL     1     -37.946  23.503   2.810  0.00  0.00    +0.084 C 
ATOM     13  C   UNL     1     -37.156  25.768   3.129  0.00  0.00    +0.276 C 
ATOM     14  C   UNL     1     -39.201  23.915   2.633  0.00  0.00    +0.065 C 
ATOM     15  C   UNL     1     -39.431  25.381   2.714  0.00  0.00    +0.193 C 
ATOM     16  H   UNL     1     -40.895  26.815   2.585  0.00  0.00    +0.145 HD
ATOM     17  H   UNL     1     -41.447  25.217   2.361  0.00  0.00    +0.145 HD
ENDBRANCH   7   9
BRANCH   4  18
ATOM     18  O   UNL     1     -35.144  20.814   5.186  0.00  0.00    -0.377 OA
ATOM     19  H   UNL     1     -34.192  20.991   5.252  0.00  0.00    +0.211 HD
ENDBRANCH   4  18
BRANCH   6  20
ATOM     20  C   UNL     1     -35.741  20.445   2.067  0.00  0.00    +0.169 C 
BRANCH  20  21
ATOM     21  O   UNL     1     -36.780  19.847   2.825  0.00  0.00    -0.379 OA
ATOM     22  H   UNL     1     -37.507  19.594   2.234  0.00  0.00    +0.211 HD
ENDBRANCH  20  21
ENDBRANCH   6  20
TORSDOF 4
ENDMDL
MODEL 3
REMARK VINA RESULT:      -5.5      2.931      5.530
REMARK  Name = 60750
REMARK  4 active torsions:
REMARK  status: ('A' for Active; 'I' for Inactive)
REMARK    1  A    between atoms: C_4  and  O_18
REMARK    2  A    between atoms: C_6  and  C_20
REMARK    3  A    between atoms: C_7  and  N_9
REMARK    4  A    between atoms: C_20  and  O_21
REMARK                            x       y       z     vdW  Elec       q    Type
REMARK                         _______ _______ _______ _____ _____    ______ ____
ROOT
ATOM      1  F   UNL     1     -35.079  24.474   1.926  0.00  0.00    -0.197 F 
ATOM      2  F   UNL     1     -37.014  23.509   2.202  0.00  0.00    -0.197 F 
ATOM      3  O   UNL     1     -36.444  24.098   5.139  0.00  0.00    -0.330 OA
ATOM      4  C   UNL     1     -35.248  22.795   3.587  0.00  0.00    +0.206 C 
ATOM      5  C   UNL     1     -35.899  23.931   2.842  0.00  0.00    +0.333 C 
ATOM      6  C   UNL     1     -36.118  22.731   4.827  0.00  0.00    +0.179 C 
ATOM      7  C   UNL     1     -36.284  24.892   3.948  0.00  0.00    +0.272 C 
ENDROOT
BRANCH   7   9
ATOM      8  O   UNL     1     -35.973  27.294   2.508  0.00  0.00    -0.193 OA
ATOM      9  N   UNL     1     -35.279  25.887   4.200  0.00  0.00    -0.175 N 
ATOM     10  N   UNL     1     -34.192  27.988   3.730  0.00  0.00    -0.306 NA
ATOM     11  N   UNL     1     -32.365  28.693   4.985  0.00  0.00    -0.332 N 
ATOM     12  C   UNL     1     -34.375  25.672   5.228  0.00  0.00    +0.084 C 
ATOM     13  C   UNL     1     -35.187  27.073   3.430  0.00  0.00    +0.276 C 
ATOM     14  C   UNL     1     -33.410  26.539   5.532  0.00  0.00    +0.065 C 
ATOM     15  C   UNL     1     -33.346  27.771   4.704  0.00  0.00    +0.193 C 
ATOM     16  H   UNL     1     -32.298  29.520   4.453  0.00  0.00    +0.145 HD
ATOM     17  H   UNL     1     -31.730  28.528   5.719  0.00  0.00    +0.145 HD
ENDBRANCH   7   9
BRANCH   4  18
ATOM     18  O   UNL     1     -35.280  21.585   2.861  0.00  0.00    -0.377 OA
ATOM     19  H   UNL     1     -36.201  21.322   2.709  0.00  0.00    +0.211 HD
ENDBRANCH   4  18
BRANCH   6  20
ATOM     20  C   UNL     1     -35.429  22.085   6.015  0.00  0.00    +0.169 C 
BRANCH  20  21
ATOM     21  O   UNL     1     -35.288  20.696   5.764  0.00  0.00    -0.379 OA
ATOM     22  H   UNL     1     -35.768  20.195   6.442  0.00  0.00    +0.211 HD
ENDBRANCH  20  21
ENDBRANCH   6  20
TORSDOF 4
ENDMDL
MODEL 4
REMARK VINA RESULT:      -5.3      2.993      4.299
REMARK  Name = 60750
REMARK  4 active torsions:
REMARK  status: ('A' for Active; 'I' for Inactive)
REMARK    1  A    between atoms: C_4  and  O_18
REMARK    2  A    between atoms: C_6  and  C_20
REMARK    3  A    between atoms: C_7  and  N_9
REMARK    4  A    between atoms: C_20  and  O_21
REMARK                            x       y       z     vdW  Elec       q    Type
REMARK                         _______ _______ _______ _____ _____    ______ ____
ROOT
ATOM      1  F   UNL     1     -36.009  23.554   1.284  0.00  0.00    -0.197 F 
ATOM      2  F   UNL     1     -34.722  22.583   2.752  0.00  0.00    -0.197 F 
ATOM      3  O   UNL     1     -36.816  23.642   4.700  0.00  0.00    -0.330 OA
ATOM      4  C   UNL     1     -35.404  24.791   3.209  0.00  0.00    +0.206 C 
ATOM      5  C   UNL     1     -35.745  23.457   2.598  0.00  0.00    +0.333 C 
ATOM      6  C   UNL     1     -35.667  24.508   4.676  0.00  0.00    +0.179 C 
ATOM      7  C   UNL     1     -36.932  22.995   3.418  0.00  0.00    +0.272 C 
ENDROOT
BRANCH   7   9
ATOM      8  O   UNL     1     -38.572  21.308   1.869  0.00  0.00    -0.193 OA
ATOM      9  N   UNL     1     -38.191  23.368   2.837  0.00  0.00    -0.175 N 
ATOM     10  N   UNL     1     -40.167  22.889   1.539  0.00  0.00    -0.306 NA
ATOM     11  N   UNL     1     -41.796  24.514   1.202  0.00  0.00    -0.332 N 
ATOM     12  C   UNL     1     -38.660  24.657   3.037  0.00  0.00    +0.084 C 
ATOM     13  C   UNL     1     -38.962  22.460   2.068  0.00  0.00    +0.276 C 
ATOM     14  C   UNL     1     -39.816  25.089   2.536  0.00  0.00    +0.065 C 
ATOM     15  C   UNL     1     -40.596  24.108   1.737  0.00  0.00    +0.193 C 
ATOM     16  H   UNL     1     -42.335  23.885   0.667  0.00  0.00    +0.145 HD
ATOM     17  H   UNL     1     -42.118  25.432   1.353  0.00  0.00    +0.145 HD
ENDBRANCH   7   9
BRANCH   4  18
ATOM     18  O   UNL     1     -34.061  25.162   2.980  0.00  0.00    -0.377 OA
ATOM     19  H   UNL     1     -33.496  24.779   3.668  0.00  0.00    +0.211 HD
ENDBRANCH   4  18
BRANCH   6  20
ATOM     20  C   UNL     1     -35.950  25.757   5.490  0.00  0.00    +0.169 C 
BRANCH  20  21
ATOM     21  O   UNL     1     -35.830  26.891   4.646  0.00  0.00    -0.379 OA
ATOM     22  H   UNL     1     -36.191  27.670   5.097  0.00  0.00    +0.211 HD
ENDBRANCH  20  21
ENDBRANCH   6  20
TORSDOF 4
ENDMDL
MODEL 5
REMARK VINA RESULT:      -5.3      2.017      2.896
REMARK  Name = 60750
REMARK  4 active torsions:
REMARK  status: ('A' for Active; 'I' for Inactive)
REMARK    1  A    between atoms: C_4  and  O_18
REMARK    2  A    between atoms: C_6  and  C_20
REMARK    3  A    between atoms: C_7  and  N_9
REMARK    4  A    between atoms: C_20  and  O_21
REMARK                            x       y       z     vdW  Elec       q    Type
REMARK                         _______ _______ _______ _____ _____    ______ ____
ROOT
ATOM      1  F   UNL     1     -35.912  24.095   5.731  0.00  0.00    -0.197 F 
ATOM      2  F   UNL     1     -36.132  26.259   5.587  0.00  0.00    -0.197 F 
ATOM      3  O   UNL     1     -35.315  25.750   2.693  0.00  0.00    -0.330 OA
ATOM      4  C   UNL     1     -34.165  25.314   4.699  0.00  0.00    +0.206 C 
ATOM      5  C   UNL     1     -35.640  25.163   4.962  0.00  0.00    +0.333 C 
ATOM      6  C   UNL     1     -34.184  26.195   3.465  0.00  0.00    +0.179 C 
ATOM      7  C   UNL     1     -36.231  25.068   3.570  0.00  0.00    +0.272 C 
ENDROOT
BRANCH   7   9
ATOM      8  O   UNL     1     -38.674  23.715   3.202  0.00  0.00    -0.193 OA
ATOM      9  N   UNL     1     -36.368  23.713   3.113  0.00  0.00    -0.175 N 
ATOM     10  N   UNL     1     -37.693  21.790   2.506  0.00  0.00    -0.306 NA
ATOM     11  N   UNL     1     -36.680  19.820   1.797  0.00  0.00    -0.332 N 
ATOM     12  C   UNL     1     -35.222  22.989   2.825  0.00  0.00    +0.084 C 
ATOM     13  C   UNL     1     -37.636  23.100   2.952  0.00  0.00    +0.276 C 
ATOM     14  C   UNL     1     -35.255  21.728   2.396  0.00  0.00    +0.065 C 
ATOM     15  C   UNL     1     -36.602  21.121   2.237  0.00  0.00    +0.193 C 
ATOM     16  H   UNL     1     -37.560  19.391   1.682  0.00  0.00    +0.145 HD
ATOM     17  H   UNL     1     -35.858  19.318   1.595  0.00  0.00    +0.145 HD
ENDBRANCH   7   9
BRANCH   4  18
ATOM     18  O   UNL     1     -33.485  25.930   5.773  0.00  0.00    -0.377 OA
ATOM     19  H   UNL     1     -32.746  26.455   5.430  0.00  0.00    +0.211 HD
ENDBRANCH   4  18
BRANCH   6  20
ATOM     20  C   UNL     1     -32.921  26.090   2.630  0.00  0.00    +0.169 C 
BRANCH  20  21
ATOM     21  O   UNL     1     -31.843  26.659   3.355  0.00  0.00    -0.379 OA
ATOM     22  H   UNL     1     -31.947  26.460   4.299  0.00  0.00    +0.211 HD
ENDBRANCH  20  21
ENDBRANCH   6  20
TORSDOF 4
ENDMDL
MODEL 6
REMARK VINA RESULT:      -5.3      2.575      3.878
REMARK  Name = 60750
REMARK  4 active torsions:
REMARK  status: ('A' for Active; 'I' for Inactive)
REMARK    1  A    between atoms: C_4  and  O_18
REMARK    2  A    between atoms: C_6  and  C_20
REMARK    3  A    between atoms: C_7  and  N_9
REMARK    4  A    between atoms: C_20  and  O_21
REMARK                            x       y       z     vdW  Elec       q    Type
REMARK                         _______ _______ _______ _____ _____    ______ ____
ROOT
ATOM      1  F   UNL     1     -36.899  26.561   3.044  0.00  0.00    -0.197 F 
ATOM      2  F   UNL     1     -35.876  27.338   1.283  0.00  0.00    -0.197 F 
ATOM      3  O   UNL     1     -33.476  25.953   2.557  0.00  0.00    -0.330 OA
ATOM      4  C   UNL     1     -34.843  27.686   3.371  0.00  0.00    +0.206 C 
ATOM      5  C   UNL     1     -35.689  26.789   2.507  0.00  0.00    +0.333 C 
ATOM      6  C   UNL     1     -33.457  27.362   2.847  0.00  0.00    +0.179 C 
ATOM      7  C   UNL     1     -34.843  25.539   2.376  0.00  0.00    +0.272 C 
ENDROOT
BRANCH   7   9
ATOM      8  O   UNL     1     -36.734  23.471   2.085  0.00  0.00    -0.193 OA
ATOM      9  N   UNL     1     -35.151  24.550   3.371  0.00  0.00    -0.175 N 
ATOM     10  N   UNL     1     -36.361  22.616   4.155  0.00  0.00    -0.306 NA
ATOM     11  N   UNL     1     -35.976  21.747   6.277  0.00  0.00    -0.332 N 
ATOM     12  C   UNL     1     -34.479  24.595   4.582  0.00  0.00    +0.084 C 
ATOM     13  C   UNL     1     -36.117  23.537   3.150  0.00  0.00    +0.276 C 
ATOM     14  C   UNL     1     -34.700  23.719   5.562  0.00  0.00    +0.065 C 
ATOM     15  C   UNL     1     -35.718  22.671   5.292  0.00  0.00    +0.193 C 
ATOM     16  H   UNL     1     -36.647  21.040   6.127  0.00  0.00    +0.145 HD
ATOM     17  H   UNL     1     -35.491  21.789   7.132  0.00  0.00    +0.145 HD
ENDBRANCH   7   9
BRANCH   4  18
ATOM     18  O   UNL     1     -35.160  29.052   3.205  0.00  0.00    -0.377 OA
ATOM     19  H   UNL     1     -35.810  29.150   2.493  0.00  0.00    +0.211 HD
ENDBRANCH   4  18
BRANCH   6  20
ATOM     20  C   UNL     1     -32.350  27.665   3.841  0.00  0.00    +0.169 C 
BRANCH  20  21
ATOM     21  O   UNL     1     -32.935  28.081   5.065  0.00  0.00    -0.379 OA
ATOM     22  H   UNL     1     -32.405  28.797   5.450  0.00  0.00    +0.211 HD
ENDBRANCH  20  21
ENDBRANCH   6  20
TORSDOF 4
ENDMDL
MODEL 7
REMARK VINA RESULT:      -5.2      2.970      4.617
REMARK  Name = 60750
REMARK  4 active torsions:
REMARK  status: ('A' for Active; 'I' for Inactive)
REMARK    1  A    between atoms: C_4  and  O_18
REMARK    2  A    between atoms: C_6  and  C_20
REMARK    3  A    between atoms: C_7  and  N_9
REMARK    4  A    between atoms: C_20  and  O_21
REMARK                            x       y       z     vdW  Elec       q    Type
REMARK                         _______ _______ _______ _____ _____    ______ ____
ROOT
ATOM      1  F   UNL     1     -35.233  22.666   3.022  0.00  0.00    -0.197 F 
ATOM      2  F   UNL     1     -36.200  22.792   1.073  0.00  0.00    -0.197 F 
ATOM      3  O   UNL     1     -37.229  25.434   2.197  0.00  0.00    -0.330 OA
ATOM      4  C   UNL     1     -37.531  23.231   2.966  0.00  0.00    +0.206 C 
ATOM      5  C   UNL     1     -36.174  23.319   2.320  0.00  0.00    +0.333 C 
ATOM      6  C   UNL     1     -38.233  24.409   2.319  0.00  0.00    +0.179 C 
ATOM      7  C   UNL     1     -35.930  24.812   2.231  0.00  0.00    +0.272 C 
ENDROOT
BRANCH   7   9
ATOM      8  O   UNL     1     -33.184  25.441   2.268  0.00  0.00    -0.193 OA
ATOM      9  N   UNL     1     -35.212  25.328   3.364  0.00  0.00    -0.175 N 
ATOM     10  N   UNL     1     -33.201  26.119   4.435  0.00  0.00    -0.306 NA
ATOM     11  N   UNL     1     -33.224  26.809   6.655  0.00  0.00    -0.332 N 
ATOM     12  C   UNL     1     -35.902  25.542   4.546  0.00  0.00    +0.084 C 
ATOM     13  C   UNL     1     -33.827  25.622   3.304  0.00  0.00    +0.276 C 
ATOM     14  C   UNL     1     -35.318  26.018   5.645  0.00  0.00    +0.065 C 
ATOM     15  C   UNL     1     -33.866  26.316   5.543  0.00  0.00    +0.193 C 
ATOM     16  H   UNL     1     -32.261  27.016   6.618  0.00  0.00    +0.145 HD
ATOM     17  H   UNL     1     -33.726  26.957   7.489  0.00  0.00    +0.145 HD
ENDBRANCH   7   9
BRANCH   4  18
ATOM     18  O   UNL     1     -38.185  22.012   2.684  0.00  0.00    -0.377 OA
ATOM     19  H   UNL     1     -37.902  21.336   3.319  0.00  0.00    +0.211 HD
ENDBRANCH   4  18
BRANCH   6  20
ATOM     20  C   UNL     1     -39.403  24.934   3.131  0.00  0.00    +0.169 C 
BRANCH  20  21
ATOM     21  O   UNL     1     -39.179  26.304   3.425  0.00  0.00    -0.379 OA
ATOM     22  H   UNL     1     -38.444  26.634   2.885  0.00  0.00    +0.211 HD
ENDBRANCH  20  21
ENDBRANCH   6  20
TORSDOF 4
ENDMDL
MODEL 8
REMARK VINA RESULT:      -5.1      1.842      2.164
REMARK  Name = 60750
REMARK  4 active torsions:
REMARK  status: ('A' for Active; 'I' for Inactive)
REMARK    1  A    between atoms: C_4  and  O_18
REMARK    2  A    between atoms: C_6  and  C_20
REMARK    3  A    between atoms: C_7  and  N_9
REMARK    4  A    between atoms: C_20  and  O_21
REMARK                            x       y       z     vdW  Elec       q    Type
REMARK                         _______ _______ _______ _____ _____    ______ ____
ROOT
ATOM      1  F   UNL     1     -35.559  25.123   2.235  0.00  0.00    -0.197 F 
ATOM      2  F   UNL     1     -36.210  26.526   3.771  0.00  0.00    -0.197 F 
ATOM      3  O   UNL     1     -38.651  24.698   3.844  0.00  0.00    -0.330 OA
ATOM      4  C   UNL     1     -37.760  25.981   2.083  0.00  0.00    +0.206 C 
ATOM      5  C   UNL     1     -36.620  25.526   2.955  0.00  0.00    +0.333 C 
ATOM      6  C   UNL     1     -38.922  25.869   3.052  0.00  0.00    +0.179 C 
ATOM      7  C   UNL     1     -37.239  24.419   3.784  0.00  0.00    +0.272 C 
ENDROOT
BRANCH   7   9
ATOM      8  O   UNL     1     -35.058  22.704   4.270  0.00  0.00    -0.193 OA
ATOM      9  N   UNL     1     -37.060  23.118   3.201  0.00  0.00    -0.175 N 
ATOM     10  N   UNL     1     -35.827  21.067   2.899  0.00  0.00    -0.306 NA
ATOM     11  N   UNL     1     -36.620  19.395   1.490  0.00  0.00    -0.332 N 
ATOM     12  C   UNL     1     -38.023  22.645   2.325  0.00  0.00    +0.084 C 
ATOM     13  C   UNL     1     -35.933  22.312   3.497  0.00  0.00    +0.276 C 
ATOM     14  C   UNL     1     -37.940  21.451   1.738  0.00  0.00    +0.065 C 
ATOM     15  C   UNL     1     -36.745  20.634   2.074  0.00  0.00    +0.193 C 
ATOM     16  H   UNL     1     -35.838  18.831   1.693  0.00  0.00    +0.145 HD
ATOM     17  H   UNL     1     -37.312  19.071   0.869  0.00  0.00    +0.145 HD
ENDBRANCH   7   9
BRANCH   4  18
ATOM     18  O   UNL     1     -37.591  27.303   1.618  0.00  0.00    -0.377 OA
ATOM     19  H   UNL     1     -38.452  27.672   1.368  0.00  0.00    +0.211 HD
ENDBRANCH   4  18
BRANCH   6  20
ATOM     20  C   UNL     1     -40.268  25.723   2.366  0.00  0.00    +0.169 C 
BRANCH  20  21
ATOM     21  O   UNL     1     -40.632  26.972   1.800  0.00  0.00    -0.379 OA
ATOM     22  H   UNL     1     -41.586  26.980   1.624  0.00  0.00    +0.211 HD
ENDBRANCH  20  21
ENDBRANCH   6  20
TORSDOF 4
ENDMDL
MODEL 9
REMARK VINA RESULT:      -5.0      3.230      5.002
REMARK  Name = 60750
REMARK  4 active torsions:
REMARK  status: ('A' for Active; 'I' for Inactive)
REMARK    1  A    between atoms: C_4  and  O_18
REMARK    2  A    between atoms: C_6  and  C_20
REMARK    3  A    between atoms: C_7  and  N_9
REMARK    4  A    between atoms: C_20  and  O_21
REMARK                            x       y       z     vdW  Elec       q    Type
REMARK                         _______ _______ _______ _____ _____    ______ ____
ROOT
ATOM      1  F   UNL     1     -35.992  27.051   4.357  0.00  0.00    -0.197 F 
ATOM      2  F   UNL     1     -36.296  25.901   6.183  0.00  0.00    -0.197 F 
ATOM      3  O   UNL     1     -34.277  24.030   4.869  0.00  0.00    -0.330 OA
ATOM      4  C   UNL     1     -36.403  24.730   4.142  0.00  0.00    +0.206 C 
ATOM      5  C   UNL     1     -35.784  25.854   4.931  0.00  0.00    +0.333 C 
ATOM      6  C   UNL     1     -35.617  23.544   4.670  0.00  0.00    +0.179 C 
ATOM      7  C   UNL     1     -34.322  25.464   4.997  0.00  0.00    +0.272 C 
ENDROOT
BRANCH   7   9
ATOM      8  O   UNL     1     -32.976  27.936   5.115  0.00  0.00    -0.193 OA
ATOM      9  N   UNL     1     -33.542  26.036   3.934  0.00  0.00    -0.175 N 
ATOM     10  N   UNL     1     -32.157  27.778   3.004  0.00  0.00    -0.306 NA
ATOM     11  N   UNL     1     -31.323  27.610   0.839  0.00  0.00    -0.332 N 
ATOM     12  C   UNL     1     -33.428  25.337   2.744  0.00  0.00    +0.084 C 
ATOM     13  C   UNL     1     -32.892  27.288   4.070  0.00  0.00    +0.276 C 
ATOM     14  C   UNL     1     -32.726  25.790   1.706  0.00  0.00    +0.065 C 
ATOM     15  C   UNL     1     -32.058  27.106   1.887  0.00  0.00    +0.193 C 
ATOM     16  H   UNL     1     -30.869  28.480   0.930  0.00  0.00    +0.145 HD
ATOM     17  H   UNL     1     -31.249  27.102  -0.001  0.00  0.00    +0.145 HD
ENDBRANCH   7   9
BRANCH   4  18
ATOM     18  O   UNL     1     -37.786  24.594   4.390  0.00  0.00    -0.377 OA
ATOM     19  H   UNL     1     -38.101  25.357   4.898  0.00  0.00    +0.211 HD
ENDBRANCH   4  18
BRANCH   6  20
ATOM     20  C   UNL     1     -35.597  22.362   3.719  0.00  0.00    +0.169 C 
BRANCH  20  21
ATOM     21  O   UNL     1     -35.673  21.164   4.475  0.00  0.00    -0.379 OA
ATOM     22  H   UNL     1     -36.589  20.845   4.484  0.00  0.00    +0.211 HD
ENDBRANCH  20  21
ENDBRANCH   6  20
TORSDOF 4
ENDMDL
