MODEL 1
REMARK VINA RESULT:      -6.6      0.000      0.000
REMARK  Name = 5282242
REMARK  8 active torsions:
REMARK  status: ('A' for Active; 'I' for Inactive)
REMARK    1  A    between atoms: N_2  and  CA_9
REMARK    2  A    between atoms: C_3  and  C_18
REMARK    3  A    between atoms: CA_11  and  C_15
REMARK    4  A    between atoms: C_15  and  O_16
REMARK    5  A    between atoms: C_18  and  C_23
REMARK    6  A    between atoms: C_19  and  C_28
REMARK    7  A    between atoms: C_28  and  C_30
REMARK    8  A    between atoms: C_30  and  O_31
REMARK                            x       y       z     vdW  Elec       q    Type
REMARK                         _______ _______ _______ _____ _____    ______ ____
ROOT
ATOM      1  O   UNK A   0     -37.059  26.006   4.664  0.00  0.00    -0.270 OA
ATOM      2  N   MET A   1     -36.151  24.747   2.939  0.00  0.00    -0.293 N 
ATOM      3  C   UNK A   0     -36.148  25.324   4.199  0.00  0.00    +0.248 C 
ATOM      4  H   MET A   1     -35.372  24.217   2.658  0.00  0.00    +0.150 HD
ENDROOT
BRANCH   2   9
ATOM      5  SD  MET A   1     -35.697  23.240   0.294  0.00  0.00    -0.114 S 
ATOM      6  O   MET A   1     -39.284  23.855   3.230  0.00  0.00    -0.273 OA
ATOM      7  N   MET A   1     -38.195  23.242   1.235  0.00  0.00    -0.242 N 
ATOM      8  CE  MET A   1     -37.219  24.153   0.661  0.00  0.00    +0.155 C 
ATOM      9  CA  MET A   1     -37.281  24.901   2.004  0.00  0.00    +0.179 C 
ATOM     10  C   MET A   1     -38.478  23.967   2.336  0.00  0.00    +0.251 C 
ATOM     11  CA  MET A   1     -38.549  22.075   0.651  0.00  0.00    +0.127 C 
ATOM     12  CG  MET A   1     -36.514  22.078  -0.861  0.00  0.00    +0.087 C 
ATOM     13  CB  MET A   1     -37.820  21.529  -0.336  0.00  0.00    +0.007 C 
BRANCH  11  15
ATOM     14  OXT MET A   1     -40.736  21.157   0.492  0.00  0.00    -0.244 OA
ATOM     15  C   MET A   1     -39.719  21.341   1.136  0.00  0.00    +0.352 C 
BRANCH  15  16
ATOM     16  O   MET A   1     -39.493  20.907   2.395  0.00  0.00    -0.476 OA
ATOM     17  H   MET A   1     -38.742  20.378   2.581  0.00  0.00    +0.295 HD
ENDBRANCH  15  16
ENDBRANCH  11  15
ENDBRANCH   2   9
BRANCH   3  18
ATOM     18  C   UNK A   0     -34.882  25.106   4.977  0.00  0.00    +0.076 C 
ATOM     19  C   UNK A   0     -34.789  23.979   5.712  0.00  0.00    -0.008 C 
BRANCH  18  23
ATOM     20  S   UNK A   0     -32.297  27.940   4.200  0.00  0.00    -0.060 S 
ATOM     21  N   UNK A   0     -33.410  26.627   6.130  0.00  0.00    -0.385 NA
ATOM     22  N   UNK A   0     -31.850  28.273   6.801  0.00  0.00    -0.328 N 
ATOM     23  C   UNK A   0     -33.906  26.162   4.943  0.00  0.00    +0.127 C 
ATOM     24  C   UNK A   0     -33.441  26.728   3.793  0.00  0.00    +0.125 C 
ATOM     25  C   UNK A   0     -32.543  27.579   5.860  0.00  0.00    +0.204 C 
ATOM     26  H   UNK A   0     -31.214  28.974   6.527  0.00  0.00    +0.145 HD
ATOM     27  H   UNK A   0     -31.981  28.075   7.756  0.00  0.00    +0.145 HD
ENDBRANCH  18  23
BRANCH  19  28
ATOM     28  C   UNK A   0     -35.791  22.862   5.769  0.00  0.00    +0.136 C 
BRANCH  28  30
ATOM     29  O   UNK A   0     -35.391  21.831   3.593  0.00  0.00    -0.250 OA
ATOM     30  C   UNK A   0     -35.404  21.754   4.813  0.00  0.00    +0.318 C 
BRANCH  30  31
ATOM     31  O   UNK A   0     -35.067  20.621   5.486  0.00  0.00    -0.480 OA
ATOM     32  H   UNK A   0     -34.251  20.573   5.944  0.00  0.00    +0.295 HD
ENDBRANCH  30  31
ENDBRANCH  28  30
ENDBRANCH  19  28
ENDBRANCH   3  18
TORSDOF 8
ENDMDL
MODEL 2
REMARK VINA RESULT:      -6.0      2.514      3.141
REMARK  Name = 5282242
REMARK  8 active torsions:
REMARK  status: ('A' for Active; 'I' for Inactive)
REMARK    1  A    between atoms: N_2  and  CA_9
REMARK    2  A    between atoms: C_3  and  C_18
REMARK    3  A    between atoms: CA_11  and  C_15
REMARK    4  A    between atoms: C_15  and  O_16
REMARK    5  A    between atoms: C_18  and  C_23
REMARK    6  A    between atoms: C_19  and  C_28
REMARK    7  A    between atoms: C_28  and  C_30
REMARK    8  A    between atoms: C_30  and  O_31
REMARK                            x       y       z     vdW  Elec       q    Type
REMARK                         _______ _______ _______ _____ _____    ______ ____
ROOT
ATOM      1  O   UNK A   0     -34.092  24.558   1.766  0.00  0.00    -0.270 OA
ATOM      2  N   MET A   1     -36.016  25.597   2.541  0.00  0.00    -0.293 N 
ATOM      3  C   UNK A   0     -34.745  25.061   2.677  0.00  0.00    +0.248 C 
ATOM      4  H   MET A   1     -36.458  25.979   3.333  0.00  0.00    +0.150 HD
ENDROOT
BRANCH   2   9
ATOM      5  SD  MET A   1     -38.204  23.439   2.383  0.00  0.00    -0.114 S 
ATOM      6  O   MET A   1     -37.834  27.935   1.152  0.00  0.00    -0.273 OA
ATOM      7  N   MET A   1     -38.768  25.774   1.220  0.00  0.00    -0.242 N 
ATOM      8  CE  MET A   1     -37.893  24.627   1.050  0.00  0.00    +0.155 C 
ATOM      9  CA  MET A   1     -36.729  25.616   1.250  0.00  0.00    +0.179 C 
ATOM     10  C   MET A   1     -37.813  26.726   1.169  0.00  0.00    +0.251 C 
ATOM     11  CA  MET A   1     -40.108  25.667   1.366  0.00  0.00    +0.127 C 
ATOM     12  CG  MET A   1     -39.964  23.201   1.940  0.00  0.00    +0.087 C 
ATOM     13  CB  MET A   1     -40.694  24.495   1.663  0.00  0.00    +0.007 C 
BRANCH  11  15
ATOM     14  OXT MET A   1     -41.278  27.387   0.216  0.00  0.00    -0.244 OA
ATOM     15  C   MET A   1     -40.952  26.858   1.263  0.00  0.00    +0.352 C 
BRANCH  15  16
ATOM     16  O   MET A   1     -41.307  27.270   2.500  0.00  0.00    -0.476 OA
ATOM     17  H   MET A   1     -41.037  28.113   2.809  0.00  0.00    +0.295 HD
ENDBRANCH  15  16
ENDBRANCH  11  15
ENDBRANCH   2   9
BRANCH   3  18
ATOM     18  C   UNK A   0     -34.212  25.078   4.081  0.00  0.00    +0.076 C 
ATOM     19  C   UNK A   0     -34.505  24.024   4.870  0.00  0.00    -0.008 C 
BRANCH  18  23
ATOM     20  S   UNK A   0     -32.245  28.430   4.538  0.00  0.00    -0.060 S 
ATOM     21  N   UNK A   0     -33.308  26.462   5.835  0.00  0.00    -0.385 NA
ATOM     22  N   UNK A   0     -32.276  28.111   7.179  0.00  0.00    -0.328 N 
ATOM     23  C   UNK A   0     -33.504  26.259   4.496  0.00  0.00    +0.127 C 
ATOM     24  C   UNK A   0     -33.013  27.193   3.632  0.00  0.00    +0.125 C 
ATOM     25  C   UNK A   0     -32.648  27.589   5.980  0.00  0.00    +0.204 C 
ATOM     26  H   UNK A   0     -31.782  28.962   7.214  0.00  0.00    +0.145 HD
ATOM     27  H   UNK A   0     -32.501  27.638   8.012  0.00  0.00    +0.145 HD
ENDBRANCH  18  23
BRANCH  19  28
ATOM     28  C   UNK A   0     -35.242  22.779   4.465  0.00  0.00    +0.136 C 
BRANCH  28  30
ATOM     29  O   UNK A   0     -35.962  22.241   6.734  0.00  0.00    -0.250 OA
ATOM     30  C   UNK A   0     -35.481  21.890   5.665  0.00  0.00    +0.318 C 
BRANCH  30  31
ATOM     31  O   UNK A   0     -35.081  20.613   5.418  0.00  0.00    -0.480 OA
ATOM     32  H   UNK A   0     -34.722  20.389   4.582  0.00  0.00    +0.295 HD
ENDBRANCH  30  31
ENDBRANCH  28  30
ENDBRANCH  19  28
ENDBRANCH   3  18
TORSDOF 8
ENDMDL
MODEL 3
REMARK VINA RESULT:      -5.9      2.878      6.535
REMARK  Name = 5282242
REMARK  8 active torsions:
REMARK  status: ('A' for Active; 'I' for Inactive)
REMARK    1  A    between atoms: N_2  and  CA_9
REMARK    2  A    between atoms: C_3  and  C_18
REMARK    3  A    between atoms: CA_11  and  C_15
REMARK    4  A    between atoms: C_15  and  O_16
REMARK    5  A    between atoms: C_18  and  C_23
REMARK    6  A    between atoms: C_19  and  C_28
REMARK    7  A    between atoms: C_28  and  C_30
REMARK    8  A    between atoms: C_30  and  O_31
REMARK                            x       y       z     vdW  Elec       q    Type
REMARK                         _______ _______ _______ _____ _____    ______ ____
ROOT
ATOM      1  O   UNK A   0     -36.276  23.095   4.934  0.00  0.00    -0.270 OA
ATOM      2  N   MET A   1     -35.459  24.262   3.102  0.00  0.00    -0.293 N 
ATOM      3  C   UNK A   0     -36.335  23.401   3.745  0.00  0.00    +0.248 C 
ATOM      4  H   MET A   1     -35.590  24.445   2.145  0.00  0.00    +0.150 HD
ENDROOT
BRANCH   2   9
ATOM      5  SD  MET A   1     -33.380  25.427   1.155  0.00  0.00    -0.114 S 
ATOM      6  O   MET A   1     -35.425  26.839   5.116  0.00  0.00    -0.273 OA
ATOM      7  N   MET A   1     -33.854  26.851   3.362  0.00  0.00    -0.242 N 
ATOM      8  CE  MET A   1     -33.248  25.595   2.955  0.00  0.00    +0.155 C 
ATOM      9  CA  MET A   1     -34.338  24.914   3.804  0.00  0.00    +0.179 C 
ATOM     10  C   MET A   1     -34.680  26.346   4.301  0.00  0.00    +0.251 C 
ATOM     11  CA  MET A   1     -33.522  28.043   2.816  0.00  0.00    +0.127 C 
ATOM     12  CG  MET A   1     -32.422  26.949   0.811  0.00  0.00    +0.087 C 
ATOM     13  CB  MET A   1     -32.836  28.125   1.663  0.00  0.00    +0.007 C 
BRANCH  11  15
ATOM     14  OXT MET A   1     -33.241  30.047   4.063  0.00  0.00    -0.244 OA
ATOM     15  C   MET A   1     -33.966  29.286   3.449  0.00  0.00    +0.352 C 
BRANCH  15  16
ATOM     16  O   MET A   1     -35.291  29.450   3.244  0.00  0.00    -0.476 OA
ATOM     17  H   MET A   1     -35.774  30.059   3.768  0.00  0.00    +0.295 HD
ENDBRANCH  15  16
ENDBRANCH  11  15
ENDBRANCH   2   9
BRANCH   3  18
ATOM     18  C   UNK A   0     -37.371  22.788   2.849  0.00  0.00    +0.076 C 
ATOM     19  C   UNK A   0     -37.074  21.606   2.270  0.00  0.00    -0.008 C 
BRANCH  18  23
ATOM     20  S   UNK A   0     -40.700  24.464   1.655  0.00  0.00    -0.060 S 
ATOM     21  N   UNK A   0     -38.874  24.562   3.483  0.00  0.00    -0.385 NA
ATOM     22  N   UNK A   0     -40.604  26.159   3.703  0.00  0.00    -0.328 N 
ATOM     23  C   UNK A   0     -38.564  23.554   2.611  0.00  0.00    +0.127 C 
ATOM     24  C   UNK A   0     -39.410  23.337   1.564  0.00  0.00    +0.125 C 
ATOM     25  C   UNK A   0     -39.993  25.119   3.075  0.00  0.00    +0.204 C 
ATOM     26  H   UNK A   0     -41.443  26.529   3.341  0.00  0.00    +0.145 HD
ATOM     27  H   UNK A   0     -40.209  26.544   4.518  0.00  0.00    +0.145 HD
ENDBRANCH  18  23
BRANCH  19  28
ATOM     28  C   UNK A   0     -35.837  20.784   2.498  0.00  0.00    +0.136 C 
BRANCH  28  30
ATOM     29  O   UNK A   0     -34.695  19.408   0.837  0.00  0.00    -0.250 OA
ATOM     30  C   UNK A   0     -35.715  19.707   1.442  0.00  0.00    +0.318 C 
BRANCH  30  31
ATOM     31  O   UNK A   0     -36.909  19.091   1.229  0.00  0.00    -0.480 OA
ATOM     32  H   UNK A   0     -37.646  19.300   1.768  0.00  0.00    +0.295 HD
ENDBRANCH  30  31
ENDBRANCH  28  30
ENDBRANCH  19  28
ENDBRANCH   3  18
TORSDOF 8
ENDMDL
MODEL 4
REMARK VINA RESULT:      -5.9      2.717      7.024
REMARK  Name = 5282242
REMARK  8 active torsions:
REMARK  status: ('A' for Active; 'I' for Inactive)
REMARK    1  A    between atoms: N_2  and  CA_9
REMARK    2  A    between atoms: C_3  and  C_18
REMARK    3  A    between atoms: CA_11  and  C_15
REMARK    4  A    between atoms: C_15  and  O_16
REMARK    5  A    between atoms: C_18  and  C_23
REMARK    6  A    between atoms: C_19  and  C_28
REMARK    7  A    between atoms: C_28  and  C_30
REMARK    8  A    between atoms: C_30  and  O_31
REMARK                            x       y       z     vdW  Elec       q    Type
REMARK                         _______ _______ _______ _____ _____    ______ ____
ROOT
ATOM      1  O   UNK A   0     -36.695  23.103   4.613  0.00  0.00    -0.270 OA
ATOM      2  N   MET A   1     -35.787  24.256   2.816  0.00  0.00    -0.293 N 
ATOM      3  C   UNK A   0     -36.730  23.449   3.434  0.00  0.00    +0.248 C 
ATOM      4  H   MET A   1     -35.904  24.479   1.865  0.00  0.00    +0.150 HD
ENDROOT
BRANCH   2   9
ATOM      5  SD  MET A   1     -33.655  25.376   0.901  0.00  0.00    -0.114 S 
ATOM      6  O   MET A   1     -35.549  26.713   4.961  0.00  0.00    -0.273 OA
ATOM      7  N   MET A   1     -34.002  26.710   3.186  0.00  0.00    -0.242 N 
ATOM      8  CE  MET A   1     -33.491  25.438   2.705  0.00  0.00    +0.155 C 
ATOM      9  CA  MET A   1     -34.615  24.790   3.533  0.00  0.00    +0.179 C 
ATOM     10  C   MET A   1     -34.851  26.214   4.110  0.00  0.00    +0.251 C 
ATOM     11  CA  MET A   1     -33.595  27.903   2.699  0.00  0.00    +0.127 C 
ATOM     12  CG  MET A   1     -32.598  26.845   0.622  0.00  0.00    +0.087 C 
ATOM     13  CB  MET A   1     -32.919  27.999   1.541  0.00  0.00    +0.007 C 
BRANCH  11  15
ATOM     14  OXT MET A   1     -33.156  29.821   4.032  0.00  0.00    -0.244 OA
ATOM     15  C   MET A   1     -33.944  29.138   3.403  0.00  0.00    +0.352 C 
BRANCH  15  16
ATOM     16  O   MET A   1     -35.260  29.395   3.243  0.00  0.00    -0.476 OA
ATOM     17  H   MET A   1     -35.706  29.096   2.475  0.00  0.00    +0.295 HD
ENDBRANCH  15  16
ENDBRANCH  11  15
ENDBRANCH   2   9
BRANCH   3  18
ATOM     18  C   UNK A   0     -37.815  22.953   2.523  0.00  0.00    +0.076 C 
ATOM     19  C   UNK A   0     -39.003  23.590   2.565  0.00  0.00    -0.008 C 
BRANCH  18  23
ATOM     20  S   UNK A   0     -37.630  19.893   0.091  0.00  0.00    -0.060 S 
ATOM     21  N   UNK A   0     -36.352  21.117   1.976  0.00  0.00    -0.385 NA
ATOM     22  N   UNK A   0     -35.270  19.203   1.105  0.00  0.00    -0.328 N 
ATOM     23  C   UNK A   0     -37.524  21.782   1.741  0.00  0.00    +0.127 C 
ATOM     24  C   UNK A   0     -38.351  21.291   0.774  0.00  0.00    +0.125 C 
ATOM     25  C   UNK A   0     -36.298  20.091   1.155  0.00  0.00    +0.204 C 
ATOM     26  H   UNK A   0     -35.295  18.456   0.463  0.00  0.00    +0.145 HD
ATOM     27  H   UNK A   0     -34.501  19.306   1.710  0.00  0.00    +0.145 HD
ENDBRANCH  18  23
BRANCH  19  28
ATOM     28  C   UNK A   0     -39.335  24.813   3.371  0.00  0.00    +0.136 C 
BRANCH  28  30
ATOM     29  O   UNK A   0     -39.832  26.521   1.700  0.00  0.00    -0.250 OA
ATOM     30  C   UNK A   0     -39.090  26.066   2.560  0.00  0.00    +0.318 C 
BRANCH  30  31
ATOM     31  O   UNK A   0     -37.908  26.647   2.899  0.00  0.00    -0.480 OA
ATOM     32  H   UNK A   0     -37.859  27.575   3.015  0.00  0.00    +0.295 HD
ENDBRANCH  30  31
ENDBRANCH  28  30
ENDBRANCH  19  28
ENDBRANCH   3  18
TORSDOF 8
ENDMDL
MODEL 5
REMARK VINA RESULT:      -5.8      3.916      6.200
REMARK  Name = 5282242
REMARK  8 active torsions:
REMARK  status: ('A' for Active; 'I' for Inactive)
REMARK    1  A    between atoms: N_2  and  CA_9
REMARK    2  A    between atoms: C_3  and  C_18
REMARK    3  A    between atoms: CA_11  and  C_15
REMARK    4  A    between atoms: C_15  and  O_16
REMARK    5  A    between atoms: C_18  and  C_23
REMARK    6  A    between atoms: C_19  and  C_28
REMARK    7  A    between atoms: C_28  and  C_30
REMARK    8  A    between atoms: C_30  and  O_31
REMARK                            x       y       z     vdW  Elec       q    Type
REMARK                         _______ _______ _______ _____ _____    ______ ____
ROOT
ATOM      1  O   UNK A   0     -33.454  29.444   0.652  0.00  0.00    -0.270 OA
ATOM      2  N   MET A   1     -34.940  28.781   2.306  0.00  0.00    -0.293 N 
ATOM      3  C   UNK A   0     -34.071  29.668   1.691  0.00  0.00    +0.248 C 
ATOM      4  H   MET A   1     -35.389  29.054   3.137  0.00  0.00    +0.150 HD
ENDROOT
BRANCH   2   9
ATOM      5  SD  MET A   1     -34.349  26.542   4.333  0.00  0.00    -0.114 S 
ATOM      6  O   MET A   1     -37.734  27.456   1.240  0.00  0.00    -0.273 OA
ATOM      7  N   MET A   1     -36.471  26.173   2.757  0.00  0.00    -0.242 N 
ATOM      8  CE  MET A   1     -35.021  26.224   2.680  0.00  0.00    +0.155 C 
ATOM      9  CA  MET A   1     -35.216  27.440   1.757  0.00  0.00    +0.179 C 
ATOM     10  C   MET A   1     -36.725  27.070   1.782  0.00  0.00    +0.251 C 
ATOM     11  CA  MET A   1     -37.138  25.382   3.628  0.00  0.00    +0.127 C 
ATOM     12  CG  MET A   1     -35.080  25.032   5.066  0.00  0.00    +0.087 C 
ATOM     13  CB  MET A   1     -36.524  24.815   4.680  0.00  0.00    +0.007 C 
BRANCH  11  15
ATOM     14  OXT MET A   1     -39.109  24.097   3.293  0.00  0.00    -0.244 OA
ATOM     15  C   MET A   1     -38.580  25.178   3.473  0.00  0.00    +0.352 C 
BRANCH  15  16
ATOM     16  O   MET A   1     -39.218  26.365   3.562  0.00  0.00    -0.476 OA
ATOM     17  H   MET A   1     -39.213  26.956   2.835  0.00  0.00    +0.295 HD
ENDBRANCH  15  16
ENDBRANCH  11  15
ENDBRANCH   2   9
BRANCH   3  18
ATOM     18  C   UNK A   0     -33.873  30.957   2.435  0.00  0.00    +0.076 C 
ATOM     19  C   UNK A   0     -34.575  32.031   2.019  0.00  0.00    -0.008 C 
BRANCH  18  23
ATOM     20  S   UNK A   0     -30.838  31.404   4.864  0.00  0.00    -0.060 S 
ATOM     21  N   UNK A   0     -33.112  30.205   4.596  0.00  0.00    -0.385 NA
ATOM     22  N   UNK A   0     -31.973  29.757   6.618  0.00  0.00    -0.328 N 
ATOM     23  C   UNK A   0     -32.884  30.962   3.479  0.00  0.00    +0.127 C 
ATOM     24  C   UNK A   0     -31.725  31.679   3.423  0.00  0.00    +0.125 C 
ATOM     25  C   UNK A   0     -32.089  30.362   5.406  0.00  0.00    +0.204 C 
ATOM     26  H   UNK A   0     -31.176  29.920   7.175  0.00  0.00    +0.145 HD
ATOM     27  H   UNK A   0     -32.683  29.157   6.939  0.00  0.00    +0.145 HD
ENDBRANCH  18  23
BRANCH  19  28
ATOM     28  C   UNK A   0     -35.612  32.056   0.933  0.00  0.00    +0.136 C 
BRANCH  28  30
ATOM     29  O   UNK A   0     -37.689  32.397   2.169  0.00  0.00    -0.250 OA
ATOM     30  C   UNK A   0     -36.969  31.681   1.487  0.00  0.00    +0.318 C 
BRANCH  30  31
ATOM     31  O   UNK A   0     -37.310  30.411   1.135  0.00  0.00    -0.480 OA
ATOM     32  H   UNK A   0     -37.162  30.113   0.260  0.00  0.00    +0.295 HD
ENDBRANCH  30  31
ENDBRANCH  28  30
ENDBRANCH  19  28
ENDBRANCH   3  18
TORSDOF 8
ENDMDL
MODEL 6
REMARK VINA RESULT:      -5.7      2.948      6.740
REMARK  Name = 5282242
REMARK  8 active torsions:
REMARK  status: ('A' for Active; 'I' for Inactive)
REMARK    1  A    between atoms: N_2  and  CA_9
REMARK    2  A    between atoms: C_3  and  C_18
REMARK    3  A    between atoms: CA_11  and  C_15
REMARK    4  A    between atoms: C_15  and  O_16
REMARK    5  A    between atoms: C_18  and  C_23
REMARK    6  A    between atoms: C_19  and  C_28
REMARK    7  A    between atoms: C_28  and  C_30
REMARK    8  A    between atoms: C_30  and  O_31
REMARK                            x       y       z     vdW  Elec       q    Type
REMARK                         _______ _______ _______ _____ _____    ______ ____
ROOT
ATOM      1  O   UNK A   0     -37.849  24.587  -0.491  0.00  0.00    -0.270 OA
ATOM      2  N   MET A   1     -37.993  23.379   1.485  0.00  0.00    -0.293 N 
ATOM      3  C   UNK A   0     -38.515  24.015   0.369  0.00  0.00    +0.248 C 
ATOM      4  H   MET A   1     -38.611  22.947   2.117  0.00  0.00    +0.150 HD
ENDROOT
BRANCH   2   9
ATOM      5  SD  MET A   1     -37.079  25.607   3.400  0.00  0.00    -0.114 S 
ATOM      6  O   MET A   1     -36.180  21.047   2.890  0.00  0.00    -0.273 OA
ATOM      7  N   MET A   1     -35.877  23.242   3.687  0.00  0.00    -0.242 N 
ATOM      8  CE  MET A   1     -35.954  24.346   2.746  0.00  0.00    +0.155 C 
ATOM      9  CA  MET A   1     -36.545  23.325   1.756  0.00  0.00    +0.179 C 
ATOM     10  C   MET A   1     -36.162  22.254   2.814  0.00  0.00    +0.251 C 
ATOM     11  CA  MET A   1     -35.587  23.406   4.997  0.00  0.00    +0.127 C 
ATOM     12  CG  MET A   1     -36.093  25.889   4.917  0.00  0.00    +0.087 C 
ATOM     13  CB  MET A   1     -35.644  24.612   5.587  0.00  0.00    +0.007 C 
BRANCH  11  15
ATOM     14  OXT MET A   1     -34.184  21.681   5.835  0.00  0.00    -0.244 OA
ATOM     15  C   MET A   1     -35.263  22.244   5.825  0.00  0.00    +0.352 C 
BRANCH  15  16
ATOM     16  O   MET A   1     -36.339  21.901   6.567  0.00  0.00    -0.476 OA
ATOM     17  H   MET A   1     -37.182  21.828   6.165  0.00  0.00    +0.295 HD
ENDBRANCH  15  16
ENDBRANCH  11  15
ENDBRANCH   2   9
BRANCH   3  18
ATOM     18  C   UNK A   0     -40.015  24.017   0.302  0.00  0.00    +0.076 C 
ATOM     19  C   UNK A   0     -40.605  23.070  -0.457  0.00  0.00    -0.008 C 
BRANCH  18  23
ATOM     20  S   UNK A   0     -42.104  27.089   1.531  0.00  0.00    -0.060 S 
ATOM     21  N   UNK A   0     -40.551  25.187   2.340  0.00  0.00    -0.385 NA
ATOM     22  N   UNK A   0     -41.347  26.626   4.038  0.00  0.00    -0.328 N 
ATOM     23  C   UNK A   0     -40.698  25.083   0.983  0.00  0.00    +0.127 C 
ATOM     24  C   UNK A   0     -41.486  26.003   0.356  0.00  0.00    +0.125 C 
ATOM     25  C   UNK A   0     -41.256  26.220   2.744  0.00  0.00    +0.204 C 
ATOM     26  H   UNK A   0     -41.895  27.412   4.271  0.00  0.00    +0.145 HD
ATOM     27  H   UNK A   0     -40.865  26.137   4.743  0.00  0.00    +0.145 HD
ENDBRANCH  18  23
BRANCH  19  28
ATOM     28  C   UNK A   0     -39.919  21.946  -1.180  0.00  0.00    +0.136 C 
BRANCH  28  30
ATOM     29  O   UNK A   0     -40.871  19.730  -0.809  0.00  0.00    -0.250 OA
ATOM     30  C   UNK A   0     -40.134  20.638  -0.451  0.00  0.00    +0.318 C 
BRANCH  30  31
ATOM     31  O   UNK A   0     -39.396  20.584   0.690  0.00  0.00    -0.480 OA
ATOM     32  H   UNK A   0     -39.511  19.873   1.289  0.00  0.00    +0.295 HD
ENDBRANCH  30  31
ENDBRANCH  28  30
ENDBRANCH  19  28
ENDBRANCH   3  18
TORSDOF 8
ENDMDL
MODEL 7
REMARK VINA RESULT:      -5.7      3.264      4.231
REMARK  Name = 5282242
REMARK  8 active torsions:
REMARK  status: ('A' for Active; 'I' for Inactive)
REMARK    1  A    between atoms: N_2  and  CA_9
REMARK    2  A    between atoms: C_3  and  C_18
REMARK    3  A    between atoms: CA_11  and  C_15
REMARK    4  A    between atoms: C_15  and  O_16
REMARK    5  A    between atoms: C_18  and  C_23
REMARK    6  A    between atoms: C_19  and  C_28
REMARK    7  A    between atoms: C_28  and  C_30
REMARK    8  A    between atoms: C_30  and  O_31
REMARK                            x       y       z     vdW  Elec       q    Type
REMARK                         _______ _______ _______ _____ _____    ______ ____
ROOT
ATOM      1  O   UNK A   0     -36.117  25.154   1.712  0.00  0.00    -0.270 OA
ATOM      2  N   MET A   1     -34.725  23.406   2.336  0.00  0.00    -0.293 N 
ATOM      3  C   UNK A   0     -35.222  24.697   2.419  0.00  0.00    +0.248 C 
ATOM      4  H   MET A   1     -34.005  23.134   2.949  0.00  0.00    +0.150 HD
ENDROOT
BRANCH   2   9
ATOM      5  SD  MET A   1     -32.761  22.930   0.015  0.00  0.00    -0.114 S 
ATOM      6  O   MET A   1     -35.489  20.247   2.702  0.00  0.00    -0.273 OA
ATOM      7  N   MET A   1     -34.106  20.792   0.876  0.00  0.00    -0.242 N 
ATOM      8  CE  MET A   1     -34.334  22.044   0.174  0.00  0.00    +0.155 C 
ATOM      9  CA  MET A   1     -35.237  22.425   1.361  0.00  0.00    +0.179 C 
ATOM     10  C   MET A   1     -35.053  20.954   1.823  0.00  0.00    +0.251 C 
ATOM     11  CA  MET A   1     -33.168  19.894   0.501  0.00  0.00    +0.127 C 
ATOM     12  CG  MET A   1     -31.950  21.591  -0.935  0.00  0.00    +0.087 C 
ATOM     13  CB  MET A   1     -32.183  20.217  -0.354  0.00  0.00    +0.007 C 
BRANCH  11  15
ATOM     14  OXT MET A   1     -32.253  18.070   1.720  0.00  0.00    -0.244 OA
ATOM     15  C   MET A   1     -33.171  18.549   1.079  0.00  0.00    +0.352 C 
BRANCH  15  16
ATOM     16  O   MET A   1     -34.338  17.934   0.792  0.00  0.00    -0.476 OA
ATOM     17  H   MET A   1     -35.128  18.435   0.724  0.00  0.00    +0.295 HD
ENDBRANCH  15  16
ENDBRANCH  11  15
ENDBRANCH   2   9
BRANCH   3  18
ATOM     18  C   UNK A   0     -34.529  25.564   3.430  0.00  0.00    +0.076 C 
ATOM     19  C   UNK A   0     -35.048  25.605   4.675  0.00  0.00    -0.008 C 
BRANCH  18  23
ATOM     20  S   UNK A   0     -31.925  28.238   2.253  0.00  0.00    -0.060 S 
ATOM     21  N   UNK A   0     -32.259  25.702   2.633  0.00  0.00    -0.385 NA
ATOM     22  N   UNK A   0     -30.123  26.327   1.834  0.00  0.00    -0.328 N 
ATOM     23  C   UNK A   0     -33.418  26.349   2.965  0.00  0.00    +0.127 C 
ATOM     24  C   UNK A   0     -33.449  27.706   2.833  0.00  0.00    +0.125 C 
ATOM     25  C   UNK A   0     -31.390  26.607   2.240  0.00  0.00    +0.204 C 
ATOM     26  H   UNK A   0     -29.524  27.056   1.551  0.00  0.00    +0.145 HD
ATOM     27  H   UNK A   0     -29.804  25.396   1.821  0.00  0.00    +0.145 HD
ENDBRANCH  18  23
BRANCH  19  28
ATOM     28  C   UNK A   0     -36.206  24.799   5.189  0.00  0.00    +0.136 C 
BRANCH  28  30
ATOM     29  O   UNK A   0     -34.920  23.035   6.280  0.00  0.00    -0.250 OA
ATOM     30  C   UNK A   0     -35.777  23.377   5.477  0.00  0.00    +0.318 C 
BRANCH  30  31
ATOM     31  O   UNK A   0     -36.469  22.490   4.712  0.00  0.00    -0.480 OA
ATOM     32  H   UNK A   0     -37.286  22.741   4.328  0.00  0.00    +0.295 HD
ENDBRANCH  30  31
ENDBRANCH  28  30
ENDBRANCH  19  28
ENDBRANCH   3  18
TORSDOF 8
ENDMDL
MODEL 8
REMARK VINA RESULT:      -5.7      3.508      5.931
REMARK  Name = 5282242
REMARK  8 active torsions:
REMARK  status: ('A' for Active; 'I' for Inactive)
REMARK    1  A    between atoms: N_2  and  CA_9
REMARK    2  A    between atoms: C_3  and  C_18
REMARK    3  A    between atoms: CA_11  and  C_15
REMARK    4  A    between atoms: C_15  and  O_16
REMARK    5  A    between atoms: C_18  and  C_23
REMARK    6  A    between atoms: C_19  and  C_28
REMARK    7  A    between atoms: C_28  and  C_30
REMARK    8  A    between atoms: C_30  and  O_31
REMARK                            x       y       z     vdW  Elec       q    Type
REMARK                         _______ _______ _______ _____ _____    ______ ____
ROOT
ATOM      1  O   UNK A   0     -35.831  19.953   1.243  0.00  0.00    -0.270 OA
ATOM      2  N   MET A   1     -34.978  21.825   2.316  0.00  0.00    -0.293 N 
ATOM      3  C   UNK A   0     -34.980  20.833   1.348  0.00  0.00    +0.248 C 
ATOM      4  H   MET A   1     -34.251  22.486   2.317  0.00  0.00    +0.150 HD
ENDROOT
BRANCH   2   9
ATOM      5  SD  MET A   1     -34.397  24.036   4.376  0.00  0.00    -0.114 S 
ATOM      6  O   MET A   1     -38.159  22.534   2.042  0.00  0.00    -0.273 OA
ATOM      7  N   MET A   1     -36.954  23.715   3.684  0.00  0.00    -0.242 N 
ATOM      8  CE  MET A   1     -35.901  23.026   4.411  0.00  0.00    +0.155 C 
ATOM      9  CA  MET A   1     -36.030  21.923   3.345  0.00  0.00    +0.179 C 
ATOM     10  C   MET A   1     -37.286  22.699   2.861  0.00  0.00    +0.251 C 
ATOM     11  CA  MET A   1     -37.314  24.993   3.939  0.00  0.00    +0.127 C 
ATOM     12  CG  MET A   1     -35.176  25.464   5.217  0.00  0.00    +0.087 C 
ATOM     13  CB  MET A   1     -36.538  25.814   4.667  0.00  0.00    +0.007 C 
BRANCH  11  15
ATOM     14  OXT MET A   1     -38.591  26.439   2.550  0.00  0.00    -0.244 OA
ATOM     15  C   MET A   1     -38.547  25.534   3.363  0.00  0.00    +0.352 C 
BRANCH  15  16
ATOM     16  O   MET A   1     -39.611  24.876   3.871  0.00  0.00    -0.476 OA
ATOM     17  H   MET A   1     -40.249  25.338   4.380  0.00  0.00    +0.295 HD
ENDBRANCH  15  16
ENDBRANCH  11  15
ENDBRANCH   2   9
BRANCH   3  18
ATOM     18  C   UNK A   0     -33.793  20.862   0.429  0.00  0.00    +0.076 C 
ATOM     19  C   UNK A   0     -32.864  19.895   0.581  0.00  0.00    -0.008 C 
BRANCH  18  23
ATOM     20  S   UNK A   0     -33.776  23.431  -2.522  0.00  0.00    -0.060 S 
ATOM     21  N   UNK A   0     -33.251  23.171  -0.004  0.00  0.00    -0.385 NA
ATOM     22  N   UNK A   0     -32.863  25.326  -0.894  0.00  0.00    -0.328 N 
ATOM     23  C   UNK A   0     -33.700  21.970  -0.483  0.00  0.00    +0.127 C 
ATOM     24  C   UNK A   0     -34.033  21.896  -1.803  0.00  0.00    +0.125 C 
ATOM     25  C   UNK A   0     -33.250  24.027  -1.001  0.00  0.00    +0.204 C 
ATOM     26  H   UNK A   0     -32.887  25.914  -1.684  0.00  0.00    +0.145 HD
ATOM     27  H   UNK A   0     -32.558  25.680  -0.028  0.00  0.00    +0.145 HD
ENDBRANCH  18  23
BRANCH  19  28
ATOM     28  C   UNK A   0     -32.933  18.728   1.524  0.00  0.00    +0.136 C 
BRANCH  28  30
ATOM     29  O   UNK A   0     -32.355  16.592   0.493  0.00  0.00    -0.250 OA
ATOM     30  C   UNK A   0     -33.189  17.446   0.762  0.00  0.00    +0.318 C 
BRANCH  30  31
ATOM     31  O   UNK A   0     -34.494  17.347   0.392  0.00  0.00    -0.480 OA
ATOM     32  H   UNK A   0     -34.726  17.375  -0.516  0.00  0.00    +0.295 HD
ENDBRANCH  30  31
ENDBRANCH  28  30
ENDBRANCH  19  28
ENDBRANCH   3  18
TORSDOF 8
ENDMDL
MODEL 9
REMARK VINA RESULT:      -5.6      3.849      6.424
REMARK  Name = 5282242
REMARK  8 active torsions:
REMARK  status: ('A' for Active; 'I' for Inactive)
REMARK    1  A    between atoms: N_2  and  CA_9
REMARK    2  A    between atoms: C_3  and  C_18
REMARK    3  A    between atoms: CA_11  and  C_15
REMARK    4  A    between atoms: C_15  and  O_16
REMARK    5  A    between atoms: C_18  and  C_23
REMARK    6  A    between atoms: C_19  and  C_28
REMARK    7  A    between atoms: C_28  and  C_30
REMARK    8  A    between atoms: C_30  and  O_31
REMARK                            x       y       z     vdW  Elec       q    Type
REMARK                         _______ _______ _______ _____ _____    ______ ____
ROOT
ATOM      1  O   UNK A   0     -35.552  20.823   0.141  0.00  0.00    -0.270 OA
ATOM      2  N   MET A   1     -34.613  22.606   1.292  0.00  0.00    -0.293 N 
ATOM      3  C   UNK A   0     -34.577  21.503   0.454  0.00  0.00    +0.248 C 
ATOM      4  H   MET A   1     -33.776  23.087   1.482  0.00  0.00    +0.150 HD
ENDROOT
BRANCH   2   9
ATOM      5  SD  MET A   1     -35.035  21.461   4.117  0.00  0.00    -0.114 S 
ATOM      6  O   MET A   1     -35.571  25.634   2.076  0.00  0.00    -0.273 OA
ATOM      7  N   MET A   1     -35.808  23.988   3.744  0.00  0.00    -0.242 N 
ATOM      8  CE  MET A   1     -36.178  22.640   3.350  0.00  0.00    +0.155 C 
ATOM      9  CA  MET A   1     -35.864  23.085   1.910  0.00  0.00    +0.179 C 
ATOM     10  C   MET A   1     -35.741  24.515   2.504  0.00  0.00    +0.251 C 
ATOM     11  CA  MET A   1     -35.641  24.362   5.032  0.00  0.00    +0.127 C 
ATOM     12  CG  MET A   1     -35.457  21.962   5.827  0.00  0.00    +0.087 C 
ATOM     13  CB  MET A   1     -35.510  23.459   6.018  0.00  0.00    +0.007 C 
BRANCH  11  15
ATOM     14  OXT MET A   1     -34.489  26.356   5.621  0.00  0.00    -0.244 OA
ATOM     15  C   MET A   1     -35.533  25.782   5.373  0.00  0.00    +0.352 C 
BRANCH  15  16
ATOM     16  O   MET A   1     -36.761  26.344   5.367  0.00  0.00    -0.476 OA
ATOM     17  H   MET A   1     -37.301  26.285   4.603  0.00  0.00    +0.295 HD
ENDBRANCH  15  16
ENDBRANCH  11  15
ENDBRANCH   2   9
BRANCH   3  18
ATOM     18  C   UNK A   0     -33.203  21.134  -0.025  0.00  0.00    +0.076 C 
ATOM     19  C   UNK A   0     -32.650  20.010   0.475  0.00  0.00    -0.008 C 
BRANCH  18  23
ATOM     20  S   UNK A   0     -31.630  23.212  -2.944  0.00  0.00    -0.060 S 
ATOM     21  N   UNK A   0     -31.957  23.167  -0.380  0.00  0.00    -0.385 NA
ATOM     22  N   UNK A   0     -30.759  25.029  -1.208  0.00  0.00    -0.328 N 
ATOM     23  C   UNK A   0     -32.552  22.057  -0.915  0.00  0.00    +0.127 C 
ATOM     24  C   UNK A   0     -32.491  21.892  -2.268  0.00  0.00    +0.125 C 
ATOM     25  C   UNK A   0     -31.432  23.859  -1.367  0.00  0.00    +0.204 C 
ATOM     26  H   UNK A   0     -30.390  25.496  -1.994  0.00  0.00    +0.145 HD
ATOM     27  H   UNK A   0     -30.638  25.410  -0.309  0.00  0.00    +0.145 HD
ENDBRANCH  18  23
BRANCH  19  28
ATOM     28  C   UNK A   0     -33.304  19.028   1.405  0.00  0.00    +0.136 C 
BRANCH  28  30
ATOM     29  O   UNK A   0     -33.049  16.854   0.326  0.00  0.00    -0.250 OA
ATOM     30  C   UNK A   0     -33.755  17.799   0.647  0.00  0.00    +0.318 C 
BRANCH  30  31
ATOM     31  O   UNK A   0     -35.080  17.867   0.345  0.00  0.00    -0.480 OA
ATOM     32  H   UNK A   0     -35.351  18.027  -0.537  0.00  0.00    +0.295 HD
ENDBRANCH  30  31
ENDBRANCH  28  30
ENDBRANCH  19  28
ENDBRANCH   3  18
TORSDOF 8
ENDMDL
