MODEL 1
REMARK VINA RESULT:      -5.3      0.000      0.000
REMARK  Name = 192597
REMARK  4 active torsions:
REMARK  status: ('A' for Active; 'I' for Inactive)
REMARK    1  A    between atoms: C_2  and  C_19
REMARK    2  A    between atoms: C_3  and  O_17
REMARK    3  A    between atoms: C_5  and  N_9
REMARK    4  A    between atoms: C_19  and  O_20
REMARK                            x       y       z     vdW  Elec       q    Type
REMARK                         _______ _______ _______ _____ _____    ______ ____
ROOT
ATOM      1  S   UNL     1     -38.388  21.758   1.850  0.00  0.00    -0.117 S 
ATOM      2  C   UNL     1     -37.517  20.776   0.560  0.00  0.00    +0.092 C 
ATOM      3  C   UNL     1     -36.875  21.839  -0.355  0.00  0.00    +0.124 C 
ATOM      4  C   UNL     1     -36.433  22.998   0.536  0.00  0.00    +0.062 C 
ATOM      5  C   UNL     1     -37.618  23.345   1.430  0.00  0.00    +0.132 C 
ATOM      6  C   UNL     1     -38.525  19.873  -0.153  0.00  0.00    +0.016 C 
ENDROOT
BRANCH   5   9
ATOM      7  O   UNL     1     -38.300  26.045   2.036  0.00  0.00    -0.252 OA
ATOM      8  O   UNL     1     -36.010  25.915   6.021  0.00  0.00    -0.270 OA
ATOM      9  N   UNL     1     -37.222  24.056   2.611  0.00  0.00    -0.234 N 
ATOM     10  N   UNL     1     -37.153  25.967   4.020  0.00  0.00    -0.236 N 
ATOM     11  C   UNL     1     -36.441  23.398   3.555  0.00  0.00    +0.070 C 
ATOM     12  C   UNL     1     -37.610  25.399   2.825  0.00  0.00    +0.314 C 
ATOM     13  C   UNL     1     -36.006  23.944   4.697  0.00  0.00    +0.047 C 
ATOM     14  C   UNL     1     -36.375  25.355   4.991  0.00  0.00    +0.250 C 
ATOM     15  C   UNL     1     -35.168  23.216   5.698  0.00  0.00    +0.037 C 
ATOM     16  H   UNL     1     -37.412  26.902   4.189  0.00  0.00    +0.159 HD
ENDBRANCH   5   9
BRANCH   3  17
ATOM     17  O   UNL     1     -37.791  22.348  -1.323  0.00  0.00    -0.383 OA
ATOM     18  H   UNL     1     -38.122  23.212  -1.033  0.00  0.00    +0.210 HD
ENDBRANCH   3  17
BRANCH   2  19
ATOM     19  C   UNL     1     -36.450  19.919   1.256  0.00  0.00    +0.149 C 
BRANCH  19  20
ATOM     20  O   UNL     1     -36.789  19.818   2.624  0.00  0.00    -0.381 OA
ATOM     21  H   UNL     1     -37.583  19.270   2.720  0.00  0.00    +0.210 HD
ENDBRANCH  19  20
ENDBRANCH   2  19
TORSDOF 4
ENDMDL
MODEL 2
REMARK VINA RESULT:      -5.2      3.970      6.018
REMARK  Name = 192597
REMARK  4 active torsions:
REMARK  status: ('A' for Active; 'I' for Inactive)
REMARK    1  A    between atoms: C_2  and  C_19
REMARK    2  A    between atoms: C_3  and  O_17
REMARK    3  A    between atoms: C_5  and  N_9
REMARK    4  A    between atoms: C_19  and  O_20
REMARK                            x       y       z     vdW  Elec       q    Type
REMARK                         _______ _______ _______ _____ _____    ______ ____
ROOT
ATOM      1  S   UNL     1     -34.446  24.930   3.186  0.00  0.00    -0.117 S 
ATOM      2  C   UNL     1     -35.992  24.159   3.819  0.00  0.00    +0.092 C 
ATOM      3  C   UNL     1     -35.891  24.311   5.351  0.00  0.00    +0.124 C 
ATOM      4  C   UNL     1     -35.215  25.652   5.630  0.00  0.00    +0.062 C 
ATOM      5  C   UNL     1     -33.970  25.711   4.752  0.00  0.00    +0.132 C 
ATOM      6  C   UNL     1     -36.062  22.707   3.345  0.00  0.00    +0.016 C 
ENDROOT
BRANCH   5   9
ATOM      7  O   UNL     1     -32.236  27.153   6.494  0.00  0.00    -0.252 OA
ATOM      8  O   UNL     1     -32.310  30.865   3.783  0.00  0.00    -0.270 OA
ATOM      9  N   UNL     1     -33.512  27.053   4.542  0.00  0.00    -0.234 N 
ATOM     10  N   UNL     1     -32.282  28.998   5.134  0.00  0.00    -0.236 N 
ATOM     11  C   UNL     1     -33.933  27.731   3.403  0.00  0.00    +0.070 C 
ATOM     12  C   UNL     1     -32.650  27.689   5.465  0.00  0.00    +0.314 C 
ATOM     13  C   UNL     1     -33.579  28.983   3.088  0.00  0.00    +0.047 C 
ATOM     14  C   UNL     1     -32.673  29.715   4.013  0.00  0.00    +0.250 C 
ATOM     15  C   UNL     1     -34.045  29.691   1.856  0.00  0.00    +0.037 C 
ATOM     16  H   UNL     1     -31.682  29.459   5.763  0.00  0.00    +0.159 HD
ENDBRANCH   5   9
BRANCH   3  17
ATOM     17  O   UNL     1     -35.103  23.283   5.948  0.00  0.00    -0.383 OA
ATOM     18  H   UNL     1     -34.201  23.319   5.592  0.00  0.00    +0.210 HD
ENDBRANCH   3  17
BRANCH   2  19
ATOM     19  C   UNL     1     -37.181  24.950   3.255  0.00  0.00    +0.149 C 
BRANCH  19  20
ATOM     20  O   UNL     1     -38.256  24.839   4.166  0.00  0.00    -0.381 OA
ATOM     21  H   UNL     1     -38.323  23.923   4.477  0.00  0.00    +0.210 HD
ENDBRANCH  19  20
ENDBRANCH   2  19
TORSDOF 4
ENDMDL
MODEL 3
REMARK VINA RESULT:      -5.2      2.547      5.596
REMARK  Name = 192597
REMARK  4 active torsions:
REMARK  status: ('A' for Active; 'I' for Inactive)
REMARK    1  A    between atoms: C_2  and  C_19
REMARK    2  A    between atoms: C_3  and  O_17
REMARK    3  A    between atoms: C_5  and  N_9
REMARK    4  A    between atoms: C_19  and  O_20
REMARK                            x       y       z     vdW  Elec       q    Type
REMARK                         _______ _______ _______ _____ _____    ______ ____
ROOT
ATOM      1  S   UNL     1     -36.767  26.125   2.342  0.00  0.00    -0.117 S 
ATOM      2  C   UNL     1     -35.241  26.277   3.357  0.00  0.00    +0.092 C 
ATOM      3  C   UNL     1     -35.665  25.781   4.755  0.00  0.00    +0.124 C 
ATOM      4  C   UNL     1     -36.661  24.642   4.550  0.00  0.00    +0.062 C 
ATOM      5  C   UNL     1     -37.696  25.135   3.544  0.00  0.00    +0.132 C 
ATOM      6  C   UNL     1     -34.761  27.729   3.334  0.00  0.00    +0.016 C 
ENDROOT
BRANCH   5   9
ATOM      7  O   UNL     1     -40.469  25.120   2.889  0.00  0.00    -0.252 OA
ATOM      8  O   UNL     1     -40.196  20.907   1.068  0.00  0.00    -0.270 OA
ATOM      9  N   UNL     1     -38.390  24.058   2.901  0.00  0.00    -0.234 N 
ATOM     10  N   UNL     1     -40.319  23.018   1.985  0.00  0.00    -0.236 N 
ATOM     11  C   UNL     1     -37.676  22.915   2.558  0.00  0.00    +0.070 C 
ATOM     12  C   UNL     1     -39.773  24.141   2.615  0.00  0.00    +0.314 C 
ATOM     13  C   UNL     1     -38.202  21.842   1.954  0.00  0.00    +0.047 C 
ATOM     14  C   UNL     1     -39.652  21.858   1.622  0.00  0.00    +0.250 C 
ATOM     15  C   UNL     1     -37.413  20.624   1.595  0.00  0.00    +0.037 C 
ATOM     16  H   UNL     1     -41.280  23.055   1.777  0.00  0.00    +0.159 HD
ENDBRANCH   5   9
BRANCH   3  17
ATOM     17  O   UNL     1     -36.307  26.800   5.520  0.00  0.00    -0.383 OA
ATOM     18  H   UNL     1     -35.948  26.802   6.421  0.00  0.00    +0.210 HD
ENDBRANCH   3  17
BRANCH   2  19
ATOM     19  C   UNL     1     -34.170  25.364   2.742  0.00  0.00    +0.149 C 
BRANCH  19  20
ATOM     20  O   UNL     1     -32.959  25.570   3.441  0.00  0.00    -0.381 OA
ATOM     21  H   UNL     1     -32.876  26.508   3.674  0.00  0.00    +0.210 HD
ENDBRANCH  19  20
ENDBRANCH   2  19
TORSDOF 4
ENDMDL
MODEL 4
REMARK VINA RESULT:      -5.1      2.275      3.097
REMARK  Name = 192597
REMARK  4 active torsions:
REMARK  status: ('A' for Active; 'I' for Inactive)
REMARK    1  A    between atoms: C_2  and  C_19
REMARK    2  A    between atoms: C_3  and  O_17
REMARK    3  A    between atoms: C_5  and  N_9
REMARK    4  A    between atoms: C_19  and  O_20
REMARK                            x       y       z     vdW  Elec       q    Type
REMARK                         _______ _______ _______ _____ _____    ______ ____
ROOT
ATOM      1  S   UNL     1     -35.564  21.351   2.847  0.00  0.00    -0.117 S 
ATOM      2  C   UNL     1     -36.506  21.138   1.282  0.00  0.00    +0.092 C 
ATOM      3  C   UNL     1     -37.853  21.839   1.552  0.00  0.00    +0.124 C 
ATOM      4  C   UNL     1     -37.564  23.058   2.427  0.00  0.00    +0.062 C 
ATOM      5  C   UNL     1     -36.684  22.578   3.576  0.00  0.00    +0.132 C 
ATOM      6  C   UNL     1     -36.636  19.647   0.970  0.00  0.00    +0.016 C 
ENDROOT
BRANCH   5   9
ATOM      7  O   UNL     1     -35.742  22.604   6.266  0.00  0.00    -0.252 OA
ATOM      8  O   UNL     1     -33.880  26.777   5.759  0.00  0.00    -0.270 OA
ATOM      9  N   UNL     1     -35.951  23.648   4.188  0.00  0.00    -0.234 N 
ATOM     10  N   UNL     1     -34.819  24.686   6.000  0.00  0.00    -0.236 N 
ATOM     11  C   UNL     1     -35.662  24.777   3.430  0.00  0.00    +0.070 C 
ATOM     12  C   UNL     1     -35.524  23.571   5.534  0.00  0.00    +0.314 C 
ATOM     13  C   UNL     1     -34.987  25.843   3.878  0.00  0.00    +0.047 C 
ATOM     14  C   UNL     1     -34.506  25.833   5.286  0.00  0.00    +0.250 C 
ATOM     15  C   UNL     1     -34.688  27.046   3.043  0.00  0.00    +0.037 C 
ATOM     16  H   UNL     1     -34.513  24.653   6.935  0.00  0.00    +0.159 HD
ENDBRANCH   5   9
BRANCH   3  17
ATOM     17  O   UNL     1     -38.772  21.000   2.250  0.00  0.00    -0.383 OA
ATOM     18  H   UNL     1     -38.429  20.094   2.272  0.00  0.00    +0.210 HD
ENDBRANCH   3  17
BRANCH   2  19
ATOM     19  C   UNL     1     -35.726  21.839   0.160  0.00  0.00    +0.149 C 
BRANCH  19  20
ATOM     20  O   UNL     1     -34.465  22.221   0.671  0.00  0.00    -0.381 OA
ATOM     21  H   UNL     1     -33.931  21.429   0.837  0.00  0.00    +0.210 HD
ENDBRANCH  19  20
ENDBRANCH   2  19
TORSDOF 4
ENDMDL
MODEL 5
REMARK VINA RESULT:      -5.1      2.376      5.732
REMARK  Name = 192597
REMARK  4 active torsions:
REMARK  status: ('A' for Active; 'I' for Inactive)
REMARK    1  A    between atoms: C_2  and  C_19
REMARK    2  A    between atoms: C_3  and  O_17
REMARK    3  A    between atoms: C_5  and  N_9
REMARK    4  A    between atoms: C_19  and  O_20
REMARK                            x       y       z     vdW  Elec       q    Type
REMARK                         _______ _______ _______ _____ _____    ______ ____
ROOT
ATOM      1  S   UNL     1     -35.995  25.175   2.197  0.00  0.00    -0.117 S 
ATOM      2  C   UNL     1     -34.972  25.943   3.519  0.00  0.00    +0.092 C 
ATOM      3  C   UNL     1     -35.561  25.380   4.829  0.00  0.00    +0.124 C 
ATOM      4  C   UNL     1     -35.982  23.938   4.554  0.00  0.00    +0.062 C 
ATOM      5  C   UNL     1     -36.801  23.954   3.268  0.00  0.00    +0.132 C 
ATOM      6  C   UNL     1     -35.060  27.466   3.405  0.00  0.00    +0.016 C 
ENDROOT
BRANCH   5   9
ATOM      7  O   UNL     1     -39.161  22.693   2.288  0.00  0.00    -0.252 OA
ATOM      8  O   UNL     1     -36.813  19.004   0.867  0.00  0.00    -0.270 OA
ATOM      9  N   UNL     1     -36.853  22.667   2.637  0.00  0.00    -0.234 N 
ATOM     10  N   UNL     1     -37.978  20.859   1.585  0.00  0.00    -0.236 N 
ATOM     11  C   UNL     1     -35.669  21.954   2.477  0.00  0.00    +0.070 C 
ATOM     12  C   UNL     1     -38.075  22.121   2.181  0.00  0.00    +0.314 C 
ATOM     13  C   UNL     1     -35.580  20.747   1.905  0.00  0.00    +0.047 C 
ATOM     14  C   UNL     1     -36.826  20.109   1.402  0.00  0.00    +0.250 C 
ATOM     15  C   UNL     1     -34.295  20.000   1.744  0.00  0.00    +0.037 C 
ATOM     16  H   UNL     1     -38.817  20.460   1.261  0.00  0.00    +0.159 HD
ENDBRANCH   5   9
BRANCH   3  17
ATOM     17  O   UNL     1     -36.711  26.104   5.262  0.00  0.00    -0.383 OA
ATOM     18  H   UNL     1     -37.508  25.581   5.084  0.00  0.00    +0.210 HD
ENDBRANCH   3  17
BRANCH   2  19
ATOM     19  C   UNL     1     -33.519  25.489   3.318  0.00  0.00    +0.149 C 
BRANCH  19  20
ATOM     20  O   UNL     1     -32.677  26.378   4.024  0.00  0.00    -0.381 OA
ATOM     21  H   UNL     1     -32.866  27.289   3.749  0.00  0.00    +0.210 HD
ENDBRANCH  19  20
ENDBRANCH   2  19
TORSDOF 4
ENDMDL
MODEL 6
REMARK VINA RESULT:      -5.1      3.039      4.723
REMARK  Name = 192597
REMARK  4 active torsions:
REMARK  status: ('A' for Active; 'I' for Inactive)
REMARK    1  A    between atoms: C_2  and  C_19
REMARK    2  A    between atoms: C_3  and  O_17
REMARK    3  A    between atoms: C_5  and  N_9
REMARK    4  A    between atoms: C_19  and  O_20
REMARK                            x       y       z     vdW  Elec       q    Type
REMARK                         _______ _______ _______ _____ _____    ______ ____
ROOT
ATOM      1  S   UNL     1     -34.841  23.603   2.548  0.00  0.00    -0.117 S 
ATOM      2  C   UNL     1     -35.999  22.428   3.361  0.00  0.00    +0.092 C 
ATOM      3  C   UNL     1     -35.865  22.744   4.865  0.00  0.00    +0.124 C 
ATOM      4  C   UNL     1     -35.662  24.252   4.995  0.00  0.00    +0.062 C 
ATOM      5  C   UNL     1     -34.563  24.637   4.011  0.00  0.00    +0.132 C 
ATOM      6  C   UNL     1     -35.606  20.996   2.993  0.00  0.00    +0.016 C 
ENDROOT
BRANCH   5   9
ATOM      7  O   UNL     1     -32.968  26.664   5.224  0.00  0.00    -0.252 OA
ATOM      8  O   UNL     1     -34.816  29.944   2.584  0.00  0.00    -0.270 OA
ATOM      9  N   UNL     1     -34.595  26.030   3.673  0.00  0.00    -0.234 N 
ATOM     10  N   UNL     1     -33.899  28.290   3.902  0.00  0.00    -0.236 N 
ATOM     11  C   UNL     1     -35.466  26.455   2.676  0.00  0.00    +0.070 C 
ATOM     12  C   UNL     1     -33.764  26.966   4.333  0.00  0.00    +0.314 C 
ATOM     13  C   UNL     1     -35.593  27.723   2.266  0.00  0.00    +0.047 C 
ATOM     14  C   UNL     1     -34.749  28.763   2.914  0.00  0.00    +0.250 C 
ATOM     15  C   UNL     1     -36.537  28.155   1.190  0.00  0.00    +0.037 C 
ATOM     16  H   UNL     1     -33.329  28.958   4.347  0.00  0.00    +0.159 HD
ENDBRANCH   5   9
BRANCH   3  17
ATOM     17  O   UNL     1     -34.744  22.092   5.459  0.00  0.00    -0.383 OA
ATOM     18  H   UNL     1     -34.725  21.163   5.183  0.00  0.00    +0.210 HD
ENDBRANCH   3  17
BRANCH   2  19
ATOM     19  C   UNL     1     -37.415  22.728   2.851  0.00  0.00    +0.149 C 
BRANCH  19  20
ATOM     20  O   UNL     1     -38.060  21.498   2.590  0.00  0.00    -0.381 OA
ATOM     21  H   UNL     1     -37.795  20.846   3.257  0.00  0.00    +0.210 HD
ENDBRANCH  19  20
ENDBRANCH   2  19
TORSDOF 4
ENDMDL
MODEL 7
REMARK VINA RESULT:      -4.8      2.189      3.353
REMARK  Name = 192597
REMARK  4 active torsions:
REMARK  status: ('A' for Active; 'I' for Inactive)
REMARK    1  A    between atoms: C_2  and  C_19
REMARK    2  A    between atoms: C_3  and  O_17
REMARK    3  A    between atoms: C_5  and  N_9
REMARK    4  A    between atoms: C_19  and  O_20
REMARK                            x       y       z     vdW  Elec       q    Type
REMARK                         _______ _______ _______ _____ _____    ______ ____
ROOT
ATOM      1  S   UNL     1     -35.165  22.450   1.567  0.00  0.00    -0.117 S 
ATOM      2  C   UNL     1     -36.739  22.181   0.652  0.00  0.00    +0.092 C 
ATOM      3  C   UNL     1     -37.785  21.945   1.761  0.00  0.00    +0.124 C 
ATOM      4  C   UNL     1     -37.414  22.848   2.936  0.00  0.00    +0.062 C 
ATOM      5  C   UNL     1     -35.927  22.637   3.202  0.00  0.00    +0.132 C 
ATOM      6  C   UNL     1     -36.571  20.998  -0.303  0.00  0.00    +0.016 C 
ENDROOT
BRANCH   5   9
ATOM      7  O   UNL     1     -35.949  22.942   6.035  0.00  0.00    -0.252 OA
ATOM      8  O   UNL     1     -33.620  26.900   5.804  0.00  0.00    -0.270 OA
ATOM      9  N   UNL     1     -35.341  23.729   3.923  0.00  0.00    -0.234 N 
ATOM     10  N   UNL     1     -34.788  24.915   5.906  0.00  0.00    -0.236 N 
ATOM     11  C   UNL     1     -34.703  24.736   3.207  0.00  0.00    +0.070 C 
ATOM     12  C   UNL     1     -35.402  23.795   5.335  0.00  0.00    +0.314 C 
ATOM     13  C   UNL     1     -34.116  25.806   3.756  0.00  0.00    +0.047 C 
ATOM     14  C   UNL     1     -34.140  25.943   5.237  0.00  0.00    +0.250 C 
ATOM     15  C   UNL     1     -33.435  26.876   2.964  0.00  0.00    +0.037 C 
ATOM     16  H   UNL     1     -34.819  24.981   6.887  0.00  0.00    +0.159 HD
ENDBRANCH   5   9
BRANCH   3  17
ATOM     17  O   UNL     1     -37.792  20.596   2.223  0.00  0.00    -0.383 OA
ATOM     18  H   UNL     1     -37.341  20.030   1.577  0.00  0.00    +0.210 HD
ENDBRANCH   3  17
BRANCH   2  19
ATOM     19  C   UNL     1     -37.047  23.456  -0.146  0.00  0.00    +0.149 C 
BRANCH  19  20
ATOM     20  O   UNL     1     -38.440  23.508  -0.374  0.00  0.00    -0.381 OA
ATOM     21  H   UNL     1     -38.864  22.738   0.037  0.00  0.00    +0.210 HD
ENDBRANCH  19  20
ENDBRANCH   2  19
TORSDOF 4
ENDMDL
MODEL 8
REMARK VINA RESULT:      -4.8      2.316      3.478
REMARK  Name = 192597
REMARK  4 active torsions:
REMARK  status: ('A' for Active; 'I' for Inactive)
REMARK    1  A    between atoms: C_2  and  C_19
REMARK    2  A    between atoms: C_3  and  O_17
REMARK    3  A    between atoms: C_5  and  N_9
REMARK    4  A    between atoms: C_19  and  O_20
REMARK                            x       y       z     vdW  Elec       q    Type
REMARK                         _______ _______ _______ _____ _____    ______ ____
ROOT
ATOM      1  S   UNL     1     -34.542  20.312   1.953  0.00  0.00    -0.117 S 
ATOM      2  C   UNL     1     -35.132  19.852   0.273  0.00  0.00    +0.092 C 
ATOM      3  C   UNL     1     -36.662  19.731   0.429  0.00  0.00    +0.124 C 
ATOM      4  C   UNL     1     -37.104  20.805   1.421  0.00  0.00    +0.062 C 
ATOM      5  C   UNL     1     -36.180  20.696   2.630  0.00  0.00    +0.132 C 
ATOM      6  C   UNL     1     -34.450  18.555  -0.164  0.00  0.00    +0.016 C 
ENDROOT
BRANCH   5   9
ATOM      7  O   UNL     1     -35.124  20.934   5.267  0.00  0.00    -0.252 OA
ATOM      8  O   UNL     1     -36.144  25.413   5.460  0.00  0.00    -0.270 OA
ATOM      9  N   UNL     1     -36.150  21.902   3.405  0.00  0.00    -0.234 N 
ATOM     10  N   UNL     1     -35.639  23.166   5.351  0.00  0.00    -0.236 N 
ATOM     11  C   UNL     1     -36.671  23.065   2.850  0.00  0.00    +0.070 C 
ATOM     12  C   UNL     1     -35.604  21.923   4.710  0.00  0.00    +0.314 C 
ATOM     13  C   UNL     1     -36.704  24.254   3.466  0.00  0.00    +0.047 C 
ATOM     14  C   UNL     1     -36.147  24.353   4.841  0.00  0.00    +0.250 C 
ATOM     15  C   UNL     1     -37.270  25.491   2.847  0.00  0.00    +0.037 C 
ATOM     16  H   UNL     1     -35.265  23.204   6.260  0.00  0.00    +0.159 HD
ENDBRANCH   5   9
BRANCH   3  17
ATOM     17  O   UNL     1     -37.057  18.461   0.944  0.00  0.00    -0.383 OA
ATOM     18  H   UNL     1     -37.626  18.013   0.299  0.00  0.00    +0.210 HD
ENDBRANCH   3  17
BRANCH   2  19
ATOM     19  C   UNL     1     -34.756  20.988  -0.689  0.00  0.00    +0.149 C 
BRANCH  19  20
ATOM     20  O   UNL     1     -34.029  21.958   0.037  0.00  0.00    -0.381 OA
ATOM     21  H   UNL     1     -34.538  22.783   0.074  0.00  0.00    +0.210 HD
ENDBRANCH  19  20
ENDBRANCH   2  19
TORSDOF 4
ENDMDL
MODEL 9
REMARK VINA RESULT:      -4.8      3.320      6.218
REMARK  Name = 192597
REMARK  4 active torsions:
REMARK  status: ('A' for Active; 'I' for Inactive)
REMARK    1  A    between atoms: C_2  and  C_19
REMARK    2  A    between atoms: C_3  and  O_17
REMARK    3  A    between atoms: C_5  and  N_9
REMARK    4  A    between atoms: C_19  and  O_20
REMARK                            x       y       z     vdW  Elec       q    Type
REMARK                         _______ _______ _______ _____ _____    ______ ____
ROOT
ATOM      1  S   UNL     1     -35.855  26.433   2.901  0.00  0.00    -0.117 S 
ATOM      2  C   UNL     1     -34.472  27.587   2.528  0.00  0.00    +0.092 C 
ATOM      3  C   UNL     1     -33.351  27.161   3.498  0.00  0.00    +0.124 C 
ATOM      4  C   UNL     1     -33.421  25.641   3.634  0.00  0.00    +0.062 C 
ATOM      5  C   UNL     1     -34.878  25.289   3.914  0.00  0.00    +0.132 C 
ATOM      6  C   UNL     1     -34.949  29.026   2.726  0.00  0.00    +0.016 C 
ENDROOT
BRANCH   5   9
ATOM      7  O   UNL     1     -36.064  23.404   5.693  0.00  0.00    -0.252 OA
ATOM      8  O   UNL     1     -35.980  20.086   2.510  0.00  0.00    -0.270 OA
ATOM      9  N   UNL     1     -35.183  23.925   3.594  0.00  0.00    -0.234 N 
ATOM     10  N   UNL     1     -36.015  21.758   4.097  0.00  0.00    -0.236 N 
ATOM     11  C   UNL     1     -34.886  23.457   2.319  0.00  0.00    +0.070 C 
ATOM     12  C   UNL     1     -35.773  23.061   4.545  0.00  0.00    +0.314 C 
ATOM     13  C   UNL     1     -35.119  22.210   1.892  0.00  0.00    +0.047 C 
ATOM     14  C   UNL     1     -35.739  21.244   2.839  0.00  0.00    +0.250 C 
ATOM     15  C   UNL     1     -34.791  21.730   0.515  0.00  0.00    +0.037 C 
ATOM     16  H   UNL     1     -36.426  21.140   4.743  0.00  0.00    +0.159 HD
ENDBRANCH   5   9
BRANCH   3  17
ATOM     17  O   UNL     1     -33.510  27.730   4.796  0.00  0.00    -0.383 OA
ATOM     18  H   UNL     1     -32.926  27.277   5.422  0.00  0.00    +0.210 HD
ENDBRANCH   3  17
BRANCH   2  19
ATOM     19  C   UNL     1     -34.058  27.372   1.065  0.00  0.00    +0.149 C 
BRANCH  19  20
ATOM     20  O   UNL     1     -32.717  27.792   0.920  0.00  0.00    -0.381 OA
ATOM     21  H   UNL     1     -32.698  28.720   0.637  0.00  0.00    +0.210 HD
ENDBRANCH  19  20
ENDBRANCH   2  19
TORSDOF 4
ENDMDL
