MODEL 1
REMARK VINA RESULT:      -5.6      0.000      0.000
REMARK  Name = 60055295
REMARK  7 active torsions:
REMARK  status: ('A' for Active; 'I' for Inactive)
REMARK    1  A    between atoms: C_1  and  C_2
REMARK    2  A    between atoms: C_1  and  CA_12
REMARK    3  A    between atoms: C_5  and  N_11
REMARK    4  A    between atoms: C_7  and  O_8
REMARK    5  A    between atoms: CA_12  and  N_13
REMARK    6  A    between atoms: CA_12  and  C_18
REMARK    7  A    between atoms: C_18  and  O_19
REMARK                            x       y       z     vdW  Elec       q    Type
REMARK                         _______ _______ _______ _____ _____    ______ ____
ROOT
ATOM      1  C   UNL     1     -34.888  25.534   3.198  0.00  0.00    +0.015 C 
ENDROOT
BRANCH   1   2
ATOM      2  C   UNL     1     -35.047  24.203   3.895  0.00  0.00    -0.022 C 
ATOM      3  C   UNL     1     -35.322  23.054   3.152  0.00  0.00    +0.020 C 
ATOM      4  C   UNL     1     -34.918  24.123   5.282  0.00  0.00    -0.001 C 
ATOM      5  C   UNL     1     -35.468  21.826   3.797  0.00  0.00    +0.144 C 
ATOM      6  C   UNL     1     -35.066  22.894   5.926  0.00  0.00    +0.038 C 
ATOM      7  C   UNL     1     -35.340  21.746   5.184  0.00  0.00    +0.153 C 
BRANCH   7   8
ATOM      8  O   UNL     1     -35.478  20.560   5.844  0.00  0.00    -0.504 OA
ATOM      9  H   UNL     1     -35.689  19.781   5.369  0.00  0.00    +0.292 HD
ENDBRANCH   7   8
BRANCH   5  11
ATOM     10  O   UNL     1     -34.740  20.001   2.830  0.00  0.00    -0.060 OA
ATOM     11  N   UNL     1     -35.737  20.704   3.049  0.00  0.00    -0.093 NA
ENDBRANCH   5  11
ENDBRANCH   1   2
BRANCH   1  12
ATOM     12  CA  UNL     1     -34.700  26.703   4.176  0.00  0.00    +0.040 C 
BRANCH  12  13
ATOM     13  N   UNL     1     -35.347  27.901   3.647  0.00  0.00    +0.389 N 
ATOM     14  H1  UNL     1     -34.893  28.730   4.030  0.00  0.00    -0.088 HD
ATOM     15  H2  UNL     1     -36.332  27.901   3.914  0.00  0.00    -0.088 HD
ATOM     16  H3  UNL     1     -35.271  27.909   2.630  0.00  0.00    -0.088 HD
ENDBRANCH  12  13
BRANCH  12  18
ATOM     17  OXT UNL     1     -32.341  26.799   3.577  0.00  0.00    -0.253 OA
ATOM     18  C   UNL     1     -33.235  27.053   4.374  0.00  0.00    +0.293 C 
BRANCH  18  19
ATOM     19  O   UNL     1     -33.016  27.722   5.537  0.00  0.00    -0.482 OA
ATOM     20  H   UNL     1     -33.123  28.652   5.570  0.00  0.00    +0.295 HD
ENDBRANCH  18  19
ENDBRANCH  12  18
ENDBRANCH   1  12
TORSDOF 7
ENDMDL
MODEL 2
REMARK VINA RESULT:      -5.5      2.841      3.216
REMARK  Name = 60055295
REMARK  7 active torsions:
REMARK  status: ('A' for Active; 'I' for Inactive)
REMARK    1  A    between atoms: C_1  and  C_2
REMARK    2  A    between atoms: C_1  and  CA_12
REMARK    3  A    between atoms: C_5  and  N_11
REMARK    4  A    between atoms: C_7  and  O_8
REMARK    5  A    between atoms: CA_12  and  N_13
REMARK    6  A    between atoms: CA_12  and  C_18
REMARK    7  A    between atoms: C_18  and  O_19
REMARK                            x       y       z     vdW  Elec       q    Type
REMARK                         _______ _______ _______ _____ _____    ______ ____
ROOT
ATOM      1  C   UNL     1     -36.137  25.547   3.389  0.00  0.00    +0.015 C 
ENDROOT
BRANCH   1   2
ATOM      2  C   UNL     1     -35.863  24.200   4.018  0.00  0.00    -0.022 C 
ATOM      3  C   UNL     1     -35.944  23.040   3.247  0.00  0.00    +0.020 C 
ATOM      4  C   UNL     1     -35.530  24.117   5.370  0.00  0.00    -0.001 C 
ATOM      5  C   UNL     1     -35.691  21.797   3.828  0.00  0.00    +0.144 C 
ATOM      6  C   UNL     1     -35.279  22.874   5.952  0.00  0.00    +0.038 C 
ATOM      7  C   UNL     1     -35.358  21.715   5.181  0.00  0.00    +0.153 C 
BRANCH   7   8
ATOM      8  O   UNL     1     -35.106  20.515   5.779  0.00  0.00    -0.504 OA
ATOM      9  H   UNL     1     -35.418  19.722   5.389  0.00  0.00    +0.292 HD
ENDBRANCH   7   8
BRANCH   5  11
ATOM     10  O   UNL     1     -34.686  20.094   2.890  0.00  0.00    -0.060 OA
ATOM     11  N   UNL     1     -35.774  20.666   3.052  0.00  0.00    -0.093 NA
ENDBRANCH   5  11
ENDBRANCH   1   2
BRANCH   1  12
ATOM     12  CA  UNL     1     -37.311  25.516   2.398  0.00  0.00    +0.040 C 
BRANCH  12  13
ATOM     13  N   UNL     1     -37.351  26.763   1.639  0.00  0.00    +0.389 N 
ATOM     14  H1  UNL     1     -38.315  26.974   1.381  0.00  0.00    -0.088 HD
ATOM     15  H2  UNL     1     -36.788  26.664   0.793  0.00  0.00    -0.088 HD
ATOM     16  H3  UNL     1     -36.977  27.521   2.209  0.00  0.00    -0.088 HD
ENDBRANCH  12  13
BRANCH  12  18
ATOM     17  OXT UNL     1     -39.148  24.344   3.488  0.00  0.00    -0.253 OA
ATOM     18  C   UNL     1     -38.651  25.395   3.104  0.00  0.00    +0.293 C 
BRANCH  18  19
ATOM     19  O   UNL     1     -39.242  26.604   3.302  0.00  0.00    -0.482 OA
ATOM     20  H   UNL     1     -39.513  27.118   2.568  0.00  0.00    +0.295 HD
ENDBRANCH  18  19
ENDBRANCH  12  18
ENDBRANCH   1  12
TORSDOF 7
ENDMDL
MODEL 3
REMARK VINA RESULT:      -5.4      1.708      5.917
REMARK  Name = 60055295
REMARK  7 active torsions:
REMARK  status: ('A' for Active; 'I' for Inactive)
REMARK    1  A    between atoms: C_1  and  C_2
REMARK    2  A    between atoms: C_1  and  CA_12
REMARK    3  A    between atoms: C_5  and  N_11
REMARK    4  A    between atoms: C_7  and  O_8
REMARK    5  A    between atoms: CA_12  and  N_13
REMARK    6  A    between atoms: CA_12  and  C_18
REMARK    7  A    between atoms: C_18  and  O_19
REMARK                            x       y       z     vdW  Elec       q    Type
REMARK                         _______ _______ _______ _____ _____    ______ ____
ROOT
ATOM      1  C   UNL     1     -35.975  24.321   5.150  0.00  0.00    +0.015 C 
ENDROOT
BRANCH   1   2
ATOM      2  C   UNL     1     -34.943  25.364   4.786  0.00  0.00    -0.022 C 
ATOM      3  C   UNL     1     -34.202  25.991   5.788  0.00  0.00    +0.020 C 
ATOM      4  C   UNL     1     -34.733  25.699   3.448  0.00  0.00    -0.001 C 
ATOM      5  C   UNL     1     -33.250  26.954   5.451  0.00  0.00    +0.144 C 
ATOM      6  C   UNL     1     -33.782  26.662   3.112  0.00  0.00    +0.038 C 
ATOM      7  C   UNL     1     -33.040  27.289   4.113  0.00  0.00    +0.153 C 
BRANCH   7   8
ATOM      8  O   UNL     1     -32.117  28.226   3.751  0.00  0.00    -0.504 OA
ATOM      9  H   UNL     1     -32.247  28.738   2.976  0.00  0.00    +0.292 HD
ENDBRANCH   7   8
BRANCH   5  11
ATOM     10  O   UNL     1     -31.301  27.484   6.295  0.00  0.00    -0.060 OA
ATOM     11  N   UNL     1     -32.528  27.561   6.451  0.00  0.00    -0.093 NA
ENDBRANCH   5  11
ENDBRANCH   1   2
BRANCH   1  12
ATOM     12  CA  UNL     1     -35.632  22.926   4.605  0.00  0.00    +0.040 C 
BRANCH  12  13
ATOM     13  N   UNL     1     -36.764  22.398   3.848  0.00  0.00    +0.389 N 
ATOM     14  H1  UNL     1     -37.606  22.921   4.086  0.00  0.00    -0.088 HD
ATOM     15  H2  UNL     1     -36.899  21.414   4.080  0.00  0.00    -0.088 HD
ATOM     16  H3  UNL     1     -36.577  22.488   2.849  0.00  0.00    -0.088 HD
ENDBRANCH  12  13
BRANCH  12  18
ATOM     17  OXT UNL     1     -35.320  22.205   6.911  0.00  0.00    -0.253 OA
ATOM     18  C   UNL     1     -35.353  21.931   5.719  0.00  0.00    +0.293 C 
BRANCH  18  19
ATOM     19  O   UNL     1     -35.173  20.667   5.249  0.00  0.00    -0.482 OA
ATOM     20  H   UNL     1     -35.769  20.312   4.621  0.00  0.00    +0.295 HD
ENDBRANCH  18  19
ENDBRANCH  12  18
ENDBRANCH   1  12
TORSDOF 7
ENDMDL
MODEL 4
REMARK VINA RESULT:      -5.3      2.622      5.531
REMARK  Name = 60055295
REMARK  7 active torsions:
REMARK  status: ('A' for Active; 'I' for Inactive)
REMARK    1  A    between atoms: C_1  and  C_2
REMARK    2  A    between atoms: C_1  and  CA_12
REMARK    3  A    between atoms: C_5  and  N_11
REMARK    4  A    between atoms: C_7  and  O_8
REMARK    5  A    between atoms: CA_12  and  N_13
REMARK    6  A    between atoms: CA_12  and  C_18
REMARK    7  A    between atoms: C_18  and  O_19
REMARK                            x       y       z     vdW  Elec       q    Type
REMARK                         _______ _______ _______ _____ _____    ______ ____
ROOT
ATOM      1  C   UNL     1     -35.418  21.262   3.774  0.00  0.00    +0.015 C 
ENDROOT
BRANCH   1   2
ATOM      2  C   UNL     1     -35.715  22.685   4.190  0.00  0.00    -0.022 C 
ATOM      3  C   UNL     1     -36.736  23.396   3.560  0.00  0.00    +0.020 C 
ATOM      4  C   UNL     1     -34.968  23.285   5.203  0.00  0.00    -0.001 C 
ATOM      5  C   UNL     1     -37.010  24.709   3.943  0.00  0.00    +0.144 C 
ATOM      6  C   UNL     1     -35.241  24.598   5.585  0.00  0.00    +0.038 C 
ATOM      7  C   UNL     1     -36.262  25.310   4.957  0.00  0.00    +0.153 C 
BRANCH   7   8
ATOM      8  O   UNL     1     -36.505  26.592   5.355  0.00  0.00    -0.504 OA
ATOM      9  H   UNL     1     -37.220  26.777   5.932  0.00  0.00    +0.292 HD
ENDBRANCH   7   8
BRANCH   5  11
ATOM     10  O   UNL     1     -37.623  26.346   2.625  0.00  0.00    -0.060 OA
ATOM     11  N   UNL     1     -38.021  25.395   3.312  0.00  0.00    -0.093 NA
ENDBRANCH   5  11
ENDBRANCH   1   2
BRANCH   1  12
ATOM     12  CA  UNL     1     -35.856  20.956   2.334  0.00  0.00    +0.040 C 
BRANCH  12  13
ATOM     13  N   UNL     1     -36.839  19.876   2.333  0.00  0.00    +0.389 N 
ATOM     14  H1  UNL     1     -36.838  19.415   3.244  0.00  0.00    -0.088 HD
ATOM     15  H2  UNL     1     -36.599  19.197   1.610  0.00  0.00    -0.088 HD
ATOM     16  H3  UNL     1     -37.766  20.258   2.146  0.00  0.00    -0.088 HD
ENDBRANCH  12  13
BRANCH  12  18
ATOM     17  OXT UNL     1     -33.955  21.224   0.834  0.00  0.00    -0.253 OA
ATOM     18  C   UNL     1     -34.696  20.487   1.472  0.00  0.00    +0.293 C 
BRANCH  18  19
ATOM     19  O   UNL     1     -34.539  19.137   1.506  0.00  0.00    -0.482 OA
ATOM     20  H   UNL     1     -33.960  18.749   2.131  0.00  0.00    +0.295 HD
ENDBRANCH  18  19
ENDBRANCH  12  18
ENDBRANCH   1  12
TORSDOF 7
ENDMDL
MODEL 5
REMARK VINA RESULT:      -5.3      1.728      5.866
REMARK  Name = 60055295
REMARK  7 active torsions:
REMARK  status: ('A' for Active; 'I' for Inactive)
REMARK    1  A    between atoms: C_1  and  C_2
REMARK    2  A    between atoms: C_1  and  CA_12
REMARK    3  A    between atoms: C_5  and  N_11
REMARK    4  A    between atoms: C_7  and  O_8
REMARK    5  A    between atoms: CA_12  and  N_13
REMARK    6  A    between atoms: CA_12  and  C_18
REMARK    7  A    between atoms: C_18  and  O_19
REMARK                            x       y       z     vdW  Elec       q    Type
REMARK                         _______ _______ _______ _____ _____    ______ ____
ROOT
ATOM      1  C   UNL     1     -35.486  22.546   4.210  0.00  0.00    +0.015 C 
ENDROOT
BRANCH   1   2
ATOM      2  C   UNL     1     -35.041  23.990   4.166  0.00  0.00    -0.022 C 
ATOM      3  C   UNL     1     -34.565  24.608   5.322  0.00  0.00    +0.020 C 
ATOM      4  C   UNL     1     -35.107  24.703   2.969  0.00  0.00    -0.001 C 
ATOM      5  C   UNL     1     -34.154  25.941   5.281  0.00  0.00    +0.144 C 
ATOM      6  C   UNL     1     -34.697  26.036   2.929  0.00  0.00    +0.038 C 
ATOM      7  C   UNL     1     -34.220  26.654   4.084  0.00  0.00    +0.153 C 
BRANCH   7   8
ATOM      8  O   UNL     1     -33.827  27.958   4.011  0.00  0.00    -0.504 OA
ATOM      9  H   UNL     1     -33.979  28.536   4.734  0.00  0.00    +0.292 HD
ENDBRANCH   7   8
BRANCH   5  11
ATOM     10  O   UNL     1     -32.524  26.952   6.335  0.00  0.00    -0.060 OA
ATOM     11  N   UNL     1     -33.686  26.533   6.430  0.00  0.00    -0.093 NA
ENDBRANCH   5  11
ENDBRANCH   1   2
BRANCH   1  12
ATOM     12  CA  UNL     1     -36.151  22.085   2.903  0.00  0.00    +0.040 C 
BRANCH  12  13
ATOM     13  N   UNL     1     -37.604  22.137   3.042  0.00  0.00    +0.389 N 
ATOM     14  H1  UNL     1     -38.039  21.678   2.242  0.00  0.00    -0.088 HD
ATOM     15  H2  UNL     1     -37.907  23.111   3.080  0.00  0.00    -0.088 HD
ATOM     16  H3  UNL     1     -37.882  21.662   3.901  0.00  0.00    -0.088 HD
ENDBRANCH  12  13
BRANCH  12  18
ATOM     17  OXT UNL     1     -34.702  20.270   2.169  0.00  0.00    -0.253 OA
ATOM     18  C   UNL     1     -35.799  20.648   2.559  0.00  0.00    +0.293 C 
BRANCH  18  19
ATOM     19  O   UNL     1     -36.840  19.798   2.764  0.00  0.00    -0.482 OA
ATOM     20  H   UNL     1     -37.178  19.291   2.053  0.00  0.00    +0.295 HD
ENDBRANCH  18  19
ENDBRANCH  12  18
ENDBRANCH   1  12
TORSDOF 7
ENDMDL
MODEL 6
REMARK VINA RESULT:      -5.2      1.866      2.387
REMARK  Name = 60055295
REMARK  7 active torsions:
REMARK  status: ('A' for Active; 'I' for Inactive)
REMARK    1  A    between atoms: C_1  and  C_2
REMARK    2  A    between atoms: C_1  and  CA_12
REMARK    3  A    between atoms: C_5  and  N_11
REMARK    4  A    between atoms: C_7  and  O_8
REMARK    5  A    between atoms: CA_12  and  N_13
REMARK    6  A    between atoms: CA_12  and  C_18
REMARK    7  A    between atoms: C_18  and  O_19
REMARK                            x       y       z     vdW  Elec       q    Type
REMARK                         _______ _______ _______ _____ _____    ______ ____
ROOT
ATOM      1  C   UNL     1     -35.279  25.861   5.795  0.00  0.00    +0.015 C 
ENDROOT
BRANCH   1   2
ATOM      2  C   UNL     1     -35.832  24.728   4.960  0.00  0.00    -0.022 C 
ATOM      3  C   UNL     1     -35.343  23.433   5.132  0.00  0.00    +0.020 C 
ATOM      4  C   UNL     1     -36.830  24.979   4.019  0.00  0.00    -0.001 C 
ATOM      5  C   UNL     1     -35.853  22.388   4.361  0.00  0.00    +0.144 C 
ATOM      6  C   UNL     1     -37.339  23.934   3.248  0.00  0.00    +0.038 C 
ATOM      7  C   UNL     1     -36.851  22.639   3.419  0.00  0.00    +0.153 C 
BRANCH   7   8
ATOM      8  O   UNL     1     -37.371  21.639   2.650  0.00  0.00    -0.504 OA
ATOM      9  H   UNL     1     -37.675  21.824   1.783  0.00  0.00    +0.292 HD
ENDBRANCH   7   8
BRANCH   5  11
ATOM     10  O   UNL     1     -35.050  20.547   3.489  0.00  0.00    -0.060 OA
ATOM     11  N   UNL     1     -35.360  21.117   4.545  0.00  0.00    -0.093 NA
ENDBRANCH   5  11
ENDBRANCH   1   2
BRANCH   1  12
ATOM     12  CA  UNL     1     -33.799  26.151   5.504  0.00  0.00    +0.040 C 
BRANCH  12  13
ATOM     13  N   UNL     1     -33.214  26.903   6.611  0.00  0.00    +0.389 N 
ATOM     14  H1  UNL     1     -33.330  26.377   7.478  0.00  0.00    -0.088 HD
ATOM     15  H2  UNL     1     -33.685  27.804   6.696  0.00  0.00    -0.088 HD
ATOM     16  H3  UNL     1     -32.221  27.054   6.434  0.00  0.00    -0.088 HD
ENDBRANCH  12  13
BRANCH  12  18
ATOM     17  OXT UNL     1     -34.429  27.823   3.848  0.00  0.00    -0.253 OA
ATOM     18  C   UNL     1     -33.618  27.003   4.259  0.00  0.00    +0.293 C 
BRANCH  18  19
ATOM     19  O   UNL     1     -32.422  26.782   3.650  0.00  0.00    -0.482 OA
ATOM     20  H   UNL     1     -32.361  26.166   2.948  0.00  0.00    +0.295 HD
ENDBRANCH  18  19
ENDBRANCH  12  18
ENDBRANCH   1  12
TORSDOF 7
ENDMDL
MODEL 7
REMARK VINA RESULT:      -5.1      1.558      5.364
REMARK  Name = 60055295
REMARK  7 active torsions:
REMARK  status: ('A' for Active; 'I' for Inactive)
REMARK    1  A    between atoms: C_1  and  C_2
REMARK    2  A    between atoms: C_1  and  CA_12
REMARK    3  A    between atoms: C_5  and  N_11
REMARK    4  A    between atoms: C_7  and  O_8
REMARK    5  A    between atoms: CA_12  and  N_13
REMARK    6  A    between atoms: CA_12  and  C_18
REMARK    7  A    between atoms: C_18  and  O_19
REMARK                            x       y       z     vdW  Elec       q    Type
REMARK                         _______ _______ _______ _____ _____    ______ ____
ROOT
ATOM      1  C   UNL     1     -36.123  23.826   4.157  0.00  0.00    +0.015 C 
ENDROOT
BRANCH   1   2
ATOM      2  C   UNL     1     -35.027  24.855   4.318  0.00  0.00    -0.022 C 
ATOM      3  C   UNL     1     -34.172  25.135   3.251  0.00  0.00    +0.020 C 
ATOM      4  C   UNL     1     -34.872  25.525   5.531  0.00  0.00    -0.001 C 
ATOM      5  C   UNL     1     -33.161  26.084   3.400  0.00  0.00    +0.144 C 
ATOM      6  C   UNL     1     -33.860  26.473   5.680  0.00  0.00    +0.038 C 
ATOM      7  C   UNL     1     -33.006  26.754   4.615  0.00  0.00    +0.153 C 
BRANCH   7   8
ATOM      8  O   UNL     1     -32.027  27.687   4.792  0.00  0.00    -0.504 OA
ATOM      9  H   UNL     1     -32.213  28.595   4.649  0.00  0.00    +0.292 HD
ENDBRANCH   7   8
BRANCH   5  11
ATOM     10  O   UNL     1     -31.169  25.942   2.503  0.00  0.00    -0.060 OA
ATOM     11  N   UNL     1     -32.328  26.348   2.338  0.00  0.00    -0.093 NA
ENDBRANCH   5  11
ENDBRANCH   1   2
BRANCH   1  12
ATOM     12  CA  UNL     1     -35.593  22.384   4.156  0.00  0.00    +0.040 C 
BRANCH  12  13
ATOM     13  N   UNL     1     -36.480  21.531   3.369  0.00  0.00    +0.389 N 
ATOM     14  H1  UNL     1     -37.302  21.291   3.924  0.00  0.00    -0.088 HD
ATOM     15  H2  UNL     1     -35.987  20.677   3.107  0.00  0.00    -0.088 HD
ATOM     16  H3  UNL     1     -36.771  22.027   2.526  0.00  0.00    -0.088 HD
ENDBRANCH  12  13
BRANCH  12  18
ATOM     17  OXT UNL     1     -35.989  22.333   6.559  0.00  0.00    -0.253 OA
ATOM     18  C   UNL     1     -35.549  21.791   5.553  0.00  0.00    +0.293 C 
BRANCH  18  19
ATOM     19  O   UNL     1     -34.987  20.553   5.572  0.00  0.00    -0.482 OA
ATOM     20  H   UNL     1     -34.075  20.455   5.761  0.00  0.00    +0.295 HD
ENDBRANCH  18  19
ENDBRANCH  12  18
ENDBRANCH   1  12
TORSDOF 7
ENDMDL
MODEL 8
REMARK VINA RESULT:      -5.1      1.775      2.051
REMARK  Name = 60055295
REMARK  7 active torsions:
REMARK  status: ('A' for Active; 'I' for Inactive)
REMARK    1  A    between atoms: C_1  and  C_2
REMARK    2  A    between atoms: C_1  and  CA_12
REMARK    3  A    between atoms: C_5  and  N_11
REMARK    4  A    between atoms: C_7  and  O_8
REMARK    5  A    between atoms: CA_12  and  N_13
REMARK    6  A    between atoms: CA_12  and  C_18
REMARK    7  A    between atoms: C_18  and  O_19
REMARK                            x       y       z     vdW  Elec       q    Type
REMARK                         _______ _______ _______ _____ _____    ______ ____
ROOT
ATOM      1  C   UNL     1     -35.093  25.681   5.671  0.00  0.00    +0.015 C 
ENDROOT
BRANCH   1   2
ATOM      2  C   UNL     1     -35.302  24.302   5.089  0.00  0.00    -0.022 C 
ATOM      3  C   UNL     1     -35.723  24.160   3.766  0.00  0.00    +0.020 C 
ATOM      4  C   UNL     1     -35.073  23.172   5.874  0.00  0.00    -0.001 C 
ATOM      5  C   UNL     1     -35.915  22.887   3.229  0.00  0.00    +0.144 C 
ATOM      6  C   UNL     1     -35.267  21.899   5.337  0.00  0.00    +0.038 C 
ATOM      7  C   UNL     1     -35.687  21.756   4.015  0.00  0.00    +0.153 C 
BRANCH   7   8
ATOM      8  O   UNL     1     -35.866  20.498   3.520  0.00  0.00    -0.504 OA
ATOM      9  H   UNL     1     -36.717  20.105   3.535  0.00  0.00    +0.292 HD
ENDBRANCH   7   8
BRANCH   5  11
ATOM     10  O   UNL     1     -37.446  22.243   1.803  0.00  0.00    -0.060 OA
ATOM     11  N   UNL     1     -36.329  22.766   1.923  0.00  0.00    -0.093 NA
ENDBRANCH   5  11
ENDBRANCH   1   2
BRANCH   1  12
ATOM     12  CA  UNL     1     -33.634  26.153   5.582  0.00  0.00    +0.040 C 
BRANCH  12  13
ATOM     13  N   UNL     1     -33.297  26.947   6.761  0.00  0.00    +0.389 N 
ATOM     14  H1  UNL     1     -33.905  27.765   6.805  0.00  0.00    -0.088 HD
ATOM     15  H2  UNL     1     -32.325  27.250   6.700  0.00  0.00    -0.088 HD
ATOM     16  H3  UNL     1     -33.425  26.382   7.600  0.00  0.00    -0.088 HD
ENDBRANCH  12  13
BRANCH  12  18
ATOM     17  OXT UNL     1     -32.328  27.149   3.783  0.00  0.00    -0.253 OA
ATOM     18  C   UNL     1     -33.395  27.044   4.376  0.00  0.00    +0.293 C 
BRANCH  18  19
ATOM     19  O   UNL     1     -34.519  27.705   3.990  0.00  0.00    -0.482 OA
ATOM     20  H   UNL     1     -34.568  28.086   3.136  0.00  0.00    +0.295 HD
ENDBRANCH  18  19
ENDBRANCH  12  18
ENDBRANCH   1  12
TORSDOF 7
ENDMDL
MODEL 9
REMARK VINA RESULT:      -5.0      2.030      5.632
REMARK  Name = 60055295
REMARK  7 active torsions:
REMARK  status: ('A' for Active; 'I' for Inactive)
REMARK    1  A    between atoms: C_1  and  C_2
REMARK    2  A    between atoms: C_1  and  CA_12
REMARK    3  A    between atoms: C_5  and  N_11
REMARK    4  A    between atoms: C_7  and  O_8
REMARK    5  A    between atoms: CA_12  and  N_13
REMARK    6  A    between atoms: CA_12  and  C_18
REMARK    7  A    between atoms: C_18  and  O_19
REMARK                            x       y       z     vdW  Elec       q    Type
REMARK                         _______ _______ _______ _____ _____    ______ ____
ROOT
ATOM      1  C   UNL     1     -35.464  21.405   3.829  0.00  0.00    +0.015 C 
ENDROOT
BRANCH   1   2
ATOM      2  C   UNL     1     -35.633  22.874   4.140  0.00  0.00    -0.022 C 
ATOM      3  C   UNL     1     -34.624  23.566   4.811  0.00  0.00    +0.020 C 
ATOM      4  C   UNL     1     -36.797  23.539   3.755  0.00  0.00    -0.001 C 
ATOM      5  C   UNL     1     -34.780  24.922   5.098  0.00  0.00    +0.144 C 
ATOM      6  C   UNL     1     -36.954  24.894   4.043  0.00  0.00    +0.038 C 
ATOM      7  C   UNL     1     -35.946  25.586   4.713  0.00  0.00    +0.153 C 
BRANCH   7   8
ATOM      8  O   UNL     1     -36.129  26.911   4.979  0.00  0.00    -0.504 OA
ATOM      9  H   UNL     1     -36.958  27.216   5.294  0.00  0.00    +0.292 HD
ENDBRANCH   7   8
BRANCH   5  11
ATOM     10  O   UNL     1     -33.215  26.452   5.070  0.00  0.00    -0.060 OA
ATOM     11  N   UNL     1     -33.775  25.588   5.759  0.00  0.00    -0.093 NA
ENDBRANCH   5  11
ENDBRANCH   1   2
BRANCH   1  12
ATOM     12  CA  UNL     1     -35.861  21.049   2.388  0.00  0.00    +0.040 C 
BRANCH  12  13
ATOM     13  N   UNL     1     -36.800  19.930   2.395  0.00  0.00    +0.389 N 
ATOM     14  H1  UNL     1     -37.327  19.923   1.522  0.00  0.00    -0.088 HD
ATOM     15  H2  UNL     1     -37.444  20.032   3.180  0.00  0.00    -0.088 HD
ATOM     16  H3  UNL     1     -36.285  19.054   2.490  0.00  0.00    -0.088 HD
ENDBRANCH  12  13
BRANCH  12  18
ATOM     17  OXT UNL     1     -34.031  21.335   0.806  0.00  0.00    -0.253 OA
ATOM     18  C   UNL     1     -34.667  20.608   1.559  0.00  0.00    +0.293 C 
BRANCH  18  19
ATOM     19  O   UNL     1     -34.347  19.303   1.766  0.00  0.00    -0.482 OA
ATOM     20  H   UNL     1     -34.186  18.739   1.037  0.00  0.00    +0.295 HD
ENDBRANCH  18  19
ENDBRANCH  12  18
ENDBRANCH   1  12
TORSDOF 7
ENDMDL
