MODEL 1
REMARK VINA RESULT:      -4.9      0.000      0.000
REMARK  Name = 5232981
REMARK  0 active torsions:
REMARK  status: ('A' for Active; 'I' for Inactive)
REMARK                            x       y       z     vdW  Elec       q    Type
REMARK                         _______ _______ _______ _____ _____    ______ ____
ROOT
ATOM      1  S   UNL     1     -36.300  16.304  -1.482  0.00  0.00    -0.105 S 
ATOM      2  S   UNL     1     -33.123  16.746  -0.228  0.00  0.00    -0.105 S 
ATOM      3  S   UNL     1     -36.966  18.774   0.004  0.00  0.00    -0.072 S 
ATOM      4  S   UNL     1     -34.238  19.154   1.079  0.00  0.00    -0.072 S 
ATOM      5  S   UNL     1     -35.184  21.743   2.572  0.00  0.00    -0.074 S 
ATOM      6  S   UNL     1     -37.914  21.363   1.496  0.00  0.00    -0.038 S 
ATOM      7  S   UNL     1     -34.438  24.176   4.469  0.00  0.00    -0.079 S 
ATOM      8  S   UNL     1     -37.255  25.132   4.289  0.00  0.00    -0.079 S 
ATOM      9  O   UNL     1     -38.655  23.527   2.769  0.00  0.00    -0.279 OA
ATOM     10  C   UNL     1     -34.974  15.085  -1.367  0.00  0.00    +0.075 C 
ATOM     11  C   UNL     1     -33.629  15.728  -1.628  0.00  0.00    +0.075 C 
ATOM     12  C   UNL     1     -35.754  17.583  -0.439  0.00  0.00    +0.067 C 
ATOM     13  C   UNL     1     -34.507  17.762   0.042  0.00  0.00    +0.067 C 
ATOM     14  C   UNL     1     -35.873  19.705   0.969  0.00  0.00    +0.072 C 
ATOM     15  C   UNL     1     -36.279  20.810   1.607  0.00  0.00    +0.074 A 
ATOM     16  C   UNL     1     -36.347  22.928   3.042  0.00  0.00    +0.087 A 
ATOM     17  C   UNL     1     -37.727  22.771   2.522  0.00  0.00    +0.233 A 
ATOM     18  C   UNL     1     -36.048  23.959   3.840  0.00  0.00    +0.068 C 
ATOM     19  C   UNL     1     -34.875  25.612   5.330  0.00  0.00    +0.043 C 
ATOM     20  C   UNL     1     -36.139  26.041   5.249  0.00  0.00    +0.043 C 
ENDROOT
TORSDOF 0
ENDMDL
MODEL 2
REMARK VINA RESULT:      -4.8      6.389      8.018
REMARK  Name = 5232981
REMARK  0 active torsions:
REMARK  status: ('A' for Active; 'I' for Inactive)
REMARK                            x       y       z     vdW  Elec       q    Type
REMARK                         _______ _______ _______ _____ _____    ______ ____
ROOT
ATOM      1  S   UNL     1     -39.676  23.899   2.540  0.00  0.00    -0.105 S 
ATOM      2  S   UNL     1     -38.940  26.115   0.009  0.00  0.00    -0.105 S 
ATOM      3  S   UNL     1     -37.246  24.965   3.849  0.00  0.00    -0.072 S 
ATOM      4  S   UNL     1     -36.615  26.869   1.677  0.00  0.00    -0.072 S 
ATOM      5  S   UNL     1     -34.083  27.831   3.253  0.00  0.00    -0.074 S 
ATOM      6  S   UNL     1     -34.714  25.927   5.427  0.00  0.00    -0.038 S 
ATOM      7  S   UNL     1     -31.549  29.742   3.361  0.00  0.00    -0.079 S 
ATOM      8  S   UNL     1     -30.832  28.579   6.010  0.00  0.00    -0.079 S 
ATOM      9  O   UNL     1     -32.583  26.760   6.699  0.00  0.00    -0.279 OA
ATOM     10  C   UNL     1     -40.288  23.885   0.842  0.00  0.00    +0.075 C 
ATOM     11  C   UNL     1     -40.512  25.296   0.341  0.00  0.00    +0.075 C 
ATOM     12  C   UNL     1     -38.331  24.997   2.467  0.00  0.00    +0.067 C 
ATOM     13  C   UNL     1     -38.050  25.873   1.482  0.00  0.00    +0.067 C 
ATOM     14  C   UNL     1     -36.206  26.192   3.214  0.00  0.00    +0.072 C 
ATOM     15  C   UNL     1     -35.124  26.602   3.888  0.00  0.00    +0.074 A 
ATOM     16  C   UNL     1     -32.986  27.823   4.585  0.00  0.00    +0.087 A 
ATOM     17  C   UNL     1     -33.269  26.881   5.695  0.00  0.00    +0.233 A 
ATOM     18  C   UNL     1     -31.915  28.621   4.645  0.00  0.00    +0.068 C 
ATOM     19  C   UNL     1     -30.131  30.328   4.159  0.00  0.00    +0.043 C 
ATOM     20  C   UNL     1     -29.809  29.807   5.347  0.00  0.00    +0.043 C 
ENDROOT
TORSDOF 0
ENDMDL
MODEL 3
REMARK VINA RESULT:      -4.7      6.854     10.084
REMARK  Name = 5232981
REMARK  0 active torsions:
REMARK  status: ('A' for Active; 'I' for Inactive)
REMARK                            x       y       z     vdW  Elec       q    Type
REMARK                         _______ _______ _______ _____ _____    ______ ____
ROOT
ATOM      1  S   UNL     1     -36.680  26.425   2.274  0.00  0.00    -0.105 S 
ATOM      2  S   UNL     1     -35.896  24.778   5.196  0.00  0.00    -0.105 S 
ATOM      3  S   UNL     1     -34.284  28.066   2.843  0.00  0.00    -0.072 S 
ATOM      4  S   UNL     1     -33.611  26.651   5.351  0.00  0.00    -0.072 S 
ATOM      5  S   UNL     1     -31.128  28.523   5.743  0.00  0.00    -0.074 S 
ATOM      6  S   UNL     1     -31.801  29.939   3.233  0.00  0.00    -0.038 S 
ATOM      7  S   UNL     1     -28.617  29.322   7.514  0.00  0.00    -0.079 S 
ATOM      8  S   UNL     1     -27.965  31.471   5.554  0.00  0.00    -0.079 S 
ATOM      9  O   UNL     1     -29.720  31.481   3.612  0.00  0.00    -0.279 OA
ATOM     10  C   UNL     1     -37.751  25.372   3.275  0.00  0.00    +0.075 C 
ATOM     11  C   UNL     1     -36.971  24.215   3.861  0.00  0.00    +0.075 C 
ATOM     12  C   UNL     1     -35.344  26.754   3.336  0.00  0.00    +0.067 C 
ATOM     13  C   UNL     1     -35.030  26.101   4.473  0.00  0.00    +0.067 C 
ATOM     14  C   UNL     1     -33.237  27.895   4.209  0.00  0.00    +0.072 C 
ATOM     15  C   UNL     1     -32.177  28.696   4.376  0.00  0.00    +0.074 A 
ATOM     16  C   UNL     1     -30.069  29.813   5.302  0.00  0.00    +0.087 A 
ATOM     17  C   UNL     1     -30.374  30.546   4.050  0.00  0.00    +0.233 A 
ATOM     18  C   UNL     1     -29.008  30.161   6.037  0.00  0.00    +0.068 C 
ATOM     19  C   UNL     1     -27.230  30.313   7.811  0.00  0.00    +0.043 C 
ATOM     20  C   UNL     1     -26.938  31.277   6.933  0.00  0.00    +0.043 C 
ENDROOT
TORSDOF 0
ENDMDL
MODEL 4
REMARK VINA RESULT:      -4.7      4.545      6.462
REMARK  Name = 5232981
REMARK  0 active torsions:
REMARK  status: ('A' for Active; 'I' for Inactive)
REMARK                            x       y       z     vdW  Elec       q    Type
REMARK                         _______ _______ _______ _____ _____    ______ ____
ROOT
ATOM      1  S   UNL     1     -38.593  21.747   1.876  0.00  0.00    -0.105 S 
ATOM      2  S   UNL     1     -37.586  23.595  -0.850  0.00  0.00    -0.105 S 
ATOM      3  S   UNL     1     -36.762  23.484   3.421  0.00  0.00    -0.072 S 
ATOM      4  S   UNL     1     -35.899  25.071   1.080  0.00  0.00    -0.072 S 
ATOM      5  S   UNL     1     -34.022  26.775   2.924  0.00  0.00    -0.074 S 
ATOM      6  S   UNL     1     -34.886  25.187   5.267  0.00  0.00    -0.038 S 
ATOM      7  S   UNL     1     -31.918  29.139   3.167  0.00  0.00    -0.079 S 
ATOM      8  S   UNL     1     -31.725  28.617   6.095  0.00  0.00    -0.079 S 
ATOM      9  O   UNL     1     -33.296  26.633   6.761  0.00  0.00    -0.279 OA
ATOM     10  C   UNL     1     -38.747  21.320   0.129  0.00  0.00    +0.075 C 
ATOM     11  C   UNL     1     -39.048  22.550  -0.700  0.00  0.00    +0.075 C 
ATOM     12  C   UNL     1     -37.455  23.061   1.863  0.00  0.00    +0.067 C 
ATOM     13  C   UNL     1     -37.070  23.792   0.798  0.00  0.00    +0.067 C 
ATOM     14  C   UNL     1     -35.793  24.765   2.779  0.00  0.00    +0.072 C 
ATOM     15  C   UNL     1     -34.991  25.491   3.568  0.00  0.00    +0.074 A 
ATOM     16  C   UNL     1     -33.309  27.214   4.432  0.00  0.00    +0.087 A 
ATOM     17  C   UNL     1     -33.717  26.441   5.630  0.00  0.00    +0.233 A 
ATOM     18  C   UNL     1     -32.421  28.207   4.551  0.00  0.00    +0.068 C 
ATOM     19  C   UNL     1     -30.853  30.125   4.109  0.00  0.00    +0.043 C 
ATOM     20  C   UNL     1     -30.766  29.890   5.422  0.00  0.00    +0.043 C 
ENDROOT
TORSDOF 0
ENDMDL
MODEL 5
REMARK VINA RESULT:      -4.7      2.503      3.929
REMARK  Name = 5232981
REMARK  0 active torsions:
REMARK  status: ('A' for Active; 'I' for Inactive)
REMARK                            x       y       z     vdW  Elec       q    Type
REMARK                         _______ _______ _______ _____ _____    ______ ____
ROOT
ATOM      1  S   UNL     1     -32.984  18.178   1.149  0.00  0.00    -0.105 S 
ATOM      2  S   UNL     1     -35.217  17.671  -1.425  0.00  0.00    -0.105 S 
ATOM      3  S   UNL     1     -34.816  20.347   1.984  0.00  0.00    -0.072 S 
ATOM      4  S   UNL     1     -36.733  19.910  -0.225  0.00  0.00    -0.072 S 
ATOM      5  S   UNL     1     -38.509  22.259   0.850  0.00  0.00    -0.074 S 
ATOM      6  S   UNL     1     -36.592  22.695   3.061  0.00  0.00    -0.038 S 
ATOM      7  S   UNL     1     -41.125  24.024   0.507  0.00  0.00    -0.079 S 
ATOM      8  S   UNL     1     -40.357  25.569   2.938  0.00  0.00    -0.079 S 
ATOM      9  O   UNL     1     -38.107  24.653   3.911  0.00  0.00    -0.279 OA
ATOM     10  C   UNL     1     -32.710  17.288  -0.397  0.00  0.00    +0.075 C 
ATOM     11  C   UNL     1     -33.956  16.536  -0.812  0.00  0.00    +0.075 C 
ATOM     12  C   UNL     1     -34.448  19.065   0.841  0.00  0.00    +0.067 C 
ATOM     13  C   UNL     1     -35.328  18.858  -0.159  0.00  0.00    +0.067 C 
ATOM     14  C   UNL     1     -36.283  20.801   1.188  0.00  0.00    +0.072 C 
ATOM     15  C   UNL     1     -37.041  21.805   1.647  0.00  0.00    +0.074 A 
ATOM     16  C   UNL     1     -38.902  23.536   1.942  0.00  0.00    +0.087 A 
ATOM     17  C   UNL     1     -37.964  23.785   3.063  0.00  0.00    +0.233 A 
ATOM     18  C   UNL     1     -40.000  24.288   1.811  0.00  0.00    +0.068 C 
ATOM     19  C   UNL     1     -42.162  25.308   1.027  0.00  0.00    +0.043 C 
ATOM     20  C   UNL     1     -41.818  26.001   2.117  0.00  0.00    +0.043 C 
ENDROOT
TORSDOF 0
ENDMDL
MODEL 6
REMARK VINA RESULT:      -4.6      5.849     11.282
REMARK  Name = 5232981
REMARK  0 active torsions:
REMARK  status: ('A' for Active; 'I' for Inactive)
REMARK                            x       y       z     vdW  Elec       q    Type
REMARK                         _______ _______ _______ _____ _____    ______ ____
ROOT
ATOM      1  S   UNL     1     -32.246  33.569   2.639  0.00  0.00    -0.105 S 
ATOM      2  S   UNL     1     -35.289  33.480   1.027  0.00  0.00    -0.105 S 
ATOM      3  S   UNL     1     -32.729  30.701   3.186  0.00  0.00    -0.072 S 
ATOM      4  S   UNL     1     -35.340  30.625   1.801  0.00  0.00    -0.072 S 
ATOM      5  S   UNL     1     -35.630  27.586   2.510  0.00  0.00    -0.074 S 
ATOM      6  S   UNL     1     -33.017  27.662   3.896  0.00  0.00    -0.038 S 
ATOM      7  S   UNL     1     -37.373  24.939   2.329  0.00  0.00    -0.079 S 
ATOM      8  S   UNL     1     -35.273  23.495   3.876  0.00  0.00    -0.079 S 
ATOM      9  O   UNL     1     -33.313  25.124   4.468  0.00  0.00    -0.279 OA
ATOM     10  C   UNL     1     -33.306  34.961   2.193  0.00  0.00    +0.075 C 
ATOM     11  C   UNL     1     -33.984  34.715   0.863  0.00  0.00    +0.075 C 
ATOM     12  C   UNL     1     -33.300  32.198   2.464  0.00  0.00    +0.067 C 
ATOM     13  C   UNL     1     -34.485  32.160   1.823  0.00  0.00    +0.067 C 
ATOM     14  C   UNL     1     -34.117  29.793   2.697  0.00  0.00    +0.072 C 
ATOM     15  C   UNL     1     -34.241  28.495   3.001  0.00  0.00    +0.074 A 
ATOM     16  C   UNL     1     -35.113  26.099   3.216  0.00  0.00    +0.087 A 
ATOM     17  C   UNL     1     -33.807  26.097   3.919  0.00  0.00    +0.233 A 
ATOM     18  C   UNL     1     -35.835  24.976   3.148  0.00  0.00    +0.068 C 
ATOM     19  C   UNL     1     -37.617  23.262   2.681  0.00  0.00    +0.043 C 
ATOM     20  C   UNL     1     -36.676  22.615   3.375  0.00  0.00    +0.043 C 
ENDROOT
TORSDOF 0
ENDMDL
MODEL 7
REMARK VINA RESULT:      -4.6      2.179      3.015
REMARK  Name = 5232981
REMARK  0 active torsions:
REMARK  status: ('A' for Active; 'I' for Inactive)
REMARK                            x       y       z     vdW  Elec       q    Type
REMARK                         _______ _______ _______ _____ _____    ______ ____
ROOT
ATOM      1  S   UNL     1     -32.719  15.494  -1.140  0.00  0.00    -0.105 S 
ATOM      2  S   UNL     1     -30.793  17.606   0.781  0.00  0.00    -0.105 S 
ATOM      3  S   UNL     1     -34.936  17.354  -0.524  0.00  0.00    -0.072 S 
ATOM      4  S   UNL     1     -33.282  19.168   1.124  0.00  0.00    -0.072 S 
ATOM      5  S   UNL     1     -35.784  20.983   1.643  0.00  0.00    -0.074 S 
ATOM      6  S   UNL     1     -37.440  19.169  -0.007  0.00  0.00    -0.038 S 
ATOM      7  S   UNL     1     -36.983  23.573   3.032  0.00  0.00    -0.079 S 
ATOM      8  S   UNL     1     -39.650  22.913   1.876  0.00  0.00    -0.079 S 
ATOM      9  O   UNL     1     -39.499  20.715   0.464  0.00  0.00    -0.279 OA
ATOM     10  C   UNL     1     -31.117  15.152  -0.383  0.00  0.00    +0.075 C 
ATOM     11  C   UNL     1     -30.233  16.380  -0.418  0.00  0.00    +0.075 C 
ATOM     12  C   UNL     1     -33.241  16.938  -0.325  0.00  0.00    +0.067 C 
ATOM     13  C   UNL     1     -32.484  17.771   0.417  0.00  0.00    +0.067 C 
ATOM     14  C   UNL     1     -34.826  18.780   0.449  0.00  0.00    +0.072 C 
ATOM     15  C   UNL     1     -35.895  19.555   0.670  0.00  0.00    +0.074 A 
ATOM     16  C   UNL     1     -37.445  21.421   1.484  0.00  0.00    +0.087 A 
ATOM     17  C   UNL     1     -38.307  20.536   0.665  0.00  0.00    +0.233 A 
ATOM     18  C   UNL     1     -37.965  22.509   2.063  0.00  0.00    +0.068 C 
ATOM     19  C   UNL     1     -38.312  24.628   3.374  0.00  0.00    +0.043 C 
ATOM     20  C   UNL     1     -39.507  24.332   2.856  0.00  0.00    +0.043 C 
ENDROOT
TORSDOF 0
ENDMDL
MODEL 8
REMARK VINA RESULT:      -4.5      5.106      7.983
REMARK  Name = 5232981
REMARK  0 active torsions:
REMARK  status: ('A' for Active; 'I' for Inactive)
REMARK                            x       y       z     vdW  Elec       q    Type
REMARK                         _______ _______ _______ _____ _____    ______ ____
ROOT
ATOM      1  S   UNL     1     -38.667  24.640   1.504  0.00  0.00    -0.105 S 
ATOM      2  S   UNL     1     -36.512  22.667   3.328  0.00  0.00    -0.105 S 
ATOM      3  S   UNL     1     -36.742  26.820   2.050  0.00  0.00    -0.072 S 
ATOM      4  S   UNL     1     -34.891  25.125   3.614  0.00  0.00    -0.072 S 
ATOM      5  S   UNL     1     -33.010  27.591   4.065  0.00  0.00    -0.074 S 
ATOM      6  S   UNL     1     -34.861  29.287   2.499  0.00  0.00    -0.038 S 
ATOM      7  S   UNL     1     -30.342  28.736   5.349  0.00  0.00    -0.079 S 
ATOM      8  S   UNL     1     -31.001  31.420   4.231  0.00  0.00    -0.079 S 
ATOM      9  O   UNL     1     -33.259  31.316   2.912  0.00  0.00    -0.279 OA
ATOM     10  C   UNL     1     -39.007  23.041   2.268  0.00  0.00    +0.075 C 
ATOM     11  C   UNL     1     -37.797  22.135   2.179  0.00  0.00    +0.075 C 
ATOM     12  C   UNL     1     -37.180  25.132   2.259  0.00  0.00    +0.067 C 
ATOM     13  C   UNL     1     -36.331  24.356   2.963  0.00  0.00    +0.067 C 
ATOM     14  C   UNL     1     -35.278  26.679   2.961  0.00  0.00    +0.072 C 
ATOM     15  C   UNL     1     -34.476  27.733   3.154  0.00  0.00    +0.074 A 
ATOM     16  C   UNL     1     -32.548  29.244   3.894  0.00  0.00    +0.087 A 
ATOM     17  C   UNL     1     -33.451  30.126   3.115  0.00  0.00    +0.233 A 
ATOM     18  C   UNL     1     -31.428  29.742   4.428  0.00  0.00    +0.068 C 
ATOM     19  C   UNL     1     -29.249  30.044   5.651  0.00  0.00    +0.043 C 
ATOM     20  C   UNL     1     -29.545  31.247   5.150  0.00  0.00    +0.043 C 
ENDROOT
TORSDOF 0
ENDMDL
MODEL 9
REMARK VINA RESULT:      -4.5      5.505      9.806
REMARK  Name = 5232981
REMARK  0 active torsions:
REMARK  status: ('A' for Active; 'I' for Inactive)
REMARK                            x       y       z     vdW  Elec       q    Type
REMARK                         _______ _______ _______ _____ _____    ______ ____
ROOT
ATOM      1  S   UNL     1     -31.148  29.462   5.142  0.00  0.00    -0.105 S 
ATOM      2  S   UNL     1     -32.886  31.335   2.832  0.00  0.00    -0.105 S 
ATOM      3  S   UNL     1     -33.157  27.362   4.587  0.00  0.00    -0.072 S 
ATOM      4  S   UNL     1     -34.648  28.970   2.603  0.00  0.00    -0.072 S 
ATOM      5  S   UNL     1     -36.658  26.601   2.191  0.00  0.00    -0.074 S 
ATOM      6  S   UNL     1     -35.166  24.992   4.175  0.00  0.00    -0.038 S 
ATOM      7  S   UNL     1     -39.236  25.491   0.707  0.00  0.00    -0.079 S 
ATOM      8  S   UNL     1     -38.955  22.933   2.211  0.00  0.00    -0.079 S 
ATOM      9  O   UNL     1     -36.878  23.047   3.800  0.00  0.00    -0.279 OA
ATOM     10  C   UNL     1     -31.097  31.251   4.900  0.00  0.00    +0.075 C 
ATOM     11  C   UNL     1     -31.204  31.597   3.431  0.00  0.00    +0.075 C 
ATOM     12  C   UNL     1     -32.567  28.984   4.259  0.00  0.00    +0.067 C 
ATOM     13  C   UNL     1     -33.240  29.713   3.346  0.00  0.00    +0.067 C 
ATOM     14  C   UNL     1     -34.478  27.488   3.477  0.00  0.00    +0.072 C 
ATOM     15  C   UNL     1     -35.337  26.475   3.302  0.00  0.00    +0.074 A 
ATOM     16  C   UNL     1     -37.278  25.019   2.492  0.00  0.00    +0.087 A 
ATOM     17  C   UNL     1     -36.557  24.182   3.481  0.00  0.00    +0.233 A 
ATOM     18  C   UNL     1     -38.362  24.537   1.875  0.00  0.00    +0.068 C 
ATOM     19  C   UNL     1     -40.394  24.237   0.421  0.00  0.00    +0.043 C 
ATOM     20  C   UNL     1     -40.268  23.090   1.096  0.00  0.00    +0.043 C 
ENDROOT
TORSDOF 0
ENDMDL
