MODEL 1
REMARK VINA RESULT:      -5.9      0.000      0.000
REMARK  Name = 5283084
REMARK  15 active torsions:
REMARK  status: ('A' for Active; 'I' for Inactive)
REMARK    1  A    between atoms: C_1  and  C_20
REMARK    2  A    between atoms: C_2  and  C_10
REMARK    3  A    between atoms: C_3  and  O_6
REMARK    4  A    between atoms: C_4  and  O_8
REMARK    5  A    between atoms: C_11  and  C_12
REMARK    6  A    between atoms: C_12  and  O_13
REMARK    7  A    between atoms: C_12  and  C_15
REMARK    8  A    between atoms: C_15  and  C_16
REMARK    9  A    between atoms: C_16  and  C_17
REMARK   10  A    between atoms: C_17  and  C_18
REMARK   11  A    between atoms: C_20  and  C_22
REMARK   12  A    between atoms: C_22  and  C_23
REMARK   13  A    between atoms: C_23  and  C_24
REMARK   14  A    between atoms: C_24  and  C_26
REMARK   15  A    between atoms: C_26  and  O_27
REMARK                            x       y       z     vdW  Elec       q    Type
REMARK                         _______ _______ _______ _____ _____    ______ ____
ROOT
ATOM      1  C   UNL     1     -37.619  24.593   3.502  0.00  0.00    +0.041 C 
ATOM      2  C   UNL     1     -38.043  23.699   2.321  0.00  0.00    +0.051 C 
ATOM      3  C   UNL     1     -38.629  25.741   3.426  0.00  0.00    +0.114 C 
ATOM      4  C   UNL     1     -39.581  23.769   2.347  0.00  0.00    +0.117 C 
ATOM      5  C   UNL     1     -39.952  25.032   3.139  0.00  0.00    +0.059 C 
ENDROOT
BRANCH   3   6
ATOM      6  O   UNL     1     -38.330  26.665   2.387  0.00  0.00    -0.384 OA
ATOM      7  H   UNL     1     -39.085  26.723   1.779  0.00  0.00    +0.210 HD
ENDBRANCH   3   6
BRANCH   4   8
ATOM      8  O   UNL     1     -40.091  23.869   1.023  0.00  0.00    -0.384 OA
ATOM      9  H   UNL     1     -41.059  23.808   1.044  0.00  0.00    +0.210 HD
ENDBRANCH   4   8
BRANCH   2  10
ATOM     10  C   UNL     1     -37.536  22.299   2.417  0.00  0.00    -0.026 C 
ATOM     11  C   UNL     1     -36.427  21.863   1.803  0.00  0.00    -0.002 C 
BRANCH  11  12
ATOM     12  C   UNL     1     -35.922  20.450   1.901  0.00  0.00    +0.132 C 
BRANCH  12  13
ATOM     13  O   UNL     1     -36.748  19.741   2.827  0.00  0.00    -0.380 OA
ATOM     14  H   UNL     1     -36.799  18.808   2.565  0.00  0.00    +0.211 HD
ENDBRANCH  12  13
BRANCH  12  15
ATOM     15  C   UNL     1     -35.983  19.701   0.563  0.00  0.00    +0.034 C 
BRANCH  15  16
ATOM     16  C   UNL     1     -34.702  19.838  -0.265  0.00  0.00    +0.003 C 
BRANCH  16  17
ATOM     17  C   UNL     1     -33.536  20.454   0.516  0.00  0.00    +0.000 C 
BRANCH  17  18
ATOM     18  C   UNL     1     -32.348  19.507   0.684  0.00  0.00    +0.000 C 
ATOM     19  C   UNL     1     -32.765  18.210   1.362  0.00  0.00    +0.000 C 
ENDBRANCH  17  18
ENDBRANCH  16  17
ENDBRANCH  15  16
ENDBRANCH  12  15
ENDBRANCH  11  12
ENDBRANCH   2  10
BRANCH   1  20
ATOM     20  C   UNL     1     -36.167  25.053   3.422  0.00  0.00    +0.067 C 
BRANCH  20  22
ATOM     21  O   UNL     1     -35.924  26.514   5.293  0.00  0.00    -0.296 OA
ATOM     22  C   UNL     1     -35.650  25.422   4.794  0.00  0.00    +0.151 C 
BRANCH  22  23
ATOM     23  C   UNL     1     -34.813  24.373   5.512  0.00  0.00    +0.076 C 
BRANCH  23  24
ATOM     24  C   UNL     1     -34.831  23.011   4.823  0.00  0.00    +0.117 C 
BRANCH  24  26
ATOM     25  O   UNL     1     -36.077  22.106   6.712  0.00  0.00    -0.250 OA
ATOM     26  C   UNL     1     -35.419  21.924   5.698  0.00  0.00    +0.314 C 
BRANCH  26  27
ATOM     27  O   UNL     1     -35.121  20.688   5.219  0.00  0.00    -0.480 OA
ATOM     28  H   UNL     1     -35.008  19.970   5.812  0.00  0.00    +0.295 HD
ENDBRANCH  26  27
ENDBRANCH  24  26
ENDBRANCH  23  24
ENDBRANCH  22  23
ENDBRANCH  20  22
ENDBRANCH   1  20
TORSDOF 15
ENDMDL
MODEL 2
REMARK VINA RESULT:      -5.8      1.466      3.880
REMARK  Name = 5283084
REMARK  15 active torsions:
REMARK  status: ('A' for Active; 'I' for Inactive)
REMARK    1  A    between atoms: C_1  and  C_20
REMARK    2  A    between atoms: C_2  and  C_10
REMARK    3  A    between atoms: C_3  and  O_6
REMARK    4  A    between atoms: C_4  and  O_8
REMARK    5  A    between atoms: C_11  and  C_12
REMARK    6  A    between atoms: C_12  and  O_13
REMARK    7  A    between atoms: C_12  and  C_15
REMARK    8  A    between atoms: C_15  and  C_16
REMARK    9  A    between atoms: C_16  and  C_17
REMARK   10  A    between atoms: C_17  and  C_18
REMARK   11  A    between atoms: C_20  and  C_22
REMARK   12  A    between atoms: C_22  and  C_23
REMARK   13  A    between atoms: C_23  and  C_24
REMARK   14  A    between atoms: C_24  and  C_26
REMARK   15  A    between atoms: C_26  and  O_27
REMARK                            x       y       z     vdW  Elec       q    Type
REMARK                         _______ _______ _______ _____ _____    ______ ____
ROOT
ATOM      1  C   UNL     1     -35.832  25.015   3.400  0.00  0.00    +0.041 C 
ATOM      2  C   UNL     1     -36.173  23.648   4.019  0.00  0.00    +0.051 C 
ATOM      3  C   UNL     1     -35.516  25.867   4.633  0.00  0.00    +0.114 C 
ATOM      4  C   UNL     1     -35.167  23.512   5.178  0.00  0.00    +0.117 C 
ATOM      5  C   UNL     1     -34.678  24.932   5.505  0.00  0.00    +0.059 C 
ENDROOT
BRANCH   3   6
ATOM      6  O   UNL     1     -36.686  26.273   5.331  0.00  0.00    -0.384 OA
ATOM      7  H   UNL     1     -36.441  26.879   6.049  0.00  0.00    +0.210 HD
ENDBRANCH   3   6
BRANCH   4   8
ATOM      8  O   UNL     1     -35.806  22.953   6.320  0.00  0.00    -0.384 OA
ATOM      9  H   UNL     1     -35.795  23.598   7.045  0.00  0.00    +0.210 HD
ENDBRANCH   4   8
BRANCH   2  10
ATOM     10  C   UNL     1     -36.082  22.513   3.054  0.00  0.00    -0.026 C 
ATOM     11  C   UNL     1     -35.515  21.333   3.343  0.00  0.00    -0.002 C 
BRANCH  11  12
ATOM     12  C   UNL     1     -35.424  20.193   2.367  0.00  0.00    +0.132 C 
BRANCH  12  13
ATOM     13  O   UNL     1     -36.719  19.601   2.243  0.00  0.00    -0.380 OA
ATOM     14  H   UNL     1     -36.670  18.663   2.486  0.00  0.00    +0.211 HD
ENDBRANCH  12  13
BRANCH  12  15
ATOM     15  C   UNL     1     -34.989  20.641   0.965  0.00  0.00    +0.034 C 
BRANCH  15  16
ATOM     16  C   UNL     1     -33.632  20.070   0.543  0.00  0.00    +0.003 C 
BRANCH  16  17
ATOM     17  C   UNL     1     -33.175  18.887   1.402  0.00  0.00    +0.000 C 
BRANCH  17  18
ATOM     18  C   UNL     1     -31.860  18.264   0.932  0.00  0.00    +0.000 C 
ATOM     19  C   UNL     1     -31.013  19.269   0.166  0.00  0.00    +0.000 C 
ENDBRANCH  17  18
ENDBRANCH  16  17
ENDBRANCH  15  16
ENDBRANCH  12  15
ENDBRANCH  11  12
ENDBRANCH   2  10
BRANCH   1  20
ATOM     20  C   UNL     1     -36.953  25.586   2.537  0.00  0.00    +0.067 C 
BRANCH  20  22
ATOM     21  O   UNL     1     -38.746  24.796   3.899  0.00  0.00    -0.296 OA
ATOM     22  C   UNL     1     -38.242  24.834   2.776  0.00  0.00    +0.151 C 
BRANCH  22  23
ATOM     23  C   UNL     1     -38.878  24.167   1.564  0.00  0.00    +0.076 C 
BRANCH  23  24
ATOM     24  C   UNL     1     -39.962  23.157   1.932  0.00  0.00    +0.117 C 
BRANCH  24  26
ATOM     25  O   UNL     1     -38.642  21.356   0.956  0.00  0.00    -0.250 OA
ATOM     26  C   UNL     1     -39.518  21.725   1.725  0.00  0.00    +0.314 C 
BRANCH  26  27
ATOM     27  O   UNL     1     -40.227  20.869   2.506  0.00  0.00    -0.480 OA
ATOM     28  H   UNL     1     -41.154  20.791   2.395  0.00  0.00    +0.295 HD
ENDBRANCH  26  27
ENDBRANCH  24  26
ENDBRANCH  23  24
ENDBRANCH  22  23
ENDBRANCH  20  22
ENDBRANCH   1  20
TORSDOF 15
ENDMDL
MODEL 3
REMARK VINA RESULT:      -5.7      2.168      5.789
REMARK  Name = 5283084
REMARK  15 active torsions:
REMARK  status: ('A' for Active; 'I' for Inactive)
REMARK    1  A    between atoms: C_1  and  C_20
REMARK    2  A    between atoms: C_2  and  C_10
REMARK    3  A    between atoms: C_3  and  O_6
REMARK    4  A    between atoms: C_4  and  O_8
REMARK    5  A    between atoms: C_11  and  C_12
REMARK    6  A    between atoms: C_12  and  O_13
REMARK    7  A    between atoms: C_12  and  C_15
REMARK    8  A    between atoms: C_15  and  C_16
REMARK    9  A    between atoms: C_16  and  C_17
REMARK   10  A    between atoms: C_17  and  C_18
REMARK   11  A    between atoms: C_20  and  C_22
REMARK   12  A    between atoms: C_22  and  C_23
REMARK   13  A    between atoms: C_23  and  C_24
REMARK   14  A    between atoms: C_24  and  C_26
REMARK   15  A    between atoms: C_26  and  O_27
REMARK                            x       y       z     vdW  Elec       q    Type
REMARK                         _______ _______ _______ _____ _____    ______ ____
ROOT
ATOM      1  C   UNL     1     -36.504  21.483   1.288  0.00  0.00    +0.041 C 
ATOM      2  C   UNL     1     -37.558  21.745   2.380  0.00  0.00    +0.051 C 
ATOM      3  C   UNL     1     -37.181  20.413   0.426  0.00  0.00    +0.114 C 
ATOM      4  C   UNL     1     -38.895  21.679   1.618  0.00  0.00    +0.117 C 
ATOM      5  C   UNL     1     -38.624  20.903   0.319  0.00  0.00    +0.059 C 
ENDROOT
BRANCH   3   6
ATOM      6  O   UNL     1     -37.142  19.124   1.025  0.00  0.00    -0.384 OA
ATOM      7  H   UNL     1     -36.234  18.924   1.304  0.00  0.00    +0.210 HD
ENDBRANCH   3   6
BRANCH   4   8
ATOM      8  O   UNL     1     -39.868  20.988   2.393  0.00  0.00    -0.384 OA
ATOM      9  H   UNL     1     -39.827  21.296   3.311  0.00  0.00    +0.210 HD
ENDBRANCH   4   8
BRANCH   2  10
ATOM     10  C   UNL     1     -37.374  23.044   3.090  0.00  0.00    -0.026 C 
ATOM     11  C   UNL     1     -37.404  24.238   2.482  0.00  0.00    -0.002 C 
BRANCH  11  12
ATOM     12  C   UNL     1     -37.216  25.545   3.202  0.00  0.00    +0.132 C 
BRANCH  12  13
ATOM     13  O   UNL     1     -38.498  26.157   3.365  0.00  0.00    -0.380 OA
ATOM     14  H   UNL     1     -38.822  25.991   4.264  0.00  0.00    +0.211 HD
ENDBRANCH  12  13
BRANCH  12  15
ATOM     15  C   UNL     1     -36.608  25.373   4.600  0.00  0.00    +0.034 C 
BRANCH  15  16
ATOM     16  C   UNL     1     -35.076  25.397   4.599  0.00  0.00    +0.003 C 
BRANCH  16  17
ATOM     17  C   UNL     1     -34.447  24.083   5.070  0.00  0.00    +0.000 C 
BRANCH  17  18
ATOM     18  C   UNL     1     -35.371  23.248   5.957  0.00  0.00    +0.000 C 
ATOM     19  C   UNL     1     -35.115  21.758   5.776  0.00  0.00    +0.000 C 
ENDBRANCH  17  18
ENDBRANCH  16  17
ENDBRANCH  15  16
ENDBRANCH  12  15
ENDBRANCH  11  12
ENDBRANCH   2  10
BRANCH   1  20
ATOM     20  C   UNL     1     -35.151  21.052   1.843  0.00  0.00    +0.067 C 
BRANCH  20  22
ATOM     21  O   UNL     1     -33.973  22.396   0.262  0.00  0.00    -0.296 OA
ATOM     22  C   UNL     1     -34.056  21.308   0.834  0.00  0.00    +0.151 C 
BRANCH  22  23
ATOM     23  C   UNL     1     -33.069  20.174   0.595  0.00  0.00    +0.076 C 
BRANCH  23  24
ATOM     24  C   UNL     1     -33.353  18.939   1.446  0.00  0.00    +0.117 C 
BRANCH  24  26
ATOM     25  O   UNL     1     -34.627  17.490  -0.043  0.00  0.00    -0.250 OA
ATOM     26  C   UNL     1     -33.616  17.704   0.610  0.00  0.00    +0.314 C 
BRANCH  26  27
ATOM     27  O   UNL     1     -32.576  16.832   0.674  0.00  0.00    -0.480 OA
ATOM     28  H   UNL     1     -31.699  17.154   0.753  0.00  0.00    +0.295 HD
ENDBRANCH  26  27
ENDBRANCH  24  26
ENDBRANCH  23  24
ENDBRANCH  22  23
ENDBRANCH  20  22
ENDBRANCH   1  20
TORSDOF 15
ENDMDL
MODEL 4
REMARK VINA RESULT:      -5.7      2.928      4.461
REMARK  Name = 5283084
REMARK  15 active torsions:
REMARK  status: ('A' for Active; 'I' for Inactive)
REMARK    1  A    between atoms: C_1  and  C_20
REMARK    2  A    between atoms: C_2  and  C_10
REMARK    3  A    between atoms: C_3  and  O_6
REMARK    4  A    between atoms: C_4  and  O_8
REMARK    5  A    between atoms: C_11  and  C_12
REMARK    6  A    between atoms: C_12  and  O_13
REMARK    7  A    between atoms: C_12  and  C_15
REMARK    8  A    between atoms: C_15  and  C_16
REMARK    9  A    between atoms: C_16  and  C_17
REMARK   10  A    between atoms: C_17  and  C_18
REMARK   11  A    between atoms: C_20  and  C_22
REMARK   12  A    between atoms: C_22  and  C_23
REMARK   13  A    between atoms: C_23  and  C_24
REMARK   14  A    between atoms: C_24  and  C_26
REMARK   15  A    between atoms: C_26  and  O_27
REMARK                            x       y       z     vdW  Elec       q    Type
REMARK                         _______ _______ _______ _____ _____    ______ ____
ROOT
ATOM      1  C   UNL     1     -34.211  25.389   3.534  0.00  0.00    +0.041 C 
ATOM      2  C   UNL     1     -35.495  24.587   3.253  0.00  0.00    +0.051 C 
ATOM      3  C   UNL     1     -34.696  26.452   4.524  0.00  0.00    +0.114 C 
ATOM      4  C   UNL     1     -36.193  24.526   4.624  0.00  0.00    +0.117 C 
ATOM      5  C   UNL     1     -35.607  25.669   5.468  0.00  0.00    +0.059 C 
ENDROOT
BRANCH   3   6
ATOM      6  O   UNL     1     -35.425  27.497   3.892  0.00  0.00    -0.384 OA
ATOM      7  H   UNL     1     -35.256  27.476   2.936  0.00  0.00    +0.210 HD
ENDBRANCH   3   6
BRANCH   4   8
ATOM      8  O   UNL     1     -37.595  24.716   4.471  0.00  0.00    -0.384 OA
ATOM      9  H   UNL     1     -38.070  24.049   4.991  0.00  0.00    +0.210 HD
ENDBRANCH   4   8
BRANCH   2  10
ATOM     10  C   UNL     1     -35.242  23.231   2.684  0.00  0.00    -0.026 C 
ATOM     11  C   UNL     1     -35.687  22.095   3.240  0.00  0.00    -0.002 C 
BRANCH  11  12
ATOM     12  C   UNL     1     -35.428  20.730   2.665  0.00  0.00    +0.132 C 
BRANCH  12  13
ATOM     13  O   UNL     1     -36.613  19.946   2.816  0.00  0.00    -0.380 OA
ATOM     14  H   UNL     1     -37.165  20.039   2.024  0.00  0.00    +0.211 HD
ENDBRANCH  12  13
BRANCH  12  15
ATOM     15  C   UNL     1     -35.090  20.767   1.169  0.00  0.00    +0.034 C 
BRANCH  15  16
ATOM     16  C   UNL     1     -33.699  20.211   0.849  0.00  0.00    +0.003 C 
BRANCH  16  17
ATOM     17  C   UNL     1     -33.431  18.842   1.482  0.00  0.00    +0.000 C 
BRANCH  17  18
ATOM     18  C   UNL     1     -32.040  18.288   1.170  0.00  0.00    +0.000 C 
ATOM     19  C   UNL     1     -31.273  19.212   0.235  0.00  0.00    +0.000 C 
ENDBRANCH  17  18
ENDBRANCH  16  17
ENDBRANCH  15  16
ENDBRANCH  12  15
ENDBRANCH  11  12
ENDBRANCH   2  10
BRANCH   1  20
ATOM     20  C   UNL     1     -33.575  25.973   2.277  0.00  0.00    +0.067 C 
BRANCH  20  22
ATOM     21  O   UNL     1     -31.211  25.789   2.547  0.00  0.00    -0.296 OA
ATOM     22  C   UNL     1     -32.200  26.522   2.583  0.00  0.00    +0.151 C 
BRANCH  22  23
ATOM     23  C   UNL     1     -32.114  28.007   2.904  0.00  0.00    +0.076 C 
BRANCH  23  24
ATOM     24  C   UNL     1     -31.392  28.299   4.218  0.00  0.00    +0.117 C 
BRANCH  24  26
ATOM     25  O   UNL     1     -32.177  29.113   6.377  0.00  0.00    -0.250 OA
ATOM     26  C   UNL     1     -32.215  29.157   5.156  0.00  0.00    +0.314 C 
BRANCH  26  27
ATOM     27  O   UNL     1     -33.030  30.000   4.469  0.00  0.00    -0.480 OA
ATOM     28  H   UNL     1     -32.680  30.533   3.781  0.00  0.00    +0.295 HD
ENDBRANCH  26  27
ENDBRANCH  24  26
ENDBRANCH  23  24
ENDBRANCH  22  23
ENDBRANCH  20  22
ENDBRANCH   1  20
TORSDOF 15
ENDMDL
MODEL 5
REMARK VINA RESULT:      -5.6      1.778      4.765
REMARK  Name = 5283084
REMARK  15 active torsions:
REMARK  status: ('A' for Active; 'I' for Inactive)
REMARK    1  A    between atoms: C_1  and  C_20
REMARK    2  A    between atoms: C_2  and  C_10
REMARK    3  A    between atoms: C_3  and  O_6
REMARK    4  A    between atoms: C_4  and  O_8
REMARK    5  A    between atoms: C_11  and  C_12
REMARK    6  A    between atoms: C_12  and  O_13
REMARK    7  A    between atoms: C_12  and  C_15
REMARK    8  A    between atoms: C_15  and  C_16
REMARK    9  A    between atoms: C_16  and  C_17
REMARK   10  A    between atoms: C_17  and  C_18
REMARK   11  A    between atoms: C_20  and  C_22
REMARK   12  A    between atoms: C_22  and  C_23
REMARK   13  A    between atoms: C_23  and  C_24
REMARK   14  A    between atoms: C_24  and  C_26
REMARK   15  A    between atoms: C_26  and  O_27
REMARK                            x       y       z     vdW  Elec       q    Type
REMARK                         _______ _______ _______ _____ _____    ______ ____
ROOT
ATOM      1  C   UNL     1     -35.770  25.852   3.406  0.00  0.00    +0.041 C 
ATOM      2  C   UNL     1     -35.296  25.790   4.870  0.00  0.00    +0.051 C 
ATOM      3  C   UNL     1     -35.025  27.076   2.868  0.00  0.00    +0.114 C 
ATOM      4  C   UNL     1     -33.808  26.180   4.786  0.00  0.00    +0.117 C 
ATOM      5  C   UNL     1     -33.621  26.924   3.454  0.00  0.00    +0.059 C 
ENDROOT
BRANCH   3   6
ATOM      6  O   UNL     1     -35.606  28.302   3.296  0.00  0.00    -0.384 OA
ATOM      7  H   UNL     1     -34.927  28.995   3.309  0.00  0.00    +0.210 HD
ENDBRANCH   3   6
BRANCH   4   8
ATOM      8  O   UNL     1     -33.464  27.041   5.865  0.00  0.00    -0.384 OA
ATOM      9  H   UNL     1     -33.404  26.524   6.684  0.00  0.00    +0.210 HD
ENDBRANCH   4   8
BRANCH   2  10
ATOM     10  C   UNL     1     -35.497  24.458   5.510  0.00  0.00    -0.026 C 
ATOM     11  C   UNL     1     -34.803  23.359   5.180  0.00  0.00    -0.002 C 
BRANCH  11  12
ATOM     12  C   UNL     1     -35.011  22.018   5.827  0.00  0.00    +0.132 C 
BRANCH  12  13
ATOM     13  O   UNL     1     -36.252  22.048   6.536  0.00  0.00    -0.380 OA
ATOM     14  H   UNL     1     -36.218  22.739   7.215  0.00  0.00    +0.211 HD
ENDBRANCH  12  13
BRANCH  12  15
ATOM     15  C   UNL     1     -35.091  20.871   4.810  0.00  0.00    +0.034 C 
BRANCH  15  16
ATOM     16  C   UNL     1     -35.490  21.336   3.406  0.00  0.00    +0.003 C 
BRANCH  16  17
ATOM     17  C   UNL     1     -35.046  20.375   2.298  0.00  0.00    +0.000 C 
BRANCH  17  18
ATOM     18  C   UNL     1     -34.649  21.081   1.002  0.00  0.00    +0.000 C 
ATOM     19  C   UNL     1     -34.486  22.579   1.214  0.00  0.00    +0.000 C 
ENDBRANCH  17  18
ENDBRANCH  16  17
ENDBRANCH  15  16
ENDBRANCH  12  15
ENDBRANCH  11  12
ENDBRANCH   2  10
BRANCH   1  20
ATOM     20  C   UNL     1     -37.285  25.950   3.264  0.00  0.00    +0.067 C 
BRANCH  20  22
ATOM     21  O   UNL     1     -38.112  25.934   1.026  0.00  0.00    -0.296 OA
ATOM     22  C   UNL     1     -37.746  25.269   1.996  0.00  0.00    +0.151 C 
BRANCH  22  23
ATOM     23  C   UNL     1     -37.706  23.748   1.985  0.00  0.00    +0.076 C 
BRANCH  23  24
ATOM     24  C   UNL     1     -39.058  23.107   2.289  0.00  0.00    +0.117 C 
BRANCH  24  26
ATOM     25  O   UNL     1     -38.306  21.096   1.135  0.00  0.00    -0.250 OA
ATOM     26  C   UNL     1     -39.137  21.668   1.827  0.00  0.00    +0.314 C 
BRANCH  26  27
ATOM     27  O   UNL     1     -40.271  21.066   2.272  0.00  0.00    -0.480 OA
ATOM     28  H   UNL     1     -41.025  21.017   1.718  0.00  0.00    +0.295 HD
ENDBRANCH  26  27
ENDBRANCH  24  26
ENDBRANCH  23  24
ENDBRANCH  22  23
ENDBRANCH  20  22
ENDBRANCH   1  20
TORSDOF 15
ENDMDL
MODEL 6
REMARK VINA RESULT:      -5.6      2.362      5.334
REMARK  Name = 5283084
REMARK  15 active torsions:
REMARK  status: ('A' for Active; 'I' for Inactive)
REMARK    1  A    between atoms: C_1  and  C_20
REMARK    2  A    between atoms: C_2  and  C_10
REMARK    3  A    between atoms: C_3  and  O_6
REMARK    4  A    between atoms: C_4  and  O_8
REMARK    5  A    between atoms: C_11  and  C_12
REMARK    6  A    between atoms: C_12  and  O_13
REMARK    7  A    between atoms: C_12  and  C_15
REMARK    8  A    between atoms: C_15  and  C_16
REMARK    9  A    between atoms: C_16  and  C_17
REMARK   10  A    between atoms: C_17  and  C_18
REMARK   11  A    between atoms: C_20  and  C_22
REMARK   12  A    between atoms: C_22  and  C_23
REMARK   13  A    between atoms: C_23  and  C_24
REMARK   14  A    between atoms: C_24  and  C_26
REMARK   15  A    between atoms: C_26  and  O_27
REMARK                            x       y       z     vdW  Elec       q    Type
REMARK                         _______ _______ _______ _____ _____    ______ ____
ROOT
ATOM      1  C   UNL     1     -36.801  22.133   2.225  0.00  0.00    +0.041 C 
ATOM      2  C   UNL     1     -38.284  22.371   2.563  0.00  0.00    +0.051 C 
ATOM      3  C   UNL     1     -36.815  20.710   1.659  0.00  0.00    +0.114 C 
ATOM      4  C   UNL     1     -39.035  21.694   1.401  0.00  0.00    +0.117 C 
ATOM      5  C   UNL     1     -38.055  20.696   0.765  0.00  0.00    +0.059 C 
ENDROOT
BRANCH   3   6
ATOM      6  O   UNL     1     -36.929  19.719   2.673  0.00  0.00    -0.384 OA
ATOM      7  H   UNL     1     -37.790  19.277   2.599  0.00  0.00    +0.210 HD
ENDBRANCH   3   6
BRANCH   4   8
ATOM      8  O   UNL     1     -40.174  20.997   1.891  0.00  0.00    -0.384 OA
ATOM      9  H   UNL     1     -40.933  21.172   1.313  0.00  0.00    +0.210 HD
ENDBRANCH   4   8
BRANCH   2  10
ATOM     10  C   UNL     1     -38.643  23.812   2.707  0.00  0.00    -0.026 C 
ATOM     11  C   UNL     1     -39.846  24.316   2.397  0.00  0.00    -0.002 C 
BRANCH  11  12
ATOM     12  C   UNL     1     -40.202  25.769   2.542  0.00  0.00    +0.132 C 
BRANCH  12  13
ATOM     13  O   UNL     1     -39.204  26.399   3.348  0.00  0.00    -0.380 OA
ATOM     14  H   UNL     1     -38.860  27.179   2.885  0.00  0.00    +0.211 HD
ENDBRANCH  12  13
BRANCH  12  15
ATOM     15  C   UNL     1     -40.242  26.510   1.198  0.00  0.00    +0.034 C 
BRANCH  15  16
ATOM     16  C   UNL     1     -38.860  26.964   0.718  0.00  0.00    +0.003 C 
BRANCH  16  17
ATOM     17  C   UNL     1     -38.391  26.247  -0.552  0.00  0.00    +0.000 C 
BRANCH  17  18
ATOM     18  C   UNL     1     -37.161  25.366  -0.336  0.00  0.00    +0.000 C 
ATOM     19  C   UNL     1     -37.347  23.991  -0.962  0.00  0.00    +0.000 C 
ENDBRANCH  17  18
ENDBRANCH  16  17
ENDBRANCH  15  16
ENDBRANCH  12  15
ENDBRANCH  11  12
ENDBRANCH   2  10
BRANCH   1  20
ATOM     20  C   UNL     1     -35.872  22.303   3.423  0.00  0.00    +0.067 C 
BRANCH  20  22
ATOM     21  O   UNL     1     -34.863  24.040   2.137  0.00  0.00    -0.296 OA
ATOM     22  C   UNL     1     -34.989  23.516   3.244  0.00  0.00    +0.151 C 
BRANCH  22  23
ATOM     23  C   UNL     1     -34.303  24.051   4.493  0.00  0.00    +0.076 C 
BRANCH  23  24
ATOM     24  C   UNL     1     -35.270  24.700   5.480  0.00  0.00    +0.117 C 
BRANCH  24  26
ATOM     25  O   UNL     1     -34.842  27.018   4.861  0.00  0.00    -0.250 OA
ATOM     26  C   UNL     1     -35.635  26.116   5.092  0.00  0.00    +0.314 C 
BRANCH  26  27
ATOM     27  O   UNL     1     -36.983  26.281   5.032  0.00  0.00    -0.480 OA
ATOM     28  H   UNL     1     -37.550  25.662   5.449  0.00  0.00    +0.295 HD
ENDBRANCH  26  27
ENDBRANCH  24  26
ENDBRANCH  23  24
ENDBRANCH  22  23
ENDBRANCH  20  22
ENDBRANCH   1  20
TORSDOF 15
ENDMDL
MODEL 7
REMARK VINA RESULT:      -5.6      2.274      6.777
REMARK  Name = 5283084
REMARK  15 active torsions:
REMARK  status: ('A' for Active; 'I' for Inactive)
REMARK    1  A    between atoms: C_1  and  C_20
REMARK    2  A    between atoms: C_2  and  C_10
REMARK    3  A    between atoms: C_3  and  O_6
REMARK    4  A    between atoms: C_4  and  O_8
REMARK    5  A    between atoms: C_11  and  C_12
REMARK    6  A    between atoms: C_12  and  O_13
REMARK    7  A    between atoms: C_12  and  C_15
REMARK    8  A    between atoms: C_15  and  C_16
REMARK    9  A    between atoms: C_16  and  C_17
REMARK   10  A    between atoms: C_17  and  C_18
REMARK   11  A    between atoms: C_20  and  C_22
REMARK   12  A    between atoms: C_22  and  C_23
REMARK   13  A    between atoms: C_23  and  C_24
REMARK   14  A    between atoms: C_24  and  C_26
REMARK   15  A    between atoms: C_26  and  O_27
REMARK                            x       y       z     vdW  Elec       q    Type
REMARK                         _______ _______ _______ _____ _____    ______ ____
ROOT
ATOM      1  C   UNL     1     -36.612  21.988   2.271  0.00  0.00    +0.041 C 
ATOM      2  C   UNL     1     -38.096  22.282   2.554  0.00  0.00    +0.051 C 
ATOM      3  C   UNL     1     -36.671  20.612   1.601  0.00  0.00    +0.114 C 
ATOM      4  C   UNL     1     -38.820  21.733   1.310  0.00  0.00    +0.117 C 
ATOM      5  C   UNL     1     -37.861  20.730   0.650  0.00  0.00    +0.059 C 
ENDROOT
BRANCH   3   6
ATOM      6  O   UNL     1     -36.888  19.559   2.532  0.00  0.00    -0.384 OA
ATOM      7  H   UNL     1     -37.826  19.312   2.528  0.00  0.00    +0.210 HD
ENDBRANCH   3   6
BRANCH   4   8
ATOM      8  O   UNL     1     -40.018  21.067   1.692  0.00  0.00    -0.384 OA
ATOM      9  H   UNL     1     -39.982  20.857   2.638  0.00  0.00    +0.210 HD
ENDBRANCH   4   8
BRANCH   2  10
ATOM     10  C   UNL     1     -38.387  23.727   2.787  0.00  0.00    -0.026 C 
ATOM     11  C   UNL     1     -39.625  24.232   2.889  0.00  0.00    -0.002 C 
BRANCH  11  12
ATOM     12  C   UNL     1     -39.913  25.689   3.122  0.00  0.00    +0.132 C 
BRANCH  12  13
ATOM     13  O   UNL     1     -38.671  26.366   3.328  0.00  0.00    -0.380 OA
ATOM     14  H   UNL     1     -38.215  25.978   4.092  0.00  0.00    +0.211 HD
ENDBRANCH  12  13
BRANCH  12  15
ATOM     15  C   UNL     1     -40.608  26.358   1.929  0.00  0.00    +0.034 C 
BRANCH  15  16
ATOM     16  C   UNL     1     -42.031  26.827   2.244  0.00  0.00    +0.003 C 
BRANCH  16  17
ATOM     17  C   UNL     1     -42.366  26.794   3.738  0.00  0.00    +0.000 C 
BRANCH  17  18
ATOM     18  C   UNL     1     -43.771  27.306   4.060  0.00  0.00    +0.000 C 
ATOM     19  C   UNL     1     -44.837  26.319   3.608  0.00  0.00    +0.000 C 
ENDBRANCH  17  18
ENDBRANCH  16  17
ENDBRANCH  15  16
ENDBRANCH  12  15
ENDBRANCH  11  12
ENDBRANCH   2  10
BRANCH   1  20
ATOM     20  C   UNL     1     -35.739  22.019   3.521  0.00  0.00    +0.067 C 
BRANCH  20  22
ATOM     21  O   UNL     1     -34.757  24.015   2.657  0.00  0.00    -0.296 OA
ATOM     22  C   UNL     1     -35.052  23.358   3.657  0.00  0.00    +0.151 C 
BRANCH  22  23
ATOM     23  C   UNL     1     -34.779  23.845   5.073  0.00  0.00    +0.076 C 
BRANCH  23  24
ATOM     24  C   UNL     1     -35.694  24.989   5.504  0.00  0.00    +0.117 C 
BRANCH  24  26
ATOM     25  O   UNL     1     -34.049  26.786   5.577  0.00  0.00    -0.250 OA
ATOM     26  C   UNL     1     -35.119  26.350   5.176  0.00  0.00    +0.314 C 
BRANCH  26  27
ATOM     27  O   UNL     1     -35.951  27.057   4.366  0.00  0.00    -0.480 OA
ATOM     28  H   UNL     1     -36.567  26.608   3.821  0.00  0.00    +0.295 HD
ENDBRANCH  26  27
ENDBRANCH  24  26
ENDBRANCH  23  24
ENDBRANCH  22  23
ENDBRANCH  20  22
ENDBRANCH   1  20
TORSDOF 15
ENDMDL
MODEL 8
REMARK VINA RESULT:      -5.5      2.108      5.408
REMARK  Name = 5283084
REMARK  15 active torsions:
REMARK  status: ('A' for Active; 'I' for Inactive)
REMARK    1  A    between atoms: C_1  and  C_20
REMARK    2  A    between atoms: C_2  and  C_10
REMARK    3  A    between atoms: C_3  and  O_6
REMARK    4  A    between atoms: C_4  and  O_8
REMARK    5  A    between atoms: C_11  and  C_12
REMARK    6  A    between atoms: C_12  and  O_13
REMARK    7  A    between atoms: C_12  and  C_15
REMARK    8  A    between atoms: C_15  and  C_16
REMARK    9  A    between atoms: C_16  and  C_17
REMARK   10  A    between atoms: C_17  and  C_18
REMARK   11  A    between atoms: C_20  and  C_22
REMARK   12  A    between atoms: C_22  and  C_23
REMARK   13  A    between atoms: C_23  and  C_24
REMARK   14  A    between atoms: C_24  and  C_26
REMARK   15  A    between atoms: C_26  and  O_27
REMARK                            x       y       z     vdW  Elec       q    Type
REMARK                         _______ _______ _______ _____ _____    ______ ____
ROOT
ATOM      1  C   UNL     1     -39.316  23.868   1.556  0.00  0.00    +0.041 C 
ATOM      2  C   UNL     1     -39.407  25.059   2.527  0.00  0.00    +0.051 C 
ATOM      3  C   UNL     1     -40.438  24.168   0.558  0.00  0.00    +0.114 C 
ATOM      4  C   UNL     1     -39.725  26.254   1.608  0.00  0.00    +0.117 C 
ATOM      5  C   UNL     1     -40.299  25.669   0.308  0.00  0.00    +0.059 C 
ENDROOT
BRANCH   3   6
ATOM      6  O   UNL     1     -41.728  23.874   1.081  0.00  0.00    -0.384 OA
ATOM      7  H   UNL     1     -42.250  24.690   1.132  0.00  0.00    +0.210 HD
ENDBRANCH   3   6
BRANCH   4   8
ATOM      8  O   UNL     1     -40.691  27.101   2.218  0.00  0.00    -0.384 OA
ATOM      9  H   UNL     1     -40.674  26.971   3.179  0.00  0.00    +0.210 HD
ENDBRANCH   4   8
BRANCH   2  10
ATOM     10  C   UNL     1     -38.168  25.275   3.330  0.00  0.00    -0.026 C 
ATOM     11  C   UNL     1     -37.140  26.034   2.925  0.00  0.00    -0.002 C 
BRANCH  11  12
ATOM     12  C   UNL     1     -35.892  26.247   3.736  0.00  0.00    +0.132 C 
BRANCH  12  13
ATOM     13  O   UNL     1     -35.558  27.636   3.691  0.00  0.00    -0.380 OA
ATOM     14  H   UNL     1     -35.238  27.920   4.562  0.00  0.00    +0.211 HD
ENDBRANCH  12  13
BRANCH  12  15
ATOM     15  C   UNL     1     -36.067  25.864   5.211  0.00  0.00    +0.034 C 
BRANCH  15  16
ATOM     16  C   UNL     1     -34.997  24.890   5.714  0.00  0.00    +0.003 C 
BRANCH  16  17
ATOM     17  C   UNL     1     -34.685  23.765   4.722  0.00  0.00    +0.000 C 
BRANCH  17  18
ATOM     18  C   UNL     1     -35.499  22.494   4.968  0.00  0.00    +0.000 C 
ATOM     19  C   UNL     1     -35.472  22.094   6.436  0.00  0.00    +0.000 C 
ENDBRANCH  17  18
ENDBRANCH  16  17
ENDBRANCH  15  16
ENDBRANCH  12  15
ENDBRANCH  11  12
ENDBRANCH   2  10
BRANCH   1  20
ATOM     20  C   UNL     1     -39.458  22.514   2.244  0.00  0.00    +0.067 C 
BRANCH  20  22
ATOM     21  O   UNL     1     -40.575  20.859   0.938  0.00  0.00    -0.296 OA
ATOM     22  C   UNL     1     -39.507  21.402   1.222  0.00  0.00    +0.151 C 
BRANCH  22  23
ATOM     23  C   UNL     1     -38.188  21.021   0.563  0.00  0.00    +0.076 C 
BRANCH  23  24
ATOM     24  C   UNL     1     -36.968  21.356   1.418  0.00  0.00    +0.117 C 
BRANCH  24  26
ATOM     25  O   UNL     1     -35.230  20.114   2.591  0.00  0.00    -0.250 OA
ATOM     26  C   UNL     1     -36.230  20.121   1.887  0.00  0.00    +0.314 C 
BRANCH  26  27
ATOM     27  O   UNL     1     -36.816  18.987   1.420  0.00  0.00    -0.480 OA
ATOM     28  H   UNL     1     -37.676  19.022   1.050  0.00  0.00    +0.295 HD
ENDBRANCH  26  27
ENDBRANCH  24  26
ENDBRANCH  23  24
ENDBRANCH  22  23
ENDBRANCH  20  22
ENDBRANCH   1  20
TORSDOF 15
ENDMDL
MODEL 9
REMARK VINA RESULT:      -5.5      2.053      6.690
REMARK  Name = 5283084
REMARK  15 active torsions:
REMARK  status: ('A' for Active; 'I' for Inactive)
REMARK    1  A    between atoms: C_1  and  C_20
REMARK    2  A    between atoms: C_2  and  C_10
REMARK    3  A    between atoms: C_3  and  O_6
REMARK    4  A    between atoms: C_4  and  O_8
REMARK    5  A    between atoms: C_11  and  C_12
REMARK    6  A    between atoms: C_12  and  O_13
REMARK    7  A    between atoms: C_12  and  C_15
REMARK    8  A    between atoms: C_15  and  C_16
REMARK    9  A    between atoms: C_16  and  C_17
REMARK   10  A    between atoms: C_17  and  C_18
REMARK   11  A    between atoms: C_20  and  C_22
REMARK   12  A    between atoms: C_22  and  C_23
REMARK   13  A    between atoms: C_23  and  C_24
REMARK   14  A    between atoms: C_24  and  C_26
REMARK   15  A    between atoms: C_26  and  O_27
REMARK                            x       y       z     vdW  Elec       q    Type
REMARK                         _______ _______ _______ _____ _____    ______ ____
ROOT
ATOM      1  C   UNL     1     -35.473  22.964   4.164  0.00  0.00    +0.041 C 
ATOM      2  C   UNL     1     -36.876  22.859   3.539  0.00  0.00    +0.051 C 
ATOM      3  C   UNL     1     -35.010  21.504   4.182  0.00  0.00    +0.114 C 
ATOM      4  C   UNL     1     -36.710  21.781   2.452  0.00  0.00    +0.117 C 
ATOM      5  C   UNL     1     -35.456  20.973   2.820  0.00  0.00    +0.059 C 
ENDROOT
BRANCH   3   6
ATOM      6  O   UNL     1     -35.615  20.751   5.225  0.00  0.00    -0.384 OA
ATOM      7  H   UNL     1     -36.100  20.002   4.844  0.00  0.00    +0.210 HD
ENDBRANCH   3   6
BRANCH   4   8
ATOM      8  O   UNL     1     -37.844  20.921   2.436  0.00  0.00    -0.384 OA
ATOM      9  H   UNL     1     -37.548  19.997   2.433  0.00  0.00    +0.210 HD
ENDBRANCH   4   8
BRANCH   2  10
ATOM     10  C   UNL     1     -37.383  24.149   2.985  0.00  0.00    -0.026 C 
ATOM     11  C   UNL     1     -38.561  24.693   3.321  0.00  0.00    -0.002 C 
BRANCH  11  12
ATOM     12  C   UNL     1     -39.069  25.991   2.759  0.00  0.00    +0.132 C 
BRANCH  12  13
ATOM     13  O   UNL     1     -37.944  26.791   2.388  0.00  0.00    -0.380 OA
ATOM     14  H   UNL     1     -37.929  26.899   1.424  0.00  0.00    +0.211 HD
ENDBRANCH  12  13
BRANCH  12  15
ATOM     15  C   UNL     1     -39.932  25.802   1.505  0.00  0.00    +0.034 C 
BRANCH  15  16
ATOM     16  C   UNL     1     -41.430  25.706   1.811  0.00  0.00    +0.003 C 
BRANCH  16  17
ATOM     17  C   UNL     1     -42.019  27.002   2.378  0.00  0.00    +0.000 C 
BRANCH  17  18
ATOM     18  C   UNL     1     -42.464  26.883   3.836  0.00  0.00    +0.000 C 
ATOM     19  C   UNL     1     -43.979  26.796   3.948  0.00  0.00    +0.000 C 
ENDBRANCH  17  18
ENDBRANCH  16  17
ENDBRANCH  15  16
ENDBRANCH  12  15
ENDBRANCH  11  12
ENDBRANCH   2  10
BRANCH   1  20
ATOM     20  C   UNL     1     -35.470  23.620   5.541  0.00  0.00    +0.067 C 
BRANCH  20  22
ATOM     21  O   UNL     1     -36.075  25.916   5.775  0.00  0.00    -0.296 OA
ATOM     22  C   UNL     1     -35.219  25.105   5.421  0.00  0.00    +0.151 C 
BRANCH  22  23
ATOM     23  C   UNL     1     -33.862  25.526   4.874  0.00  0.00    +0.076 C 
BRANCH  23  24
ATOM     24  C   UNL     1     -33.950  26.229   3.521  0.00  0.00    +0.117 C 
BRANCH  24  26
ATOM     25  O   UNL     1     -33.423  28.584   3.862  0.00  0.00    -0.250 OA
ATOM     26  C   UNL     1     -34.249  27.707   3.653  0.00  0.00    +0.314 C 
BRANCH  26  27
ATOM     27  O   UNL     1     -35.578  27.957   3.516  0.00  0.00    -0.480 OA
ATOM     28  H   UNL     1     -36.017  27.736   2.718  0.00  0.00    +0.295 HD
ENDBRANCH  26  27
ENDBRANCH  24  26
ENDBRANCH  23  24
ENDBRANCH  22  23
ENDBRANCH  20  22
ENDBRANCH   1  20
TORSDOF 15
ENDMDL
