MODEL 1
REMARK VINA RESULT:      -7.0      0.000      0.000
REMARK  Name = 5318267
REMARK  10 active torsions:
REMARK  status: ('A' for Active; 'I' for Inactive)
REMARK    1  A    between atoms: C_3  and  O_22
REMARK    2  A    between atoms: C_10  and  C_12
REMARK    3  A    between atoms: C_15  and  O_20
REMARK    4  A    between atoms: C_17  and  O_18
REMARK    5  A    between atoms: O_22  and  C_28
REMARK    6  A    between atoms: C_24  and  O_29
REMARK    7  A    between atoms: C_25  and  O_31
REMARK    8  A    between atoms: C_26  and  O_33
REMARK    9  A    between atoms: C_27  and  C_35
REMARK   10  A    between atoms: C_35  and  O_36
REMARK                            x       y       z     vdW  Elec       q    Type
REMARK                         _______ _______ _______ _____ _____    ______ ____
ROOT
ATOM      1  O   UNL     1     -33.638  26.262   2.640  0.00  0.00    -0.450 OA
ATOM      2  O   UNL     1     -33.052  27.273   6.550  0.00  0.00    -0.286 OA
ATOM      3  C   UNL     1     -35.783  23.774   4.216  0.00  0.00    +0.144 C 
ATOM      4  C   UNL     1     -35.113  24.521   3.247  0.00  0.00    +0.075 C 
ATOM      5  C   UNL     1     -35.612  24.067   5.570  0.00  0.00    +0.037 C 
ATOM      6  C   UNL     1     -34.271  25.562   3.636  0.00  0.00    +0.151 C 
ATOM      7  C   UNL     1     -34.099  25.856   4.989  0.00  0.00    +0.074 C 
ATOM      8  C   UNL     1     -34.770  25.110   5.960  0.00  0.00    +0.009 C 
ATOM      9  C   UNL     1     -33.206  26.965   5.375  0.00  0.00    +0.202 C 
ATOM     10  C   UNL     1     -32.525  27.685   4.264  0.00  0.00    +0.077 C 
ATOM     11  C   UNL     1     -32.792  27.279   3.014  0.00  0.00    +0.183 C 
ENDROOT
BRANCH  10  12
ATOM     12  C   UNL     1     -31.579  28.785   4.513  0.00  0.00    +0.009 C 
ATOM     13  C   UNL     1     -30.215  28.518   4.653  0.00  0.00    +0.040 C 
ATOM     14  C   UNL     1     -32.042  30.098   4.612  0.00  0.00    +0.004 C 
ATOM     15  C   UNL     1     -29.319  29.560   4.891  0.00  0.00    +0.168 C 
ATOM     16  C   UNL     1     -31.146  31.141   4.848  0.00  0.00    +0.040 C 
ATOM     17  C   UNL     1     -29.784  30.872   4.988  0.00  0.00    +0.172 C 
BRANCH  17  18
ATOM     18  O   UNL     1     -28.920  31.899   5.218  0.00  0.00    -0.468 OA
ATOM     19  C   UNL     1     -28.534  32.686   4.094  0.00  0.00    +0.253 C 
ENDBRANCH  17  18
BRANCH  15  20
ATOM     20  O   UNL     1     -27.992  29.285   5.025  0.00  0.00    -0.503 OA
ATOM     21  H   UNL     1     -27.583  28.658   4.460  0.00  0.00    +0.292 HD
ENDBRANCH  15  20
ENDBRANCH  10  12
BRANCH   3  22
ATOM     22  O   UNL     1     -36.607  22.754   3.840  0.00  0.00    -0.450 OA
BRANCH  22  28
ATOM     23  O   UNL     1     -38.418  24.088   3.216  0.00  0.00    -0.316 OA
ATOM     24  C   UNL     1     -39.464  22.020   1.518  0.00  0.00    +0.173 C 
ATOM     25  C   UNL     1     -40.283  23.249   1.914  0.00  0.00    +0.169 C 
ATOM     26  C   UNL     1     -38.334  21.764   2.516  0.00  0.00    +0.210 C 
ATOM     27  C   UNL     1     -39.367  24.440   2.209  0.00  0.00    +0.177 C 
ATOM     28  C   UNL     1     -37.544  23.041   2.802  0.00  0.00    +0.318 C 
BRANCH  24  29
ATOM     29  O   UNL     1     -40.341  20.893   1.493  0.00  0.00    -0.379 OA
ATOM     30  H   UNL     1     -40.138  20.342   0.720  0.00  0.00    +0.211 HD
ENDBRANCH  24  29
BRANCH  25  31
ATOM     31  O   UNL     1     -41.169  23.588   0.850  0.00  0.00    -0.379 OA
ATOM     32  H   UNL     1     -40.655  23.771   0.048  0.00  0.00    +0.211 HD
ENDBRANCH  25  31
BRANCH  26  33
ATOM     33  O   UNL     1     -37.437  20.794   1.976  0.00  0.00    -0.377 OA
ATOM     34  H   UNL     1     -37.798  19.906   2.116  0.00  0.00    +0.211 HD
ENDBRANCH  26  33
BRANCH  27  35
ATOM     35  C   UNL     1     -40.153  25.644   2.718  0.00  0.00    +0.169 C 
BRANCH  35  36
ATOM     36  O   UNL     1     -39.268  26.496   3.422  0.00  0.00    -0.379 OA
ATOM     37  H   UNL     1     -38.478  25.996   3.681  0.00  0.00    +0.211 HD
ENDBRANCH  35  36
ENDBRANCH  27  35
ENDBRANCH  22  28
ENDBRANCH   3  22
TORSDOF 10
ENDMDL
MODEL 2
REMARK VINA RESULT:      -6.8      2.465     10.192
REMARK  Name = 5318267
REMARK  10 active torsions:
REMARK  status: ('A' for Active; 'I' for Inactive)
REMARK    1  A    between atoms: C_3  and  O_22
REMARK    2  A    between atoms: C_10  and  C_12
REMARK    3  A    between atoms: C_15  and  O_20
REMARK    4  A    between atoms: C_17  and  O_18
REMARK    5  A    between atoms: O_22  and  C_28
REMARK    6  A    between atoms: C_24  and  O_29
REMARK    7  A    between atoms: C_25  and  O_31
REMARK    8  A    between atoms: C_26  and  O_33
REMARK    9  A    between atoms: C_27  and  C_35
REMARK   10  A    between atoms: C_35  and  O_36
REMARK                            x       y       z     vdW  Elec       q    Type
REMARK                         _______ _______ _______ _____ _____    ______ ____
ROOT
ATOM      1  O   UNL     1     -33.857  24.873   2.162  0.00  0.00    -0.450 OA
ATOM      2  O   UNL     1     -36.278  22.462   4.393  0.00  0.00    -0.286 OA
ATOM      3  C   UNL     1     -33.677  26.645   5.341  0.00  0.00    +0.144 C 
ATOM      4  C   UNL     1     -33.472  26.297   4.005  0.00  0.00    +0.075 C 
ATOM      5  C   UNL     1     -34.504  25.863   6.149  0.00  0.00    +0.037 C 
ATOM      6  C   UNL     1     -34.096  25.165   3.480  0.00  0.00    +0.151 C 
ATOM      7  C   UNL     1     -34.923  24.384   4.288  0.00  0.00    +0.074 C 
ATOM      8  C   UNL     1     -35.129  24.730   5.625  0.00  0.00    +0.009 C 
ATOM      9  C   UNL     1     -35.568  23.190   3.711  0.00  0.00    +0.202 C 
ATOM     10  C   UNL     1     -35.298  22.921   2.272  0.00  0.00    +0.077 C 
ATOM     11  C   UNL     1     -34.482  23.769   1.630  0.00  0.00    +0.183 C 
ENDROOT
BRANCH  10  12
ATOM     12  C   UNL     1     -35.911  21.784   1.564  0.00  0.00    +0.009 C 
ATOM     13  C   UNL     1     -35.224  20.573   1.455  0.00  0.00    +0.040 C 
ATOM     14  C   UNL     1     -37.180  21.915   0.998  0.00  0.00    +0.004 C 
ATOM     15  C   UNL     1     -35.804  19.497   0.783  0.00  0.00    +0.168 C 
ATOM     16  C   UNL     1     -37.761  20.839   0.326  0.00  0.00    +0.040 C 
ATOM     17  C   UNL     1     -37.073  19.630   0.219  0.00  0.00    +0.172 C 
BRANCH  17  18
ATOM     18  O   UNL     1     -37.651  18.587  -0.439  0.00  0.00    -0.468 OA
ATOM     19  C   UNL     1     -38.873  18.850  -1.125  0.00  0.00    +0.253 C 
ENDBRANCH  17  18
BRANCH  15  20
ATOM     20  O   UNL     1     -35.123  18.323   0.685  0.00  0.00    -0.503 OA
ATOM     21  H   UNL     1     -34.843  18.011  -0.153  0.00  0.00    +0.292 HD
ENDBRANCH  15  20
ENDBRANCH  10  12
BRANCH   3  22
ATOM     22  O   UNL     1     -33.069  27.750   5.858  0.00  0.00    -0.450 OA
BRANCH  22  28
ATOM     23  O   UNL     1     -30.739  27.880   5.897  0.00  0.00    -0.316 OA
ATOM     24  C   UNL     1     -30.768  30.353   4.436  0.00  0.00    +0.173 C 
ATOM     25  C   UNL     1     -29.517  29.834   5.146  0.00  0.00    +0.169 C 
ATOM     26  C   UNL     1     -32.037  29.743   5.034  0.00  0.00    +0.210 C 
ATOM     27  C   UNL     1     -29.543  28.307   5.244  0.00  0.00    +0.177 C 
ATOM     28  C   UNL     1     -31.914  28.225   5.167  0.00  0.00    +0.318 C 
BRANCH  24  29
ATOM     29  O   UNL     1     -30.806  31.773   4.588  0.00  0.00    -0.379 OA
ATOM     30  H   UNL     1     -31.352  32.159   3.884  0.00  0.00    +0.211 HD
ENDBRANCH  24  29
BRANCH  25  31
ATOM     31  O   UNL     1     -28.360  30.240   4.420  0.00  0.00    -0.379 OA
ATOM     32  H   UNL     1     -28.044  29.502   3.876  0.00  0.00    +0.211 HD
ENDBRANCH  25  31
BRANCH  26  33
ATOM     33  O   UNL     1     -33.146  30.029   4.182  0.00  0.00    -0.377 OA
ATOM     34  H   UNL     1     -33.695  30.717   4.587  0.00  0.00    +0.211 HD
ENDBRANCH  26  33
BRANCH  27  35
ATOM     35  C   UNL     1     -28.363  27.773   6.050  0.00  0.00    +0.169 C 
BRANCH  35  36
ATOM     36  O   UNL     1     -28.864  27.000   7.125  0.00  0.00    -0.379 OA
ATOM     37  H   UNL     1     -29.431  26.294   6.777  0.00  0.00    +0.211 HD
ENDBRANCH  35  36
ENDBRANCH  27  35
ENDBRANCH  22  28
ENDBRANCH   3  22
TORSDOF 10
ENDMDL
MODEL 3
REMARK VINA RESULT:      -6.7      1.316      2.103
REMARK  Name = 5318267
REMARK  10 active torsions:
REMARK  status: ('A' for Active; 'I' for Inactive)
REMARK    1  A    between atoms: C_3  and  O_22
REMARK    2  A    between atoms: C_10  and  C_12
REMARK    3  A    between atoms: C_15  and  O_20
REMARK    4  A    between atoms: C_17  and  O_18
REMARK    5  A    between atoms: O_22  and  C_28
REMARK    6  A    between atoms: C_24  and  O_29
REMARK    7  A    between atoms: C_25  and  O_31
REMARK    8  A    between atoms: C_26  and  O_33
REMARK    9  A    between atoms: C_27  and  C_35
REMARK   10  A    between atoms: C_35  and  O_36
REMARK                            x       y       z     vdW  Elec       q    Type
REMARK                         _______ _______ _______ _____ _____    ______ ____
ROOT
ATOM      1  O   UNL     1     -33.122  27.021   6.850  0.00  0.00    -0.450 OA
ATOM      2  O   UNL     1     -31.711  28.300   3.241  0.00  0.00    -0.286 OA
ATOM      3  C   UNL     1     -35.458  25.284   4.659  0.00  0.00    +0.144 C 
ATOM      4  C   UNL     1     -34.807  25.738   5.806  0.00  0.00    +0.075 C 
ATOM      5  C   UNL     1     -35.026  25.697   3.398  0.00  0.00    +0.037 C 
ATOM      6  C   UNL     1     -33.723  26.607   5.688  0.00  0.00    +0.151 C 
ATOM      7  C   UNL     1     -33.290  27.021   4.428  0.00  0.00    +0.074 C 
ATOM      8  C   UNL     1     -33.941  26.566   3.279  0.00  0.00    +0.009 C 
ATOM      9  C   UNL     1     -32.139  27.937   4.330  0.00  0.00    +0.202 C 
ATOM     10  C   UNL     1     -31.530  28.376   5.615  0.00  0.00    +0.077 C 
ATOM     11  C   UNL     1     -32.063  27.891   6.745  0.00  0.00    +0.183 C 
ENDROOT
BRANCH  10  12
ATOM     12  C   UNL     1     -30.400  29.320   5.659  0.00  0.00    +0.009 C 
ATOM     13  C   UNL     1     -29.186  28.933   6.230  0.00  0.00    +0.040 C 
ATOM     14  C   UNL     1     -30.540  30.605   5.131  0.00  0.00    +0.004 C 
ATOM     15  C   UNL     1     -28.116  29.828   6.273  0.00  0.00    +0.168 C 
ATOM     16  C   UNL     1     -29.470  31.499   5.173  0.00  0.00    +0.040 C 
ATOM     17  C   UNL     1     -28.258  31.111   5.744  0.00  0.00    +0.172 C 
BRANCH  17  18
ATOM     18  O   UNL     1     -27.221  31.993   5.778  0.00  0.00    -0.468 OA
ATOM     19  C   UNL     1     -27.447  33.281   5.210  0.00  0.00    +0.253 C 
ENDBRANCH  17  18
BRANCH  15  20
ATOM     20  O   UNL     1     -26.938  29.437   6.832  0.00  0.00    -0.503 OA
ATOM     21  H   UNL     1     -26.835  29.447   7.764  0.00  0.00    +0.292 HD
ENDBRANCH  15  20
ENDBRANCH  10  12
BRANCH   3  22
ATOM     22  O   UNL     1     -36.519  24.434   4.769  0.00  0.00    -0.450 OA
BRANCH  22  28
ATOM     23  O   UNL     1     -38.579  24.832   3.748  0.00  0.00    -0.316 OA
ATOM     24  C   UNL     1     -38.383  22.411   2.215  0.00  0.00    +0.173 C 
ATOM     25  C   UNL     1     -39.686  23.201   2.338  0.00  0.00    +0.169 C 
ATOM     26  C   UNL     1     -37.436  22.722   3.375  0.00  0.00    +0.210 C 
ATOM     27  C   UNL     1     -39.401  24.684   2.590  0.00  0.00    +0.177 C 
ATOM     28  C   UNL     1     -37.298  24.229   3.591  0.00  0.00    +0.318 C 
BRANCH  24  29
ATOM     29  O   UNL     1     -38.706  21.020   2.225  0.00  0.00    -0.379 OA
ATOM     30  H   UNL     1     -38.518  20.651   3.103  0.00  0.00    +0.211 HD
ENDBRANCH  24  29
BRANCH  25  31
ATOM     31  O   UNL     1     -40.436  23.063   1.134  0.00  0.00    -0.379 OA
ATOM     32  H   UNL     1     -41.364  22.876   1.350  0.00  0.00    +0.211 HD
ENDBRANCH  25  31
BRANCH  26  33
ATOM     33  O   UNL     1     -36.144  22.190   3.086  0.00  0.00    -0.377 OA
ATOM     34  H   UNL     1     -36.091  21.277   3.406  0.00  0.00    +0.211 HD
ENDBRANCH  26  33
BRANCH  27  35
ATOM     35  C   UNL     1     -40.684  25.472   2.831  0.00  0.00    +0.169 C 
BRANCH  35  36
ATOM     36  O   UNL     1     -40.370  26.621   3.596  0.00  0.00    -0.379 OA
ATOM     37  H   UNL     1     -40.433  26.407   4.540  0.00  0.00    +0.211 HD
ENDBRANCH  35  36
ENDBRANCH  27  35
ENDBRANCH  22  28
ENDBRANCH   3  22
TORSDOF 10
ENDMDL
MODEL 4
REMARK VINA RESULT:      -6.7      6.829      9.627
REMARK  Name = 5318267
REMARK  10 active torsions:
REMARK  status: ('A' for Active; 'I' for Inactive)
REMARK    1  A    between atoms: C_3  and  O_22
REMARK    2  A    between atoms: C_10  and  C_12
REMARK    3  A    between atoms: C_15  and  O_20
REMARK    4  A    between atoms: C_17  and  O_18
REMARK    5  A    between atoms: O_22  and  C_28
REMARK    6  A    between atoms: C_24  and  O_29
REMARK    7  A    between atoms: C_25  and  O_31
REMARK    8  A    between atoms: C_26  and  O_33
REMARK    9  A    between atoms: C_27  and  C_35
REMARK   10  A    between atoms: C_35  and  O_36
REMARK                            x       y       z     vdW  Elec       q    Type
REMARK                         _______ _______ _______ _____ _____    ______ ____
ROOT
ATOM      1  O   UNL     1     -33.670  18.789   1.602  0.00  0.00    -0.450 OA
ATOM      2  O   UNL     1     -30.584  20.215  -0.654  0.00  0.00    -0.286 OA
ATOM      3  C   UNL     1     -34.973  22.110   0.862  0.00  0.00    +0.144 C 
ATOM      4  C   UNL     1     -34.864  20.812   1.360  0.00  0.00    +0.075 C 
ATOM      5  C   UNL     1     -33.942  22.655   0.093  0.00  0.00    +0.037 C 
ATOM      6  C   UNL     1     -33.722  20.059   1.087  0.00  0.00    +0.151 C 
ATOM      7  C   UNL     1     -32.692  20.602   0.319  0.00  0.00    +0.074 C 
ATOM      8  C   UNL     1     -32.799  21.902  -0.181  0.00  0.00    +0.009 C 
ATOM      9  C   UNL     1     -31.496  19.785   0.041  0.00  0.00    +0.202 C 
ATOM     10  C   UNL     1     -31.473  18.421   0.635  0.00  0.00    +0.077 C 
ATOM     11  C   UNL     1     -32.541  18.045   1.353  0.00  0.00    +0.183 C 
ENDROOT
BRANCH  10  12
ATOM     12  C   UNL     1     -30.322  17.517   0.467  0.00  0.00    +0.009 C 
ATOM     13  C   UNL     1     -29.210  17.636   1.303  0.00  0.00    +0.040 C 
ATOM     14  C   UNL     1     -30.340  16.540  -0.529  0.00  0.00    +0.004 C 
ATOM     15  C   UNL     1     -28.119  16.781   1.142  0.00  0.00    +0.168 C 
ATOM     16  C   UNL     1     -29.250  15.684  -0.690  0.00  0.00    +0.040 C 
ATOM     17  C   UNL     1     -28.140  15.804   0.146  0.00  0.00    +0.172 C 
BRANCH  17  18
ATOM     18  O   UNL     1     -27.082  14.962  -0.020  0.00  0.00    -0.468 OA
ATOM     19  C   UNL     1     -27.223  13.637   0.487  0.00  0.00    +0.253 C 
ENDBRANCH  17  18
BRANCH  15  20
ATOM     20  O   UNL     1     -27.042  16.908   1.964  0.00  0.00    -0.503 OA
ATOM     21  H   UNL     1     -26.576  17.720   2.005  0.00  0.00    +0.292 HD
ENDBRANCH  15  20
ENDBRANCH  10  12
BRANCH   3  22
ATOM     22  O   UNL     1     -36.087  22.850   1.127  0.00  0.00    -0.450 OA
BRANCH  22  28
ATOM     23  O   UNL     1     -35.694  23.380   3.365  0.00  0.00    -0.316 OA
ATOM     24  C   UNL     1     -37.213  25.808   3.145  0.00  0.00    +0.173 C 
ATOM     25  C   UNL     1     -36.792  25.224   4.494  0.00  0.00    +0.169 C 
ATOM     26  C   UNL     1     -37.228  24.734   2.057  0.00  0.00    +0.210 C 
ATOM     27  C   UNL     1     -35.511  24.398   4.351  0.00  0.00    +0.177 C 
ATOM     28  C   UNL     1     -35.938  23.914   2.067  0.00  0.00    +0.318 C 
BRANCH  24  29
ATOM     29  O   UNL     1     -38.524  26.356   3.291  0.00  0.00    -0.379 OA
ATOM     30  H   UNL     1     -39.165  25.788   2.834  0.00  0.00    +0.211 HD
ENDBRANCH  24  29
BRANCH  25  31
ATOM     31  O   UNL     1     -36.567  26.285   5.418  0.00  0.00    -0.379 OA
ATOM     32  H   UNL     1     -36.248  25.920   6.258  0.00  0.00    +0.211 HD
ENDBRANCH  25  31
BRANCH  26  33
ATOM     33  O   UNL     1     -37.354  25.356   0.779  0.00  0.00    -0.377 OA
ATOM     34  H   UNL     1     -37.807  26.208   0.877  0.00  0.00    +0.211 HD
ENDBRANCH  26  33
BRANCH  27  35
ATOM     35  C   UNL     1     -35.134  23.709   5.659  0.00  0.00    +0.169 C 
BRANCH  35  36
ATOM     36  O   UNL     1     -36.108  22.722   5.945  0.00  0.00    -0.379 OA
ATOM     37  H   UNL     1     -35.687  21.975   6.398  0.00  0.00    +0.211 HD
ENDBRANCH  35  36
ENDBRANCH  27  35
ENDBRANCH  22  28
ENDBRANCH   3  22
TORSDOF 10
ENDMDL
MODEL 5
REMARK VINA RESULT:      -6.6      1.665      2.977
REMARK  Name = 5318267
REMARK  10 active torsions:
REMARK  status: ('A' for Active; 'I' for Inactive)
REMARK    1  A    between atoms: C_3  and  O_22
REMARK    2  A    between atoms: C_10  and  C_12
REMARK    3  A    between atoms: C_15  and  O_20
REMARK    4  A    between atoms: C_17  and  O_18
REMARK    5  A    between atoms: O_22  and  C_28
REMARK    6  A    between atoms: C_24  and  O_29
REMARK    7  A    between atoms: C_25  and  O_31
REMARK    8  A    between atoms: C_26  and  O_33
REMARK    9  A    between atoms: C_27  and  C_35
REMARK   10  A    between atoms: C_35  and  O_36
REMARK                            x       y       z     vdW  Elec       q    Type
REMARK                         _______ _______ _______ _____ _____    ______ ____
ROOT
ATOM      1  O   UNL     1     -34.107  27.385   2.787  0.00  0.00    -0.450 OA
ATOM      2  O   UNL     1     -33.078  26.553   6.647  0.00  0.00    -0.286 OA
ATOM      3  C   UNL     1     -36.640  24.877   3.540  0.00  0.00    +0.144 C 
ATOM      4  C   UNL     1     -35.884  25.833   2.861  0.00  0.00    +0.075 C 
ATOM      5  C   UNL     1     -36.327  24.544   4.860  0.00  0.00    +0.037 C 
ATOM      6  C   UNL     1     -34.814  26.454   3.505  0.00  0.00    +0.151 C 
ATOM      7  C   UNL     1     -34.501  26.122   4.823  0.00  0.00    +0.074 C 
ATOM      8  C   UNL     1     -35.257  25.165   5.504  0.00  0.00    +0.009 C 
ATOM      9  C   UNL     1     -33.367  26.795   5.482  0.00  0.00    +0.202 C 
ATOM     10  C   UNL     1     -32.615  27.784   4.662  0.00  0.00    +0.077 C 
ATOM     11  C   UNL     1     -33.040  27.991   3.407  0.00  0.00    +0.183 C 
ENDROOT
BRANCH  10  12
ATOM     12  C   UNL     1     -31.439  28.498   5.187  0.00  0.00    +0.009 C 
ATOM     13  C   UNL     1     -30.204  28.381   4.545  0.00  0.00    +0.040 C 
ATOM     14  C   UNL     1     -31.555  29.293   6.328  0.00  0.00    +0.004 C 
ATOM     15  C   UNL     1     -29.090  29.057   5.043  0.00  0.00    +0.168 C 
ATOM     16  C   UNL     1     -30.441  29.970   6.826  0.00  0.00    +0.040 C 
ATOM     17  C   UNL     1     -29.209  29.852   6.184  0.00  0.00    +0.172 C 
BRANCH  17  18
ATOM     18  O   UNL     1     -28.129  30.518   6.679  0.00  0.00    -0.468 OA
ATOM     19  C   UNL     1     -27.588  30.049   7.913  0.00  0.00    +0.253 C 
ENDBRANCH  17  18
BRANCH  15  20
ATOM     20  O   UNL     1     -27.893  28.935   4.407  0.00  0.00    -0.503 OA
ATOM     21  H   UNL     1     -27.118  29.296   4.792  0.00  0.00    +0.292 HD
ENDBRANCH  15  20
ENDBRANCH  10  12
BRANCH   3  22
ATOM     22  O   UNL     1     -37.687  24.266   2.915  0.00  0.00    -0.450 OA
BRANCH  22  28
ATOM     23  O   UNL     1     -36.355  22.443   2.328  0.00  0.00    -0.316 OA
ATOM     24  C   UNL     1     -38.657  20.891   1.591  0.00  0.00    +0.173 C 
ATOM     25  C   UNL     1     -37.234  20.474   1.220  0.00  0.00    +0.169 C 
ATOM     26  C   UNL     1     -38.740  22.392   1.869  0.00  0.00    +0.210 C 
ATOM     27  C   UNL     1     -36.226  21.024   2.232  0.00  0.00    +0.177 C 
ATOM     28  C   UNL     1     -37.631  22.843   2.820  0.00  0.00    +0.318 C 
BRANCH  24  29
ATOM     29  O   UNL     1     -39.515  20.562   0.497  0.00  0.00    -0.379 OA
ATOM     30  H   UNL     1     -38.978  20.391  -0.294  0.00  0.00    +0.211 HD
ENDBRANCH  24  29
BRANCH  25  31
ATOM     31  O   UNL     1     -37.150  19.051   1.196  0.00  0.00    -0.379 OA
ATOM     32  H   UNL     1     -36.221  18.781   1.269  0.00  0.00    +0.211 HD
ENDBRANCH  25  31
BRANCH  26  33
ATOM     33  O   UNL     1     -39.998  22.694   2.471  0.00  0.00    -0.377 OA
ATOM     34  H   UNL     1     -39.993  23.609   2.790  0.00  0.00    +0.211 HD
ENDBRANCH  26  33
BRANCH  27  35
ATOM     35  C   UNL     1     -34.789  20.719   1.819  0.00  0.00    +0.169 C 
BRANCH  35  36
ATOM     36  O   UNL     1     -34.481  19.393   2.205  0.00  0.00    -0.379 OA
ATOM     37  H   UNL     1     -35.196  19.044   2.760  0.00  0.00    +0.211 HD
ENDBRANCH  35  36
ENDBRANCH  27  35
ENDBRANCH  22  28
ENDBRANCH   3  22
TORSDOF 10
ENDMDL
MODEL 6
REMARK VINA RESULT:      -6.6      1.798     10.301
REMARK  Name = 5318267
REMARK  10 active torsions:
REMARK  status: ('A' for Active; 'I' for Inactive)
REMARK    1  A    between atoms: C_3  and  O_22
REMARK    2  A    between atoms: C_10  and  C_12
REMARK    3  A    between atoms: C_15  and  O_20
REMARK    4  A    between atoms: C_17  and  O_18
REMARK    5  A    between atoms: O_22  and  C_28
REMARK    6  A    between atoms: C_24  and  O_29
REMARK    7  A    between atoms: C_25  and  O_31
REMARK    8  A    between atoms: C_26  and  O_33
REMARK    9  A    between atoms: C_27  and  C_35
REMARK   10  A    between atoms: C_35  and  O_36
REMARK                            x       y       z     vdW  Elec       q    Type
REMARK                         _______ _______ _______ _____ _____    ______ ____
ROOT
ATOM      1  O   UNL     1     -35.135  25.807   2.076  0.00  0.00    -0.450 OA
ATOM      2  O   UNL     1     -36.410  22.734   4.440  0.00  0.00    -0.286 OA
ATOM      3  C   UNL     1     -33.656  26.849   5.239  0.00  0.00    +0.144 C 
ATOM      4  C   UNL     1     -34.022  26.824   3.893  0.00  0.00    +0.075 C 
ATOM      5  C   UNL     1     -34.072  25.830   6.097  0.00  0.00    +0.037 C 
ATOM      6  C   UNL     1     -34.806  25.778   3.408  0.00  0.00    +0.151 C 
ATOM      7  C   UNL     1     -35.223  24.759   4.265  0.00  0.00    +0.074 C 
ATOM      8  C   UNL     1     -34.857  24.782   5.613  0.00  0.00    +0.009 C 
ATOM      9  C   UNL     1     -36.048  23.662   3.727  0.00  0.00    +0.202 C 
ATOM     10  C   UNL     1     -36.398  23.743   2.283  0.00  0.00    +0.077 C 
ATOM     11  C   UNL     1     -35.922  24.789   1.592  0.00  0.00    +0.183 C 
ENDROOT
BRANCH  10  12
ATOM     12  C   UNL     1     -37.248  22.733   1.629  0.00  0.00    +0.009 C 
ATOM     13  C   UNL     1     -38.452  22.342   2.221  0.00  0.00    +0.040 C 
ATOM     14  C   UNL     1     -36.853  22.163   0.418  0.00  0.00    +0.004 C 
ATOM     15  C   UNL     1     -39.256  21.384   1.602  0.00  0.00    +0.168 C 
ATOM     16  C   UNL     1     -37.657  21.206  -0.201  0.00  0.00    +0.040 C 
ATOM     17  C   UNL     1     -38.859  20.817   0.391  0.00  0.00    +0.172 C 
BRANCH  17  18
ATOM     18  O   UNL     1     -39.636  19.882  -0.223  0.00  0.00    -0.468 OA
ATOM     19  C   UNL     1     -39.075  19.210  -1.349  0.00  0.00    +0.253 C 
ENDBRANCH  17  18
BRANCH  15  20
ATOM     20  O   UNL     1     -40.427  21.012   2.189  0.00  0.00    -0.503 OA
ATOM     21  H   UNL     1     -41.070  20.542   1.696  0.00  0.00    +0.292 HD
ENDBRANCH  15  20
ENDBRANCH  10  12
BRANCH   3  22
ATOM     22  O   UNL     1     -32.889  27.870   5.718  0.00  0.00    -0.450 OA
BRANCH  22  28
ATOM     23  O   UNL     1     -30.608  27.861   5.228  0.00  0.00    -0.316 OA
ATOM     24  C   UNL     1     -30.743  30.518   4.147  0.00  0.00    +0.173 C 
ATOM     25  C   UNL     1     -29.416  29.832   4.472  0.00  0.00    +0.169 C 
ATOM     26  C   UNL     1     -31.895  29.900   4.940  0.00  0.00    +0.210 C 
ATOM     27  C   UNL     1     -29.554  28.310   4.375  0.00  0.00    +0.177 C 
ATOM     28  C   UNL     1     -31.880  28.375   4.844  0.00  0.00    +0.318 C 
BRANCH  24  29
ATOM     29  O   UNL     1     -30.620  31.901   4.486  0.00  0.00    -0.379 OA
ATOM     30  H   UNL     1     -29.948  32.005   5.179  0.00  0.00    +0.211 HD
ENDBRANCH  24  29
BRANCH  25  31
ATOM     31  O   UNL     1     -28.419  30.273   3.554  0.00  0.00    -0.379 OA
ATOM     32  H   UNL     1     -27.540  30.046   3.896  0.00  0.00    +0.211 HD
ENDBRANCH  25  31
BRANCH  26  33
ATOM     33  O   UNL     1     -33.136  30.370   4.416  0.00  0.00    -0.377 OA
ATOM     34  H   UNL     1     -33.527  31.007   5.032  0.00  0.00    +0.211 HD
ENDBRANCH  26  33
BRANCH  27  35
ATOM     35  C   UNL     1     -28.276  27.598   4.807  0.00  0.00    +0.169 C 
BRANCH  35  36
ATOM     36  O   UNL     1     -28.177  26.378   4.096  0.00  0.00    -0.379 OA
ATOM     37  H   UNL     1     -27.534  25.800   4.535  0.00  0.00    +0.211 HD
ENDBRANCH  35  36
ENDBRANCH  27  35
ENDBRANCH  22  28
ENDBRANCH   3  22
TORSDOF 10
ENDMDL
MODEL 7
REMARK VINA RESULT:      -6.5      3.959      9.919
REMARK  Name = 5318267
REMARK  10 active torsions:
REMARK  status: ('A' for Active; 'I' for Inactive)
REMARK    1  A    between atoms: C_3  and  O_22
REMARK    2  A    between atoms: C_10  and  C_12
REMARK    3  A    between atoms: C_15  and  O_20
REMARK    4  A    between atoms: C_17  and  O_18
REMARK    5  A    between atoms: O_22  and  C_28
REMARK    6  A    between atoms: C_24  and  O_29
REMARK    7  A    between atoms: C_25  and  O_31
REMARK    8  A    between atoms: C_26  and  O_33
REMARK    9  A    between atoms: C_27  and  C_35
REMARK   10  A    between atoms: C_35  and  O_36
REMARK                            x       y       z     vdW  Elec       q    Type
REMARK                         _______ _______ _______ _____ _____    ______ ____
ROOT
ATOM      1  O   UNL     1     -34.078  23.301   0.790  0.00  0.00    -0.450 OA
ATOM      2  O   UNL     1     -35.564  20.466   3.322  0.00  0.00    -0.286 OA
ATOM      3  C   UNL     1     -35.308  25.474   3.444  0.00  0.00    +0.144 C 
ATOM      4  C   UNL     1     -34.720  25.036   2.257  0.00  0.00    +0.075 C 
ATOM      5  C   UNL     1     -35.843  24.550   4.343  0.00  0.00    +0.037 C 
ATOM      6  C   UNL     1     -34.668  23.672   1.972  0.00  0.00    +0.151 C 
ATOM      7  C   UNL     1     -35.203  22.748   2.870  0.00  0.00    +0.074 C 
ATOM      8  C   UNL     1     -35.792  23.184   4.059  0.00  0.00    +0.009 C 
ATOM      9  C   UNL     1     -35.133  21.311   2.547  0.00  0.00    +0.202 C 
ATOM     10  C   UNL     1     -34.502  20.953   1.247  0.00  0.00    +0.077 C 
ATOM     11  C   UNL     1     -34.038  21.959   0.492  0.00  0.00    +0.183 C 
ENDROOT
BRANCH  10  12
ATOM     12  C   UNL     1     -34.403  19.558   0.787  0.00  0.00    +0.009 C 
ATOM     13  C   UNL     1     -33.253  18.812   1.053  0.00  0.00    +0.040 C 
ATOM     14  C   UNL     1     -35.459  18.977   0.082  0.00  0.00    +0.004 C 
ATOM     15  C   UNL     1     -33.159  17.491   0.616  0.00  0.00    +0.168 C 
ATOM     16  C   UNL     1     -35.366  17.655  -0.354  0.00  0.00    +0.040 C 
ATOM     17  C   UNL     1     -34.216  16.912  -0.088  0.00  0.00    +0.172 C 
BRANCH  17  18
ATOM     18  O   UNL     1     -34.137  15.622  -0.519  0.00  0.00    -0.468 OA
ATOM     19  C   UNL     1     -35.366  14.926  -0.709  0.00  0.00    +0.253 C 
ENDBRANCH  17  18
BRANCH  15  20
ATOM     20  O   UNL     1     -32.032  16.775   0.882  0.00  0.00    -0.503 OA
ATOM     21  H   UNL     1     -32.020  15.848   0.740  0.00  0.00    +0.292 HD
ENDBRANCH  15  20
ENDBRANCH  10  12
BRANCH   3  22
ATOM     22  O   UNL     1     -35.361  26.807   3.727  0.00  0.00    -0.450 OA
BRANCH  22  28
ATOM     23  O   UNL     1     -33.536  27.702   4.873  0.00  0.00    -0.316 OA
ATOM     24  C   UNL     1     -33.241  29.801   2.934  0.00  0.00    +0.173 C 
ATOM     25  C   UNL     1     -32.528  29.827   4.286  0.00  0.00    +0.169 C 
ATOM     26  C   UNL     1     -34.472  28.894   2.975  0.00  0.00    +0.210 C 
ATOM     27  C   UNL     1     -32.295  28.406   4.804  0.00  0.00    +0.177 C 
ATOM     28  C   UNL     1     -34.142  27.536   3.593  0.00  0.00    +0.318 C 
BRANCH  24  29
ATOM     29  O   UNL     1     -33.643  31.135   2.620  0.00  0.00    -0.379 OA
ATOM     30  H   UNL     1     -32.941  31.754   2.879  0.00  0.00    +0.211 HD
ENDBRANCH  24  29
BRANCH  25  31
ATOM     31  O   UNL     1     -31.273  30.488   4.144  0.00  0.00    -0.379 OA
ATOM     32  H   UNL     1     -30.599  30.015   4.657  0.00  0.00    +0.211 HD
ENDBRANCH  25  31
BRANCH  26  33
ATOM     33  O   UNL     1     -34.945  28.679   1.646  0.00  0.00    -0.377 OA
ATOM     34  H   UNL     1     -35.579  29.374   1.412  0.00  0.00    +0.211 HD
ENDBRANCH  26  33
BRANCH  27  35
ATOM     35  C   UNL     1     -31.689  28.408   6.205  0.00  0.00    +0.169 C 
BRANCH  35  36
ATOM     36  O   UNL     1     -31.907  27.138   6.791  0.00  0.00    -0.379 OA
ATOM     37  H   UNL     1     -31.573  26.447   6.198  0.00  0.00    +0.211 HD
ENDBRANCH  35  36
ENDBRANCH  27  35
ENDBRANCH  22  28
ENDBRANCH   3  22
TORSDOF 10
ENDMDL
MODEL 8
REMARK VINA RESULT:      -6.5      2.552     10.145
REMARK  Name = 5318267
REMARK  10 active torsions:
REMARK  status: ('A' for Active; 'I' for Inactive)
REMARK    1  A    between atoms: C_3  and  O_22
REMARK    2  A    between atoms: C_10  and  C_12
REMARK    3  A    between atoms: C_15  and  O_20
REMARK    4  A    between atoms: C_17  and  O_18
REMARK    5  A    between atoms: O_22  and  C_28
REMARK    6  A    between atoms: C_24  and  O_29
REMARK    7  A    between atoms: C_25  and  O_31
REMARK    8  A    between atoms: C_26  and  O_33
REMARK    9  A    between atoms: C_27  and  C_35
REMARK   10  A    between atoms: C_35  and  O_36
REMARK                            x       y       z     vdW  Elec       q    Type
REMARK                         _______ _______ _______ _____ _____    ______ ____
ROOT
ATOM      1  O   UNL     1     -34.078  25.422   1.825  0.00  0.00    -0.450 OA
ATOM      2  O   UNL     1     -35.230  22.671   4.611  0.00  0.00    -0.286 OA
ATOM      3  C   UNL     1     -33.327  27.306   4.852  0.00  0.00    +0.144 C 
ATOM      4  C   UNL     1     -33.456  26.957   3.508  0.00  0.00    +0.075 C 
ATOM      5  C   UNL     1     -33.716  26.409   5.849  0.00  0.00    +0.037 C 
ATOM      6  C   UNL     1     -33.975  25.709   3.162  0.00  0.00    +0.151 C 
ATOM      7  C   UNL     1     -34.363  24.812   4.158  0.00  0.00    +0.074 C 
ATOM      8  C   UNL     1     -34.234  25.159   5.505  0.00  0.00    +0.009 C 
ATOM      9  C   UNL     1     -34.905  23.498   3.768  0.00  0.00    +0.202 C 
ATOM     10  C   UNL     1     -35.018  23.234   2.307  0.00  0.00    +0.077 C 
ATOM     11  C   UNL     1     -34.604  24.201   1.475  0.00  0.00    +0.183 C 
ENDROOT
BRANCH  10  12
ATOM     12  C   UNL     1     -35.578  21.977   1.783  0.00  0.00    +0.009 C 
ATOM     13  C   UNL     1     -36.962  21.819   1.673  0.00  0.00    +0.040 C 
ATOM     14  C   UNL     1     -34.729  20.940   1.396  0.00  0.00    +0.004 C 
ATOM     15  C   UNL     1     -37.493  20.628   1.177  0.00  0.00    +0.168 C 
ATOM     16  C   UNL     1     -35.259  19.749   0.900  0.00  0.00    +0.040 C 
ATOM     17  C   UNL     1     -36.641  19.593   0.790  0.00  0.00    +0.172 C 
BRANCH  17  18
ATOM     18  O   UNL     1     -37.146  18.425   0.304  0.00  0.00    -0.468 OA
ATOM     19  C   UNL     1     -37.141  18.256  -1.111  0.00  0.00    +0.253 C 
ENDBRANCH  17  18
BRANCH  15  20
ATOM     20  O   UNL     1     -38.843  20.487   1.075  0.00  0.00    -0.503 OA
ATOM     21  H   UNL     1     -39.236  19.642   1.178  0.00  0.00    +0.292 HD
ENDBRANCH  15  20
ENDBRANCH  10  12
BRANCH   3  22
ATOM     22  O   UNL     1     -32.821  28.525   5.194  0.00  0.00    -0.450 OA
BRANCH  22  28
ATOM     23  O   UNL     1     -30.917  27.785   4.066  0.00  0.00    -0.316 OA
ATOM     24  C   UNL     1     -29.234  28.445   6.299  0.00  0.00    +0.173 C 
ATOM     25  C   UNL     1     -28.750  27.580   5.135  0.00  0.00    +0.169 C 
ATOM     26  C   UNL     1     -30.760  28.431   6.402  0.00  0.00    +0.210 C 
ATOM     27  C   UNL     1     -29.512  27.922   3.851  0.00  0.00    +0.177 C 
ATOM     28  C   UNL     1     -31.412  28.695   5.045  0.00  0.00    +0.318 C 
BRANCH  24  29
ATOM     29  O   UNL     1     -28.671  27.922   7.503  0.00  0.00    -0.379 OA
ATOM     30  H   UNL     1     -29.031  27.036   7.670  0.00  0.00    +0.211 HD
ENDBRANCH  24  29
BRANCH  25  31
ATOM     31  O   UNL     1     -27.358  27.801   4.930  0.00  0.00    -0.379 OA
ATOM     32  H   UNL     1     -27.008  28.352   5.648  0.00  0.00    +0.211 HD
ENDBRANCH  25  31
BRANCH  26  33
ATOM     33  O   UNL     1     -31.182  29.449   7.308  0.00  0.00    -0.377 OA
ATOM     34  H   UNL     1     -30.463  29.651   7.926  0.00  0.00    +0.211 HD
ENDBRANCH  26  33
BRANCH  27  35
ATOM     35  C   UNL     1     -29.129  26.993   2.703  0.00  0.00    +0.169 C 
BRANCH  35  36
ATOM     36  O   UNL     1     -28.599  25.798   3.248  0.00  0.00    -0.379 OA
ATOM     37  H   UNL     1     -27.768  25.994   3.707  0.00  0.00    +0.211 HD
ENDBRANCH  35  36
ENDBRANCH  27  35
ENDBRANCH  22  28
ENDBRANCH   3  22
TORSDOF 10
ENDMDL
MODEL 9
REMARK VINA RESULT:      -6.5      2.422     10.578
REMARK  Name = 5318267
REMARK  10 active torsions:
REMARK  status: ('A' for Active; 'I' for Inactive)
REMARK    1  A    between atoms: C_3  and  O_22
REMARK    2  A    between atoms: C_10  and  C_12
REMARK    3  A    between atoms: C_15  and  O_20
REMARK    4  A    between atoms: C_17  and  O_18
REMARK    5  A    between atoms: O_22  and  C_28
REMARK    6  A    between atoms: C_24  and  O_29
REMARK    7  A    between atoms: C_25  and  O_31
REMARK    8  A    between atoms: C_26  and  O_33
REMARK    9  A    between atoms: C_27  and  C_35
REMARK   10  A    between atoms: C_35  and  O_36
REMARK                            x       y       z     vdW  Elec       q    Type
REMARK                         _______ _______ _______ _____ _____    ______ ____
ROOT
ATOM      1  O   UNL     1     -35.307  23.411   4.845  0.00  0.00    -0.450 OA
ATOM      2  O   UNL     1     -34.691  23.634   0.817  0.00  0.00    -0.286 OA
ATOM      3  C   UNL     1     -33.510  26.578   4.703  0.00  0.00    +0.144 C 
ATOM      4  C   UNL     1     -34.198  25.467   5.191  0.00  0.00    +0.075 C 
ATOM      5  C   UNL     1     -33.261  26.702   3.334  0.00  0.00    +0.037 C 
ATOM      6  C   UNL     1     -34.636  24.480   4.308  0.00  0.00    +0.151 C 
ATOM      7  C   UNL     1     -34.387  24.603   2.941  0.00  0.00    +0.074 C 
ATOM      8  C   UNL     1     -33.699  25.715   2.450  0.00  0.00    +0.009 C 
ATOM      9  C   UNL     1     -34.864  23.549   2.027  0.00  0.00    +0.202 C 
ATOM     10  C   UNL     1     -35.570  22.398   2.653  0.00  0.00    +0.077 C 
ATOM     11  C   UNL     1     -35.728  22.425   3.985  0.00  0.00    +0.183 C 
ENDROOT
BRANCH  10  12
ATOM     12  C   UNL     1     -36.062  21.260   1.859  0.00  0.00    +0.009 C 
ATOM     13  C   UNL     1     -37.393  21.223   1.438  0.00  0.00    +0.040 C 
ATOM     14  C   UNL     1     -35.199  20.214   1.526  0.00  0.00    +0.004 C 
ATOM     15  C   UNL     1     -37.859  20.144   0.686  0.00  0.00    +0.168 C 
ATOM     16  C   UNL     1     -35.665  19.135   0.774  0.00  0.00    +0.040 C 
ATOM     17  C   UNL     1     -36.995  19.100   0.354  0.00  0.00    +0.172 C 
BRANCH  17  18
ATOM     18  O   UNL     1     -37.437  18.041  -0.380  0.00  0.00    -0.468 OA
ATOM     19  C   UNL     1     -36.490  17.019  -0.679  0.00  0.00    +0.253 C 
ENDBRANCH  17  18
BRANCH  15  20
ATOM     20  O   UNL     1     -39.159  20.121   0.282  0.00  0.00    -0.503 OA
ATOM     21  H   UNL     1     -39.742  20.809   0.538  0.00  0.00    +0.292 HD
ENDBRANCH  15  20
ENDBRANCH  10  12
BRANCH   3  22
ATOM     22  O   UNL     1     -33.080  27.545   5.562  0.00  0.00    -0.450 OA
BRANCH  22  28
ATOM     23  O   UNL     1     -30.844  27.836   6.164  0.00  0.00    -0.316 OA
ATOM     24  C   UNL     1     -30.803  30.486   5.058  0.00  0.00    +0.173 C 
ATOM     25  C   UNL     1     -29.695  29.962   5.972  0.00  0.00    +0.169 C 
ATOM     26  C   UNL     1     -32.102  29.705   5.259  0.00  0.00    +0.210 C 
ATOM     27  C   UNL     1     -29.583  28.438   5.869  0.00  0.00    +0.177 C 
ATOM     28  C   UNL     1     -31.855  28.198   5.227  0.00  0.00    +0.318 C 
BRANCH  24  29
ATOM     29  O   UNL     1     -31.022  31.863   5.373  0.00  0.00    -0.379 OA
ATOM     30  H   UNL     1     -30.338  32.404   4.947  0.00  0.00    +0.211 HD
ENDBRANCH  24  29
BRANCH  25  31
ATOM     31  O   UNL     1     -28.454  30.552   5.594  0.00  0.00    -0.379 OA
ATOM     32  H   UNL     1     -28.619  31.296   4.994  0.00  0.00    +0.211 HD
ENDBRANCH  25  31
BRANCH  26  33
ATOM     33  O   UNL     1     -33.017  30.032   4.214  0.00  0.00    -0.377 OA
ATOM     34  H   UNL     1     -33.818  30.422   4.595  0.00  0.00    +0.211 HD
ENDBRANCH  26  33
BRANCH  27  35
ATOM     35  C   UNL     1     -28.563  27.880   6.857  0.00  0.00    +0.169 C 
BRANCH  35  36
ATOM     36  O   UNL     1     -28.556  28.702   8.010  0.00  0.00    -0.379 OA
ATOM     37  H   UNL     1     -29.102  29.487   7.849  0.00  0.00    +0.211 HD
ENDBRANCH  35  36
ENDBRANCH  27  35
ENDBRANCH  22  28
ENDBRANCH   3  22
TORSDOF 10
ENDMDL
