MODEL 1
REMARK VINA RESULT:      -7.7      0.000      0.000
REMARK  Name = 21122151
REMARK  4 active torsions:
REMARK  status: ('A' for Active; 'I' for Inactive)
REMARK    1  A    between atoms: C_6  and  O_21
REMARK    2  A    between atoms: C_6  and  C_24
REMARK    3  A    between atoms: C_24  and  C_25
REMARK    4  A    between atoms: C_25  and  N_28
REMARK                            x       y       z     vdW  Elec       q    Type
REMARK                         _______ _______ _______ _____ _____    ______ ____
ROOT
ATOM      1  O   UNL     1     -33.670  26.488   6.370  0.00  0.00    -0.291 OA
ATOM      2  C   UNL     1     -37.387  21.436   0.681  0.00  0.00    +0.029 C 
ATOM      3  C   UNL     1     -35.888  21.811   0.743  0.00  0.00    +0.003 C 
ATOM      4  C   UNL     1     -35.645  23.237   1.252  0.00  0.00    +0.001 C 
ATOM      5  C   UNL     1     -36.245  23.374   2.685  0.00  0.00    +0.003 C 
ATOM      6  C   UNL     1     -37.275  20.020   0.057  0.00  0.00    +0.140 C 
ATOM      7  C   UNL     1     -37.939  21.508   2.114  0.00  0.00    +0.003 C 
ATOM      8  C   UNL     1     -36.009  24.801   3.314  0.00  0.00    +0.016 C 
ATOM      9  C   UNL     1     -37.721  22.897   2.742  0.00  0.00    +0.000 C 
ATOM     10  C   UNL     1     -35.369  21.429  -0.640  0.00  0.00    +0.003 C 
ATOM     11  C   UNL     1     -36.172  20.166  -1.016  0.00  0.00    +0.034 C 
ATOM     12  C   UNL     1     -34.149  23.575   1.274  0.00  0.00    +0.004 C 
ATOM     13  C   UNL     1     -38.218  22.367  -0.244  0.00  0.00    +0.003 C 
ATOM     14  C   UNL     1     -34.533  25.190   3.166  0.00  0.00    -0.042 C 
ATOM     15  C   UNL     1     -33.910  24.982   1.805  0.00  0.00    +0.022 C 
ATOM     16  C   UNL     1     -36.394  24.743   4.821  0.00  0.00    +0.012 C 
ATOM     17  C   UNL     1     -36.864  25.887   2.620  0.00  0.00    +0.004 C 
ATOM     18  C   UNL     1     -35.875  25.920   5.630  0.00  0.00    +0.069 C 
ATOM     19  C   UNL     1     -33.790  25.713   4.155  0.00  0.00    +0.029 C 
ATOM     20  C   UNL     1     -34.383  26.049   5.470  0.00  0.00    +0.173 C 
ENDROOT
BRANCH   6  21
ATOM     21  O   UNL     1     -36.865  19.063   1.029  0.00  0.00    -0.380 OA
ATOM     22  H   UNL     1     -37.096  19.383   1.915  0.00  0.00    +0.211 HD
ENDBRANCH   6  21
BRANCH   6  24
ATOM     23  O   UNL     1     -39.645  19.874  -0.023  0.00  0.00    -0.292 OA
ATOM     24  C   UNL     1     -38.569  19.492  -0.487  0.00  0.00    +0.195 C 
BRANCH  24  25
ATOM     25  C   UNL     1     -38.547  18.483  -1.617  0.00  0.00    +0.166 C 
BRANCH  25  28
ATOM     26  O   UNL     1     -36.758  16.620  -0.411  0.00  0.00    -0.252 OA
ATOM     27  O   UNL     1     -40.056  13.435  -0.031  0.00  0.00    -0.270 OA
ATOM     28  N   UNL     1     -38.893  17.162  -1.189  0.00  0.00    -0.235 N 
ATOM     29  N   UNL     1     -38.412  15.041  -0.228  0.00  0.00    -0.236 N 
ATOM     30  C   UNL     1     -40.203  16.723  -1.364  0.00  0.00    +0.070 C 
ATOM     31  C   UNL     1     -37.935  16.303  -0.598  0.00  0.00    +0.314 C 
ATOM     32  C   UNL     1     -40.655  15.514  -1.009  0.00  0.00    +0.047 C 
ATOM     33  C   UNL     1     -39.703  14.559  -0.381  0.00  0.00    +0.250 C 
ATOM     34  C   UNL     1     -42.069  15.068  -1.208  0.00  0.00    +0.037 C 
ATOM     35  H   UNL     1     -37.761  14.429   0.185  0.00  0.00    +0.159 HD
ENDBRANCH  25  28
ENDBRANCH  24  25
ENDBRANCH   6  24
TORSDOF 4
ENDMDL
MODEL 2
REMARK VINA RESULT:      -7.6      5.006      8.061
REMARK  Name = 21122151
REMARK  4 active torsions:
REMARK  status: ('A' for Active; 'I' for Inactive)
REMARK    1  A    between atoms: C_6  and  O_21
REMARK    2  A    between atoms: C_6  and  C_24
REMARK    3  A    between atoms: C_24  and  C_25
REMARK    4  A    between atoms: C_25  and  N_28
REMARK                            x       y       z     vdW  Elec       q    Type
REMARK                         _______ _______ _______ _____ _____    ______ ____
ROOT
ATOM      1  O   UNL     1     -27.587  18.430   0.136  0.00  0.00    -0.291 OA
ATOM      2  C   UNL     1     -35.251  21.995   0.650  0.00  0.00    +0.029 C 
ATOM      3  C   UNL     1     -34.718  20.824   1.507  0.00  0.00    +0.003 C 
ATOM      4  C   UNL     1     -33.763  19.902   0.740  0.00  0.00    +0.001 C 
ATOM      5  C   UNL     1     -32.544  20.737   0.239  0.00  0.00    +0.003 C 
ATOM      6  C   UNL     1     -36.224  22.642   1.670  0.00  0.00    +0.140 C 
ATOM      7  C   UNL     1     -34.041  22.844   0.228  0.00  0.00    +0.003 C 
ATOM      8  C   UNL     1     -31.480  19.865  -0.532  0.00  0.00    +0.016 C 
ATOM      9  C   UNL     1     -32.992  22.009  -0.530  0.00  0.00    +0.000 C 
ATOM     10  C   UNL     1     -35.983  20.224   2.115  0.00  0.00    +0.003 C 
ATOM     11  C   UNL     1     -36.903  21.438   2.361  0.00  0.00    +0.034 C 
ATOM     12  C   UNL     1     -33.279  18.742   1.619  0.00  0.00    +0.004 C 
ATOM     13  C   UNL     1     -36.027  21.532  -0.614  0.00  0.00    +0.003 C 
ATOM     14  C   UNL     1     -31.142  18.618   0.294  0.00  0.00    -0.042 C 
ATOM     15  C   UNL     1     -32.309  17.844   0.861  0.00  0.00    +0.022 C 
ATOM     16  C   UNL     1     -30.200  20.726  -0.741  0.00  0.00    +0.012 C 
ATOM     17  C   UNL     1     -32.002  19.402  -1.912  0.00  0.00    +0.004 C 
ATOM     18  C   UNL     1     -28.975  19.915  -1.130  0.00  0.00    +0.069 C 
ATOM     19  C   UNL     1     -29.892  18.178   0.515  0.00  0.00    +0.029 C 
ATOM     20  C   UNL     1     -28.723  18.829  -0.117  0.00  0.00    +0.173 C 
ENDROOT
BRANCH   6  21
ATOM     21  O   UNL     1     -35.514  23.405   2.641  0.00  0.00    -0.380 OA
ATOM     22  H   UNL     1     -34.732  22.910   2.932  0.00  0.00    +0.211 HD
ENDBRANCH   6  21
BRANCH   6  24
ATOM     23  O   UNL     1     -36.797  24.617   0.480  0.00  0.00    -0.292 OA
ATOM     24  C   UNL     1     -37.198  23.603   1.056  0.00  0.00    +0.195 C 
BRANCH  24  25
ATOM     25  C   UNL     1     -38.683  23.320   1.145  0.00  0.00    +0.166 C 
BRANCH  25  28
ATOM     26  O   UNL     1     -38.210  24.224   3.807  0.00  0.00    -0.252 OA
ATOM     27  O   UNL     1     -41.576  27.346   3.532  0.00  0.00    -0.270 OA
ATOM     28  N   UNL     1     -39.408  24.362   1.807  0.00  0.00    -0.235 N 
ATOM     29  N   UNL     1     -39.892  25.776   3.657  0.00  0.00    -0.236 N 
ATOM     30  C   UNL     1     -40.434  25.005   1.120  0.00  0.00    +0.070 C 
ATOM     31  C   UNL     1     -39.102  24.745   3.135  0.00  0.00    +0.314 C 
ATOM     32  C   UNL     1     -41.188  25.991   1.622  0.00  0.00    +0.047 C 
ATOM     33  C   UNL     1     -40.922  26.445   3.013  0.00  0.00    +0.250 C 
ATOM     34  C   UNL     1     -42.285  26.664   0.860  0.00  0.00    +0.037 C 
ATOM     35  H   UNL     1     -39.695  26.057   4.579  0.00  0.00    +0.159 HD
ENDBRANCH  25  28
ENDBRANCH  24  25
ENDBRANCH   6  24
TORSDOF 4
ENDMDL
MODEL 3
REMARK VINA RESULT:      -7.6      3.971      8.407
REMARK  Name = 21122151
REMARK  4 active torsions:
REMARK  status: ('A' for Active; 'I' for Inactive)
REMARK    1  A    between atoms: C_6  and  O_21
REMARK    2  A    between atoms: C_6  and  C_24
REMARK    3  A    between atoms: C_24  and  C_25
REMARK    4  A    between atoms: C_25  and  N_28
REMARK                            x       y       z     vdW  Elec       q    Type
REMARK                         _______ _______ _______ _____ _____    ______ ____
ROOT
ATOM      1  O   UNL     1     -30.694  15.144   0.374  0.00  0.00    -0.291 OA
ATOM      2  C   UNL     1     -36.541  21.267   0.545  0.00  0.00    +0.029 C 
ATOM      3  C   UNL     1     -36.721  19.833  -0.005  0.00  0.00    +0.003 C 
ATOM      4  C   UNL     1     -35.448  19.270  -0.647  0.00  0.00    +0.001 C 
ATOM      5  C   UNL     1     -34.309  19.247   0.418  0.00  0.00    +0.003 C 
ATOM      6  C   UNL     1     -37.991  21.549   1.017  0.00  0.00    +0.140 C 
ATOM      7  C   UNL     1     -35.466  21.206   1.643  0.00  0.00    +0.003 C 
ATOM      8  C   UNL     1     -32.962  18.644  -0.138  0.00  0.00    +0.016 C 
ATOM      9  C   UNL     1     -34.142  20.624   1.116  0.00  0.00    +0.000 C 
ATOM     10  C   UNL     1     -37.985  19.935  -0.854  0.00  0.00    +0.003 C 
ATOM     11  C   UNL     1     -38.875  20.943  -0.097  0.00  0.00    +0.034 C 
ATOM     12  C   UNL     1     -35.678  17.858  -1.201  0.00  0.00    +0.004 C 
ATOM     13  C   UNL     1     -36.119  22.296  -0.540  0.00  0.00    +0.003 C 
ATOM     14  C   UNL     1     -33.248  17.312  -0.842  0.00  0.00    -0.042 C 
ATOM     15  C   UNL     1     -34.403  17.293  -1.814  0.00  0.00    +0.022 C 
ATOM     16  C   UNL     1     -31.995  18.415   1.060  0.00  0.00    +0.012 C 
ATOM     17  C   UNL     1     -32.282  19.590  -1.155  0.00  0.00    +0.004 C 
ATOM     18  C   UNL     1     -30.821  17.508   0.733  0.00  0.00    +0.069 C 
ATOM     19  C   UNL     1     -32.525  16.194  -0.658  0.00  0.00    +0.029 C 
ATOM     20  C   UNL     1     -31.311  16.191   0.191  0.00  0.00    +0.173 C 
ENDROOT
BRANCH   6  21
ATOM     21  O   UNL     1     -38.266  20.889   2.249  0.00  0.00    -0.380 OA
ATOM     22  H   UNL     1     -39.059  21.276   2.653  0.00  0.00    +0.211 HD
ENDBRANCH   6  21
BRANCH   6  24
ATOM     23  O   UNL     1     -38.062  23.844   0.409  0.00  0.00    -0.292 OA
ATOM     24  C   UNL     1     -38.275  22.997   1.279  0.00  0.00    +0.195 C 
BRANCH  24  25
ATOM     25  C   UNL     1     -38.830  23.418   2.625  0.00  0.00    +0.166 C 
BRANCH  25  28
ATOM     26  O   UNL     1     -38.929  26.249   2.944  0.00  0.00    -0.252 OA
ATOM     27  O   UNL     1     -35.176  26.256   5.603  0.00  0.00    -0.270 OA
ATOM     28  N   UNL     1     -37.903  24.198   3.388  0.00  0.00    -0.235 N 
ATOM     29  N   UNL     1     -37.056  26.238   4.268  0.00  0.00    -0.236 N 
ATOM     30  C   UNL     1     -36.858  23.549   4.039  0.00  0.00    +0.070 C 
ATOM     31  C   UNL     1     -38.032  25.604   3.490  0.00  0.00    +0.314 C 
ATOM     32  C   UNL     1     -35.926  24.159   4.782  0.00  0.00    +0.047 C 
ATOM     33  C   UNL     1     -35.999  25.637   4.934  0.00  0.00    +0.250 C 
ATOM     34  C   UNL     1     -34.813  23.436   5.471  0.00  0.00    +0.037 C 
ATOM     35  H   UNL     1     -37.128  27.216   4.351  0.00  0.00    +0.159 HD
ENDBRANCH  25  28
ENDBRANCH  24  25
ENDBRANCH   6  24
TORSDOF 4
ENDMDL
MODEL 4
REMARK VINA RESULT:      -7.5      6.088      9.291
REMARK  Name = 21122151
REMARK  4 active torsions:
REMARK  status: ('A' for Active; 'I' for Inactive)
REMARK    1  A    between atoms: C_6  and  O_21
REMARK    2  A    between atoms: C_6  and  C_24
REMARK    3  A    between atoms: C_24  and  C_25
REMARK    4  A    between atoms: C_25  and  N_28
REMARK                            x       y       z     vdW  Elec       q    Type
REMARK                         _______ _______ _______ _____ _____    ______ ____
ROOT
ATOM      1  O   UNL     1     -37.216  36.691   0.830  0.00  0.00    -0.291 OA
ATOM      2  C   UNL     1     -34.601  28.721   1.984  0.00  0.00    +0.029 C 
ATOM      3  C   UNL     1     -34.054  29.983   2.690  0.00  0.00    +0.003 C 
ATOM      4  C   UNL     1     -34.071  31.229   1.795  0.00  0.00    +0.001 C 
ATOM      5  C   UNL     1     -35.539  31.512   1.348  0.00  0.00    +0.003 C 
ATOM      6  C   UNL     1     -34.356  27.672   3.100  0.00  0.00    +0.140 C 
ATOM      7  C   UNL     1     -36.068  28.997   1.618  0.00  0.00    +0.003 C 
ATOM      8  C   UNL     1     -35.666  32.804   0.452  0.00  0.00    +0.016 C 
ATOM      9  C   UNL     1     -36.211  30.254   0.738  0.00  0.00    +0.000 C 
ATOM     10  C   UNL     1     -32.722  29.517   3.270  0.00  0.00    +0.003 C 
ATOM     11  C   UNL     1     -32.973  28.051   3.678  0.00  0.00    +0.034 C 
ATOM     12  C   UNL     1     -33.498  32.450   2.526  0.00  0.00    +0.004 C 
ATOM     13  C   UNL     1     -33.808  28.338   0.704  0.00  0.00    +0.003 C 
ATOM     14  C   UNL     1     -34.934  33.971   1.126  0.00  0.00    -0.042 C 
ATOM     15  C   UNL     1     -33.542  33.690   1.643  0.00  0.00    +0.022 C 
ATOM     16  C   UNL     1     -37.177  33.145   0.296  0.00  0.00    +0.012 C 
ATOM     17  C   UNL     1     -35.053  32.596  -0.952  0.00  0.00    +0.004 C 
ATOM     18  C   UNL     1     -37.436  34.551  -0.219  0.00  0.00    +0.069 C 
ATOM     19  C   UNL     1     -35.446  35.206   1.255  0.00  0.00    +0.029 C 
ATOM     20  C   UNL     1     -36.753  35.565   0.660  0.00  0.00    +0.173 C 
ENDROOT
BRANCH   6  21
ATOM     21  O   UNL     1     -35.340  27.776   4.125  0.00  0.00    -0.380 OA
ATOM     22  H   UNL     1     -36.018  27.095   3.992  0.00  0.00    +0.211 HD
ENDBRANCH   6  21
BRANCH   6  24
ATOM     23  O   UNL     1     -33.434  25.682   2.185  0.00  0.00    -0.292 OA
ATOM     24  C   UNL     1     -34.435  26.251   2.628  0.00  0.00    +0.195 C 
BRANCH  24  25
ATOM     25  C   UNL     1     -35.756  25.513   2.699  0.00  0.00    +0.166 C 
BRANCH  25  28
ATOM     26  O   UNL     1     -36.009  25.503   5.539  0.00  0.00    -0.252 OA
ATOM     27  O   UNL     1     -35.505  20.935   5.741  0.00  0.00    -0.270 OA
ATOM     28  N   UNL     1     -35.697  24.349   3.531  0.00  0.00    -0.235 N 
ATOM     29  N   UNL     1     -35.756  23.224   5.625  0.00  0.00    -0.236 N 
ATOM     30  C   UNL     1     -35.501  23.108   2.933  0.00  0.00    +0.070 C 
ATOM     31  C   UNL     1     -35.834  24.440   4.937  0.00  0.00    +0.314 C 
ATOM     32  C   UNL     1     -35.427  21.946   3.595  0.00  0.00    +0.047 C 
ATOM     33  C   UNL     1     -35.563  21.966   5.076  0.00  0.00    +0.250 C 
ATOM     34  C   UNL     1     -35.216  20.625   2.926  0.00  0.00    +0.037 C 
ATOM     35  H   UNL     1     -35.848  23.267   6.604  0.00  0.00    +0.159 HD
ENDBRANCH  25  28
ENDBRANCH  24  25
ENDBRANCH   6  24
TORSDOF 4
ENDMDL
MODEL 5
REMARK VINA RESULT:      -7.5      4.064      8.744
REMARK  Name = 21122151
REMARK  4 active torsions:
REMARK  status: ('A' for Active; 'I' for Inactive)
REMARK    1  A    between atoms: C_6  and  O_21
REMARK    2  A    between atoms: C_6  and  C_24
REMARK    3  A    between atoms: C_24  and  C_25
REMARK    4  A    between atoms: C_25  and  N_28
REMARK                            x       y       z     vdW  Elec       q    Type
REMARK                         _______ _______ _______ _____ _____    ______ ____
ROOT
ATOM      1  O   UNL     1     -31.637  15.640   0.398  0.00  0.00    -0.291 OA
ATOM      2  C   UNL     1     -36.716  22.360   1.258  0.00  0.00    +0.029 C 
ATOM      3  C   UNL     1     -37.155  20.891   1.060  0.00  0.00    +0.003 C 
ATOM      4  C   UNL     1     -36.197  20.091   0.168  0.00  0.00    +0.001 C 
ATOM      5  C   UNL     1     -34.777  20.097   0.814  0.00  0.00    +0.003 C 
ATOM      6  C   UNL     1     -37.914  22.878   2.096  0.00  0.00    +0.140 C 
ATOM      7  C   UNL     1     -35.349  22.341   1.961  0.00  0.00    +0.003 C 
ATOM      8  C   UNL     1     -33.725  19.263  -0.013  0.00  0.00    +0.016 C 
ATOM      9  C   UNL     1     -34.307  21.534   1.165  0.00  0.00    +0.000 C 
ATOM     10  C   UNL     1     -38.617  21.009   0.641  0.00  0.00    +0.003 C 
ATOM     11  C   UNL     1     -39.148  22.218   1.440  0.00  0.00    +0.034 C 
ATOM     12  C   UNL     1     -36.682  18.648  -0.022  0.00  0.00    +0.004 C 
ATOM     13  C   UNL     1     -36.607  23.156  -0.072  0.00  0.00    +0.003 C 
ATOM     14  C   UNL     1     -34.306  17.882  -0.339  0.00  0.00    -0.042 C 
ATOM     15  C   UNL     1     -35.714  17.851  -0.886  0.00  0.00    +0.022 C 
ATOM     16  C   UNL     1     -32.438  19.107   0.848  0.00  0.00    +0.012 C 
ATOM     17  C   UNL     1     -33.355  19.957  -1.344  0.00  0.00    +0.004 C 
ATOM     18  C   UNL     1     -31.492  18.029   0.344  0.00  0.00    +0.069 C 
ATOM     19  C   UNL     1     -33.634  16.728  -0.189  0.00  0.00    +0.029 C 
ATOM     20  C   UNL     1     -32.214  16.712   0.228  0.00  0.00    +0.173 C 
ENDROOT
BRANCH   6  21
ATOM     21  O   UNL     1     -37.814  22.450   3.451  0.00  0.00    -0.380 OA
ATOM     22  H   UNL     1     -37.667  23.219   4.023  0.00  0.00    +0.211 HD
ENDBRANCH   6  21
BRANCH   6  24
ATOM     23  O   UNL     1     -38.177  25.038   1.142  0.00  0.00    -0.292 OA
ATOM     24  C   UNL     1     -38.006  24.373   2.166  0.00  0.00    +0.195 C 
BRANCH  24  25
ATOM     25  C   UNL     1     -37.890  25.066   3.508  0.00  0.00    +0.166 C 
BRANCH  25  28
ATOM     26  O   UNL     1     -36.182  23.762   5.381  0.00  0.00    -0.252 OA
ATOM     27  O   UNL     1     -32.748  26.712   4.570  0.00  0.00    -0.270 OA
ATOM     28  N   UNL     1     -36.548  25.457   3.817  0.00  0.00    -0.235 N 
ATOM     29  N   UNL     1     -34.478  25.241   4.967  0.00  0.00    -0.236 N 
ATOM     30  C   UNL     1     -36.005  26.561   3.165  0.00  0.00    +0.070 C 
ATOM     31  C   UNL     1     -35.772  24.747   4.764  0.00  0.00    +0.314 C 
ATOM     32  C   UNL     1     -34.767  27.031   3.362  0.00  0.00    +0.047 C 
ATOM     33  C   UNL     1     -33.894  26.333   4.344  0.00  0.00    +0.250 C 
ATOM     34  C   UNL     1     -34.210  28.220   2.647  0.00  0.00    +0.037 C 
ATOM     35  H   UNL     1     -33.923  24.761   5.623  0.00  0.00    +0.159 HD
ENDBRANCH  25  28
ENDBRANCH  24  25
ENDBRANCH   6  24
TORSDOF 4
ENDMDL
MODEL 6
REMARK VINA RESULT:      -7.4      3.778      6.732
REMARK  Name = 21122151
REMARK  4 active torsions:
REMARK  status: ('A' for Active; 'I' for Inactive)
REMARK    1  A    between atoms: C_6  and  O_21
REMARK    2  A    between atoms: C_6  and  C_24
REMARK    3  A    between atoms: C_24  and  C_25
REMARK    4  A    between atoms: C_25  and  N_28
REMARK                            x       y       z     vdW  Elec       q    Type
REMARK                         _______ _______ _______ _____ _____    ______ ____
ROOT
ATOM      1  O   UNL     1     -30.491  33.197   3.760  0.00  0.00    -0.291 OA
ATOM      2  C   UNL     1     -34.873  25.962   3.348  0.00  0.00    +0.029 C 
ATOM      3  C   UNL     1     -34.327  26.639   4.626  0.00  0.00    +0.003 C 
ATOM      4  C   UNL     1     -32.996  27.367   4.401  0.00  0.00    +0.001 C 
ATOM      5  C   UNL     1     -33.196  28.465   3.311  0.00  0.00    +0.003 C 
ATOM      6  C   UNL     1     -36.127  25.266   3.938  0.00  0.00    +0.140 C 
ATOM      7  C   UNL     1     -35.130  27.071   2.315  0.00  0.00    +0.003 C 
ATOM      8  C   UNL     1     -31.887  29.300   3.035  0.00  0.00    +0.016 C 
ATOM      9  C   UNL     1     -33.861  27.894   2.030  0.00  0.00    +0.000 C 
ATOM     10  C   UNL     1     -34.385  25.528   5.670  0.00  0.00    +0.003 C 
ATOM     11  C   UNL     1     -35.651  24.725   5.305  0.00  0.00    +0.034 C 
ATOM     12  C   UNL     1     -32.479  28.002   5.698  0.00  0.00    +0.004 C 
ATOM     13  C   UNL     1     -33.904  24.906   2.748  0.00  0.00    +0.003 C 
ATOM     14  C   UNL     1     -31.293  29.778   4.366  0.00  0.00    -0.042 C 
ATOM     15  C   UNL     1     -31.171  28.747   5.463  0.00  0.00    +0.022 C 
ATOM     16  C   UNL     1     -32.264  30.525   2.152  0.00  0.00    +0.012 C 
ATOM     17  C   UNL     1     -30.813  28.465   2.300  0.00  0.00    +0.004 C 
ATOM     18  C   UNL     1     -31.194  31.605   2.116  0.00  0.00    +0.069 C 
ATOM     19  C   UNL     1     -30.864  31.031   4.592  0.00  0.00    +0.029 C 
ATOM     20  C   UNL     1     -30.849  32.046   3.514  0.00  0.00    +0.173 C 
ENDROOT
BRANCH   6  21
ATOM     21  O   UNL     1     -37.182  26.201   4.142  0.00  0.00    -0.380 OA
ATOM     22  H   UNL     1     -37.004  26.721   4.942  0.00  0.00    +0.211 HD
ENDBRANCH   6  21
BRANCH   6  24
ATOM     23  O   UNL     1     -36.943  24.448   1.862  0.00  0.00    -0.292 OA
ATOM     24  C   UNL     1     -36.710  24.209   3.050  0.00  0.00    +0.195 C 
BRANCH  24  25
ATOM     25  C   UNL     1     -37.011  22.838   3.619  0.00  0.00    +0.166 C 
BRANCH  25  28
ATOM     26  O   UNL     1     -39.082  21.783   1.968  0.00  0.00    -0.252 OA
ATOM     27  O   UNL     1     -36.208  18.799  -0.030  0.00  0.00    -0.270 OA
ATOM     28  N   UNL     1     -36.850  21.789   2.657  0.00  0.00    -0.235 N 
ATOM     29  N   UNL     1     -37.638  20.299   0.980  0.00  0.00    -0.236 N 
ATOM     30  C   UNL     1     -35.591  21.219   2.493  0.00  0.00    +0.070 C 
ATOM     31  C   UNL     1     -37.939  21.328   1.879  0.00  0.00    +0.314 C 
ATOM     32  C   UNL     1     -35.306  20.234   1.632  0.00  0.00    +0.047 C 
ATOM     33  C   UNL     1     -36.403  19.700   0.781  0.00  0.00    +0.250 C 
ATOM     34  C   UNL     1     -33.943  19.639   1.477  0.00  0.00    +0.037 C 
ATOM     35  H   UNL     1     -38.382  19.965   0.430  0.00  0.00    +0.159 HD
ENDBRANCH  25  28
ENDBRANCH  24  25
ENDBRANCH   6  24
TORSDOF 4
ENDMDL
MODEL 7
REMARK VINA RESULT:      -7.3      8.198     11.618
REMARK  Name = 21122151
REMARK  4 active torsions:
REMARK  status: ('A' for Active; 'I' for Inactive)
REMARK    1  A    between atoms: C_6  and  O_21
REMARK    2  A    between atoms: C_6  and  C_24
REMARK    3  A    between atoms: C_24  and  C_25
REMARK    4  A    between atoms: C_25  and  N_28
REMARK                            x       y       z     vdW  Elec       q    Type
REMARK                         _______ _______ _______ _____ _____    ______ ____
ROOT
ATOM      1  O   UNL     1     -34.627  39.989   0.984  0.00  0.00    -0.291 OA
ATOM      2  C   UNL     1     -34.588  31.557   1.756  0.00  0.00    +0.029 C 
ATOM      3  C   UNL     1     -33.649  32.554   2.473  0.00  0.00    +0.003 C 
ATOM      4  C   UNL     1     -33.310  33.782   1.620  0.00  0.00    +0.001 C 
ATOM      5  C   UNL     1     -34.631  34.527   1.256  0.00  0.00    +0.003 C 
ATOM      6  C   UNL     1     -34.641  30.434   2.826  0.00  0.00    +0.140 C 
ATOM      7  C   UNL     1     -35.909  32.291   1.472  0.00  0.00    +0.003 C 
ATOM      8  C   UNL     1     -34.383  35.834   0.408  0.00  0.00    +0.016 C 
ATOM      9  C   UNL     1     -35.686  33.568   0.641  0.00  0.00    +0.000 C 
ATOM     10  C   UNL     1     -32.508  31.672   2.972  0.00  0.00    +0.003 C 
ATOM     11  C   UNL     1     -33.189  30.339   3.345  0.00  0.00    +0.034 C 
ATOM     12  C   UNL     1     -32.358  34.731   2.359  0.00  0.00    +0.004 C 
ATOM     13  C   UNL     1     -34.003  31.005   0.427  0.00  0.00    +0.003 C 
ATOM     14  C   UNL     1     -33.298  36.684   1.080  0.00  0.00    -0.042 C 
ATOM     15  C   UNL     1     -32.046  35.962   1.519  0.00  0.00    +0.022 C 
ATOM     16  C   UNL     1     -35.717  36.633   0.338  0.00  0.00    +0.012 C 
ATOM     17  C   UNL     1     -33.918  35.510  -1.031  0.00  0.00    +0.004 C 
ATOM     18  C   UNL     1     -35.543  38.072  -0.120  0.00  0.00    +0.069 C 
ATOM     19  C   UNL     1     -33.394  38.010   1.274  0.00  0.00    +0.029 C 
ATOM     20  C   UNL     1     -34.545  38.783   0.755  0.00  0.00    +0.173 C 
ENDROOT
BRANCH   6  21
ATOM     21  O   UNL     1     -35.504  30.792   3.901  0.00  0.00    -0.380 OA
ATOM     22  H   UNL     1     -35.026  30.711   4.741  0.00  0.00    +0.211 HD
ENDBRANCH   6  21
BRANCH   6  24
ATOM     23  O   UNL     1     -36.334  29.053   1.892  0.00  0.00    -0.292 OA
ATOM     24  C   UNL     1     -35.177  29.131   2.314  0.00  0.00    +0.195 C 
BRANCH  24  25
ATOM     25  C   UNL     1     -34.287  27.906   2.314  0.00  0.00    +0.166 C 
BRANCH  25  28
ATOM     26  O   UNL     1     -33.572  27.411   5.029  0.00  0.00    -0.252 OA
ATOM     27  O   UNL     1     -36.374  23.773   5.287  0.00  0.00    -0.270 OA
ATOM     28  N   UNL     1     -34.803  26.845   3.126  0.00  0.00    -0.235 N 
ATOM     29  N   UNL     1     -34.973  25.599   5.143  0.00  0.00    -0.236 N 
ATOM     30  C   UNL     1     -35.730  25.967   2.572  0.00  0.00    +0.070 C 
ATOM     31  C   UNL     1     -34.389  26.676   4.469  0.00  0.00    +0.314 C 
ATOM     32  C   UNL     1     -36.287  24.937   3.220  0.00  0.00    +0.047 C 
ATOM     33  C   UNL     1     -35.899  24.699   4.636  0.00  0.00    +0.250 C 
ATOM     34  C   UNL     1     -37.282  24.009   2.599  0.00  0.00    +0.037 C 
ATOM     35  H   UNL     1     -34.698  25.464   6.079  0.00  0.00    +0.159 HD
ENDBRANCH  25  28
ENDBRANCH  24  25
ENDBRANCH   6  24
TORSDOF 4
ENDMDL
MODEL 8
REMARK VINA RESULT:      -7.3      4.380      9.013
REMARK  Name = 21122151
REMARK  4 active torsions:
REMARK  status: ('A' for Active; 'I' for Inactive)
REMARK    1  A    between atoms: C_6  and  O_21
REMARK    2  A    between atoms: C_6  and  C_24
REMARK    3  A    between atoms: C_24  and  C_25
REMARK    4  A    between atoms: C_25  and  N_28
REMARK                            x       y       z     vdW  Elec       q    Type
REMARK                         _______ _______ _______ _____ _____    ______ ____
ROOT
ATOM      1  O   UNL     1     -31.709  15.146  -1.873  0.00  0.00    -0.291 OA
ATOM      2  C   UNL     1     -35.857  21.635   1.647  0.00  0.00    +0.029 C 
ATOM      3  C   UNL     1     -36.071  21.064   0.227  0.00  0.00    +0.003 C 
ATOM      4  C   UNL     1     -34.780  20.541  -0.414  0.00  0.00    +0.001 C 
ATOM      5  C   UNL     1     -34.188  19.412   0.485  0.00  0.00    +0.003 C 
ATOM      6  C   UNL     1     -37.292  22.142   1.943  0.00  0.00    +0.140 C 
ATOM      7  C   UNL     1     -35.342  20.488   2.532  0.00  0.00    +0.003 C 
ATOM      8  C   UNL     1     -32.872  18.780  -0.113  0.00  0.00    +0.016 C 
ATOM      9  C   UNL     1     -34.055  19.861   1.965  0.00  0.00    +0.000 C 
ATOM     10  C   UNL     1     -36.847  22.167  -0.487  0.00  0.00    +0.003 C 
ATOM     11  C   UNL     1     -37.756  22.766   0.607  0.00  0.00    +0.034 C 
ATOM     12  C   UNL     1     -35.034  20.007  -1.830  0.00  0.00    +0.004 C 
ATOM     13  C   UNL     1     -34.849  22.818   1.691  0.00  0.00    +0.003 C 
ATOM     14  C   UNL     1     -33.102  18.413  -1.584  0.00  0.00    -0.042 C 
ATOM     15  C   UNL     1     -33.754  19.465  -2.451  0.00  0.00    +0.022 C 
ATOM     16  C   UNL     1     -32.528  17.501   0.705  0.00  0.00    +0.012 C 
ATOM     17  C   UNL     1     -31.677  19.758  -0.041  0.00  0.00    +0.004 C 
ATOM     18  C   UNL     1     -31.516  16.594   0.023  0.00  0.00    +0.069 C 
ATOM     19  C   UNL     1     -32.740  17.241  -2.133  0.00  0.00    +0.029 C 
ATOM     20  C   UNL     1     -31.990  16.226  -1.358  0.00  0.00    +0.173 C 
ENDROOT
BRANCH   6  21
ATOM     21  O   UNL     1     -38.156  21.063   2.285  0.00  0.00    -0.380 OA
ATOM     22  H   UNL     1     -38.593  20.733   1.484  0.00  0.00    +0.211 HD
ENDBRANCH   6  21
BRANCH   6  24
ATOM     23  O   UNL     1     -36.970  22.751   4.217  0.00  0.00    -0.292 OA
ATOM     24  C   UNL     1     -37.375  23.089   3.102  0.00  0.00    +0.195 C 
BRANCH  24  25
ATOM     25  C   UNL     1     -37.960  24.472   2.897  0.00  0.00    +0.166 C 
BRANCH  25  28
ATOM     26  O   UNL     1     -37.754  26.817   1.289  0.00  0.00    -0.252 OA
ATOM     27  O   UNL     1     -34.178  28.382   3.721  0.00  0.00    -0.270 OA
ATOM     28  N   UNL     1     -36.994  25.514   3.073  0.00  0.00    -0.235 N 
ATOM     29  N   UNL     1     -35.971  27.585   2.510  0.00  0.00    -0.236 N 
ATOM     30  C   UNL     1     -36.067  25.401   4.105  0.00  0.00    +0.070 C 
ATOM     31  C   UNL     1     -36.968  26.646   2.223  0.00  0.00    +0.314 C 
ATOM     32  C   UNL     1     -35.114  26.302   4.377  0.00  0.00    +0.047 C 
ATOM     33  C   UNL     1     -35.027  27.518   3.524  0.00  0.00    +0.250 C 
ATOM     34  C   UNL     1     -34.130  26.154   5.493  0.00  0.00    +0.037 C 
ATOM     35  H   UNL     1     -35.936  28.380   1.930  0.00  0.00    +0.159 HD
ENDBRANCH  25  28
ENDBRANCH  24  25
ENDBRANCH   6  24
TORSDOF 4
ENDMDL
MODEL 9
REMARK VINA RESULT:      -7.2      4.394      9.339
REMARK  Name = 21122151
REMARK  4 active torsions:
REMARK  status: ('A' for Active; 'I' for Inactive)
REMARK    1  A    between atoms: C_6  and  O_21
REMARK    2  A    between atoms: C_6  and  C_24
REMARK    3  A    between atoms: C_24  and  C_25
REMARK    4  A    between atoms: C_25  and  N_28
REMARK                            x       y       z     vdW  Elec       q    Type
REMARK                         _______ _______ _______ _____ _____    ______ ____
ROOT
ATOM      1  O   UNL     1     -30.784  13.640  -2.100  0.00  0.00    -0.291 OA
ATOM      2  C   UNL     1     -35.029  20.251   1.059  0.00  0.00    +0.029 C 
ATOM      3  C   UNL     1     -35.529  19.262  -0.019  0.00  0.00    +0.003 C 
ATOM      4  C   UNL     1     -34.411  18.754  -0.937  0.00  0.00    +0.001 C 
ATOM      5  C   UNL     1     -33.332  18.033  -0.071  0.00  0.00    +0.003 C 
ATOM      6  C   UNL     1     -36.383  20.622   1.719  0.00  0.00    +0.140 C 
ATOM      7  C   UNL     1     -34.023  19.496   1.944  0.00  0.00    +0.003 C 
ATOM      8  C   UNL     1     -32.153  17.438  -0.933  0.00  0.00    +0.016 C 
ATOM      9  C   UNL     1     -32.861  18.912   1.118  0.00  0.00    +0.000 C 
ATOM     10  C   UNL     1     -36.716  19.990  -0.645  0.00  0.00    +0.003 C 
ATOM     11  C   UNL     1     -37.360  20.755   0.530  0.00  0.00    +0.034 C 
ATOM     12  C   UNL     1     -34.954  17.798  -2.005  0.00  0.00    +0.004 C 
ATOM     13  C   UNL     1     -34.354  21.519   0.468  0.00  0.00    +0.003 C 
ATOM     14  C   UNL     1     -32.729  16.625  -2.100  0.00  0.00    -0.042 C 
ATOM     15  C   UNL     1     -33.836  17.275  -2.897  0.00  0.00    +0.022 C 
ATOM     16  C   UNL     1     -31.294  16.517  -0.018  0.00  0.00    +0.012 C 
ATOM     17  C   UNL     1     -31.248  18.546  -1.518  0.00  0.00    +0.004 C 
ATOM     18  C   UNL     1     -30.359  15.595  -0.785  0.00  0.00    +0.069 C 
ATOM     19  C   UNL     1     -32.294  15.405  -2.454  0.00  0.00    +0.029 C 
ATOM     20  C   UNL     1     -31.133  14.776  -1.783  0.00  0.00    +0.173 C 
ENDROOT
BRANCH   6  21
ATOM     21  O   UNL     1     -36.831  19.584   2.586  0.00  0.00    -0.380 OA
ATOM     22  H   UNL     1     -36.251  18.812   2.492  0.00  0.00    +0.211 HD
ENDBRANCH   6  21
BRANCH   6  24
ATOM     23  O   UNL     1     -35.702  21.835   3.646  0.00  0.00    -0.292 OA
ATOM     24  C   UNL     1     -36.323  21.848   2.580  0.00  0.00    +0.195 C 
BRANCH  24  25
ATOM     25  C   UNL     1     -37.030  23.111   2.132  0.00  0.00    +0.166 C 
BRANCH  25  28
ATOM     26  O   UNL     1     -38.220  24.759   4.130  0.00  0.00    -0.252 OA
ATOM     27  O   UNL     1     -34.641  27.649   4.125  0.00  0.00    -0.270 OA
ATOM     28  N   UNL     1     -36.448  24.298   2.680  0.00  0.00    -0.235 N 
ATOM     29  N   UNL     1     -36.429  26.192   4.117  0.00  0.00    -0.236 N 
ATOM     30  C   UNL     1     -35.200  24.706   2.219  0.00  0.00    +0.070 C 
ATOM     31  C   UNL     1     -37.114  25.056   3.673  0.00  0.00    +0.314 C 
ATOM     32  C   UNL     1     -34.547  25.794   2.646  0.00  0.00    +0.047 C 
ATOM     33  C   UNL     1     -35.188  26.639   3.690  0.00  0.00    +0.250 C 
ATOM     34  C   UNL     1     -33.205  26.209   2.132  0.00  0.00    +0.037 C 
ATOM     35  H   UNL     1     -36.876  26.733   4.807  0.00  0.00    +0.159 HD
ENDBRANCH  25  28
ENDBRANCH  24  25
ENDBRANCH   6  24
TORSDOF 4
ENDMDL
