MODEL 1
REMARK VINA RESULT:      -5.5      0.000      0.000
REMARK  Name = 54150115
REMARK  7 active torsions:
REMARK  status: ('A' for Active; 'I' for Inactive)
REMARK    1  A    between atoms: N_2  and  CA_12
REMARK    2  A    between atoms: C_3  and  CA_5
REMARK    3  A    between atoms: CA_5  and  N_8
REMARK    4  A    between atoms: CA_12  and  C_14
REMARK    5  A    between atoms: CA_12  and  CB_17
REMARK    6  A    between atoms: C_14  and  O_15
REMARK    7  A    between atoms: CB_17  and  OG_18
REMARK                            x       y       z     vdW  Elec       q    Type
REMARK                         _______ _______ _______ _____ _____    ______ ____
ROOT
ATOM      1  O   SER A   1     -35.060  23.569   2.962  0.00  0.00    -0.273 OA
ATOM      2  N   SER A   1     -36.976  22.394   3.541  0.00  0.00    -0.293 N 
ATOM      3  C   SER A   1     -35.816  23.105   3.813  0.00  0.00    +0.241 C 
ATOM      4  H   SER A   1     -37.515  22.063   4.296  0.00  0.00    +0.150 HD
ENDROOT
BRANCH   3   5
ATOM      5  CA  SER A   1     -35.599  23.295   5.310  0.00  0.00    +0.149 C 
ATOM      6  CB  SER A   1     -35.186  21.989   5.969  0.00  0.00    +0.031 C 
BRANCH   5   8
ATOM      7  O   UNK A   0     -36.018  26.144   5.683  0.00  0.00    -0.275 OA
ATOM      8  N   SER A   1     -34.595  24.311   5.487  0.00  0.00    -0.298 N 
ATOM      9  C   UNK A   0     -34.892  25.655   5.659  0.00  0.00    +0.223 C 
ATOM     10  C   UNK A   0     -33.658  26.497   5.848  0.00  0.00    +0.095 C 
ATOM     11  H   SER A   1     -33.649  24.038   5.487  0.00  0.00    +0.150 HD
ENDBRANCH   5   8
ENDBRANCH   3   5
BRANCH   2  12
ATOM     12  CA  SER A   1     -37.424  22.119   2.196  0.00  0.00    +0.201 C 
BRANCH  12  14
ATOM     13  OXT SER A   1     -36.768  20.338   0.673  0.00  0.00    -0.248 OA
ATOM     14  C   SER A   1     -36.905  20.748   1.818  0.00  0.00    +0.334 C 
BRANCH  14  15
ATOM     15  O   SER A   1     -36.646  19.984   2.911  0.00  0.00    -0.479 OA
ATOM     16  H   SER A   1     -37.312  19.848   3.556  0.00  0.00    +0.295 HD
ENDBRANCH  14  15
ENDBRANCH  12  14
BRANCH  12  17
ATOM     17  CB  SER A   1     -38.941  22.164   2.091  0.00  0.00    +0.168 C 
BRANCH  17  18
ATOM     18  OG  SER A   1     -39.456  20.843   2.210  0.00  0.00    -0.380 OA
ATOM     19  H   SER A   1     -40.385  20.832   1.928  0.00  0.00    +0.211 HD
ENDBRANCH  17  18
ENDBRANCH  12  17
ENDBRANCH   2  12
TORSDOF 7
ENDMDL
MODEL 2
REMARK VINA RESULT:      -5.3      2.073      3.048
REMARK  Name = 54150115
REMARK  7 active torsions:
REMARK  status: ('A' for Active; 'I' for Inactive)
REMARK    1  A    between atoms: N_2  and  CA_12
REMARK    2  A    between atoms: C_3  and  CA_5
REMARK    3  A    between atoms: CA_5  and  N_8
REMARK    4  A    between atoms: CA_12  and  C_14
REMARK    5  A    between atoms: CA_12  and  CB_17
REMARK    6  A    between atoms: C_14  and  O_15
REMARK    7  A    between atoms: CB_17  and  OG_18
REMARK                            x       y       z     vdW  Elec       q    Type
REMARK                         _______ _______ _______ _____ _____    ______ ____
ROOT
ATOM      1  O   SER A   1     -35.630  22.766   3.230  0.00  0.00    -0.273 OA
ATOM      2  N   SER A   1     -37.380  24.114   3.942  0.00  0.00    -0.293 N 
ATOM      3  C   SER A   1     -36.218  23.376   4.121  0.00  0.00    +0.241 C 
ATOM      4  H   SER A   1     -37.776  24.567   4.722  0.00  0.00    +0.150 HD
ENDROOT
BRANCH   3   5
ATOM      5  CA  SER A   1     -35.714  23.440   5.557  0.00  0.00    +0.149 C 
ATOM      6  CB  SER A   1     -35.236  22.076   6.028  0.00  0.00    +0.031 C 
BRANCH   5   8
ATOM      7  O   UNK A   0     -35.972  26.333   5.526  0.00  0.00    -0.275 OA
ATOM      8  N   SER A   1     -34.655  24.414   5.612  0.00  0.00    -0.298 N 
ATOM      9  C   UNK A   0     -34.875  25.783   5.592  0.00  0.00    +0.223 C 
ATOM     10  C   UNK A   0     -33.596  26.572   5.687  0.00  0.00    +0.095 C 
ATOM     11  H   SER A   1     -33.726  24.091   5.668  0.00  0.00    +0.150 HD
ENDBRANCH   5   8
ENDBRANCH   3   5
BRANCH   2  12
ATOM     12  CA  SER A   1     -38.031  24.244   2.661  0.00  0.00    +0.201 C 
BRANCH  12  14
ATOM     13  OXT SER A   1     -40.288  23.451   2.208  0.00  0.00    -0.248 OA
ATOM     14  C   SER A   1     -39.521  24.114   2.895  0.00  0.00    +0.334 C 
BRANCH  14  15
ATOM     15  O   SER A   1     -39.938  24.869   3.945  0.00  0.00    -0.479 OA
ATOM     16  H   SER A   1     -40.129  24.463   4.768  0.00  0.00    +0.295 HD
ENDBRANCH  14  15
ENDBRANCH  12  14
BRANCH  12  17
ATOM     17  CB  SER A   1     -37.708  25.577   2.001  0.00  0.00    +0.168 C 
BRANCH  17  18
ATOM     18  OG  SER A   1     -37.779  26.610   2.976  0.00  0.00    -0.380 OA
ATOM     19  H   SER A   1     -36.944  27.106   2.981  0.00  0.00    +0.211 HD
ENDBRANCH  17  18
ENDBRANCH  12  17
ENDBRANCH   2  12
TORSDOF 7
ENDMDL
MODEL 3
REMARK VINA RESULT:      -5.1      2.421      5.248
REMARK  Name = 54150115
REMARK  7 active torsions:
REMARK  status: ('A' for Active; 'I' for Inactive)
REMARK    1  A    between atoms: N_2  and  CA_12
REMARK    2  A    between atoms: C_3  and  CA_5
REMARK    3  A    between atoms: CA_5  and  N_8
REMARK    4  A    between atoms: CA_12  and  C_14
REMARK    5  A    between atoms: CA_12  and  CB_17
REMARK    6  A    between atoms: C_14  and  O_15
REMARK    7  A    between atoms: CB_17  and  OG_18
REMARK                            x       y       z     vdW  Elec       q    Type
REMARK                         _______ _______ _______ _____ _____    ______ ____
ROOT
ATOM      1  O   SER A   1     -36.843  24.539   2.395  0.00  0.00    -0.273 OA
ATOM      2  N   SER A   1     -37.256  22.496   3.417  0.00  0.00    -0.293 N 
ATOM      3  C   SER A   1     -37.627  23.690   2.814  0.00  0.00    +0.241 C 
ATOM      4  H   SER A   1     -37.962  21.881   3.720  0.00  0.00    +0.150 HD
ENDROOT
BRANCH   3   5
ATOM      5  CA  SER A   1     -39.140  23.818   2.682  0.00  0.00    +0.149 C 
ATOM      6  CB  SER A   1     -39.576  25.268   2.815  0.00  0.00    +0.031 C 
BRANCH   5   8
ATOM      7  O   UNK A   0     -40.084  21.129   2.125  0.00  0.00    -0.275 OA
ATOM      8  N   SER A   1     -39.521  23.272   1.406  0.00  0.00    -0.298 N 
ATOM      9  C   UNK A   0     -39.963  21.968   1.236  0.00  0.00    +0.223 C 
ATOM     10  C   UNK A   0     -40.321  21.664  -0.195  0.00  0.00    +0.095 C 
ATOM     11  H   SER A   1     -39.467  23.854   0.613  0.00  0.00    +0.150 HD
ENDBRANCH   5   8
ENDBRANCH   3   5
BRANCH   2  12
ATOM     12  CA  SER A   1     -35.877  22.121   3.618  0.00  0.00    +0.201 C 
BRANCH  12  14
ATOM     13  OXT SER A   1     -35.902  22.775   5.963  0.00  0.00    -0.248 OA
ATOM     14  C   SER A   1     -35.672  21.931   5.106  0.00  0.00    +0.334 C 
BRANCH  14  15
ATOM     15  O   SER A   1     -35.145  20.712   5.395  0.00  0.00    -0.479 OA
ATOM     16  H   SER A   1     -34.227  20.560   5.285  0.00  0.00    +0.295 HD
ENDBRANCH  14  15
ENDBRANCH  12  14
BRANCH  12  17
ATOM     17  CB  SER A   1     -35.527  20.846   2.864  0.00  0.00    +0.168 C 
BRANCH  17  18
ATOM     18  OG  SER A   1     -36.651  19.976   2.872  0.00  0.00    -0.380 OA
ATOM     19  H   SER A   1     -37.428  20.455   3.202  0.00  0.00    +0.211 HD
ENDBRANCH  17  18
ENDBRANCH  12  17
ENDBRANCH   2  12
TORSDOF 7
ENDMDL
MODEL 4
REMARK VINA RESULT:      -4.9      2.991      4.846
REMARK  Name = 54150115
REMARK  7 active torsions:
REMARK  status: ('A' for Active; 'I' for Inactive)
REMARK    1  A    between atoms: N_2  and  CA_12
REMARK    2  A    between atoms: C_3  and  CA_5
REMARK    3  A    between atoms: CA_5  and  N_8
REMARK    4  A    between atoms: CA_12  and  C_14
REMARK    5  A    between atoms: CA_12  and  CB_17
REMARK    6  A    between atoms: C_14  and  O_15
REMARK    7  A    between atoms: CB_17  and  OG_18
REMARK                            x       y       z     vdW  Elec       q    Type
REMARK                         _______ _______ _______ _____ _____    ______ ____
ROOT
ATOM      1  O   SER A   1     -33.893  26.245   6.367  0.00  0.00    -0.273 OA
ATOM      2  N   SER A   1     -34.924  25.652   4.374  0.00  0.00    -0.293 N 
ATOM      3  C   SER A   1     -34.005  26.348   5.147  0.00  0.00    +0.241 C 
ATOM      4  H   SER A   1     -34.934  25.806   3.401  0.00  0.00    +0.150 HD
ENDROOT
BRANCH   3   5
ATOM      5  CA  SER A   1     -33.102  27.237   4.302  0.00  0.00    +0.149 C 
ATOM      6  CB  SER A   1     -33.741  27.539   2.956  0.00  0.00    +0.031 C 
BRANCH   5   8
ATOM      7  O   UNK A   0     -30.743  27.883   5.868  0.00  0.00    -0.275 OA
ATOM      8  N   SER A   1     -32.847  28.445   5.043  0.00  0.00    -0.298 N 
ATOM      9  C   UNK A   0     -31.684  28.666   5.766  0.00  0.00    +0.223 C 
ATOM     10  C   UNK A   0     -31.666  30.019   6.425  0.00  0.00    +0.095 C 
ATOM     11  H   SER A   1     -33.534  29.151   5.036  0.00  0.00    +0.150 HD
ENDBRANCH   5   8
ENDBRANCH   3   5
BRANCH   2  12
ATOM     12  CA  SER A   1     -35.863  24.713   4.938  0.00  0.00    +0.201 C 
BRANCH  12  14
ATOM     13  OXT SER A   1     -37.821  23.946   3.711  0.00  0.00    -0.248 OA
ATOM     14  C   SER A   1     -37.166  24.867   4.181  0.00  0.00    +0.334 C 
BRANCH  14  15
ATOM     15  O   SER A   1     -37.516  26.171   4.033  0.00  0.00    -0.479 OA
ATOM     16  H   SER A   1     -37.787  26.671   4.778  0.00  0.00    +0.295 HD
ENDBRANCH  14  15
ENDBRANCH  12  14
BRANCH  12  17
ATOM     17  CB  SER A   1     -35.354  23.282   4.838  0.00  0.00    +0.168 C 
BRANCH  17  18
ATOM     18  OG  SER A   1     -36.219  22.427   5.575  0.00  0.00    -0.380 OA
ATOM     19  H   SER A   1     -36.655  22.935   6.277  0.00  0.00    +0.211 HD
ENDBRANCH  17  18
ENDBRANCH  12  17
ENDBRANCH   2  12
TORSDOF 7
ENDMDL
MODEL 5
REMARK VINA RESULT:      -4.9      1.423      1.944
REMARK  Name = 54150115
REMARK  7 active torsions:
REMARK  status: ('A' for Active; 'I' for Inactive)
REMARK    1  A    between atoms: N_2  and  CA_12
REMARK    2  A    between atoms: C_3  and  CA_5
REMARK    3  A    between atoms: CA_5  and  N_8
REMARK    4  A    between atoms: CA_12  and  C_14
REMARK    5  A    between atoms: CA_12  and  CB_17
REMARK    6  A    between atoms: C_14  and  O_15
REMARK    7  A    between atoms: CB_17  and  OG_18
REMARK                            x       y       z     vdW  Elec       q    Type
REMARK                         _______ _______ _______ _____ _____    ______ ____
ROOT
ATOM      1  O   SER A   1     -37.342  23.757   3.776  0.00  0.00    -0.273 OA
ATOM      2  N   SER A   1     -35.578  22.315   3.330  0.00  0.00    -0.293 N 
ATOM      3  C   SER A   1     -36.315  23.181   4.127  0.00  0.00    +0.241 C 
ATOM      4  H   SER A   1     -34.767  21.903   3.705  0.00  0.00    +0.150 HD
ENDROOT
BRANCH   3   5
ATOM      5  CA  SER A   1     -35.729  23.306   5.529  0.00  0.00    +0.149 C 
ATOM      6  CB  SER A   1     -35.194  21.969   6.016  0.00  0.00    +0.031 C 
BRANCH   5   8
ATOM      7  O   UNK A   0     -36.029  26.182   5.794  0.00  0.00    -0.275 OA
ATOM      8  N   SER A   1     -34.690  24.302   5.488  0.00  0.00    -0.298 N 
ATOM      9  C   UNK A   0     -34.930  25.661   5.625  0.00  0.00    +0.223 C 
ATOM     10  C   UNK A   0     -33.665  26.476   5.569  0.00  0.00    +0.095 C 
ATOM     11  H   SER A   1     -33.761  24.002   5.356  0.00  0.00    +0.150 HD
ENDBRANCH   5   8
ENDBRANCH   3   5
BRANCH   2  12
ATOM     12  CA  SER A   1     -35.954  21.998   1.973  0.00  0.00    +0.201 C 
BRANCH  12  14
ATOM     13  OXT SER A   1     -34.256  20.433   1.203  0.00  0.00    -0.248 OA
ATOM     14  C   SER A   1     -34.697  21.574   1.243  0.00  0.00    +0.334 C 
BRANCH  14  15
ATOM     15  O   SER A   1     -34.068  22.628   0.661  0.00  0.00    -0.479 OA
ATOM     16  H   SER A   1     -33.197  22.530   0.331  0.00  0.00    +0.295 HD
ENDBRANCH  14  15
ENDBRANCH  12  14
BRANCH  12  17
ATOM     17  CB  SER A   1     -36.998  20.892   1.925  0.00  0.00    +0.168 C 
BRANCH  17  18
ATOM     18  OG  SER A   1     -36.614  19.848   2.812  0.00  0.00    -0.380 OA
ATOM     19  H   SER A   1     -36.582  20.191   3.719  0.00  0.00    +0.211 HD
ENDBRANCH  17  18
ENDBRANCH  12  17
ENDBRANCH   2  12
TORSDOF 7
ENDMDL
MODEL 6
REMARK VINA RESULT:      -4.8      2.154      5.615
REMARK  Name = 54150115
REMARK  7 active torsions:
REMARK  status: ('A' for Active; 'I' for Inactive)
REMARK    1  A    between atoms: N_2  and  CA_12
REMARK    2  A    between atoms: C_3  and  CA_5
REMARK    3  A    between atoms: CA_5  and  N_8
REMARK    4  A    between atoms: CA_12  and  C_14
REMARK    5  A    between atoms: CA_12  and  CB_17
REMARK    6  A    between atoms: C_14  and  O_15
REMARK    7  A    between atoms: CB_17  and  OG_18
REMARK                            x       y       z     vdW  Elec       q    Type
REMARK                         _______ _______ _______ _____ _____    ______ ____
ROOT
ATOM      1  O   SER A   1     -36.792  23.973   4.650  0.00  0.00    -0.273 OA
ATOM      2  N   SER A   1     -34.621  24.331   3.910  0.00  0.00    -0.293 N 
ATOM      3  C   SER A   1     -35.642  23.576   4.469  0.00  0.00    +0.241 C 
ATOM      4  H   SER A   1     -33.732  23.920   3.807  0.00  0.00    +0.150 HD
ENDROOT
BRANCH   3   5
ATOM      5  CA  SER A   1     -35.192  22.158   4.798  0.00  0.00    +0.149 C 
ATOM      6  CB  SER A   1     -35.463  21.825   6.257  0.00  0.00    +0.031 C 
BRANCH   5   8
ATOM      7  O   UNK A   0     -34.798  21.830   1.939  0.00  0.00    -0.275 OA
ATOM      8  N   SER A   1     -35.886  21.255   3.917  0.00  0.00    -0.298 N 
ATOM      9  C   UNK A   0     -35.629  21.168   2.557  0.00  0.00    +0.223 C 
ATOM     10  C   UNK A   0     -36.478  20.127   1.878  0.00  0.00    +0.095 C 
ATOM     11  H   SER A   1     -36.579  20.670   4.300  0.00  0.00    +0.150 HD
ENDBRANCH   5   8
ENDBRANCH   3   5
BRANCH   2  12
ATOM     12  CA  SER A   1     -34.809  25.694   3.474  0.00  0.00    +0.201 C 
BRANCH  12  14
ATOM     13  OXT SER A   1     -33.874  26.905   5.367  0.00  0.00    -0.248 OA
ATOM     14  C   SER A   1     -34.850  26.564   4.712  0.00  0.00    +0.334 C 
BRANCH  14  15
ATOM     15  O   SER A   1     -36.122  26.894   5.058  0.00  0.00    -0.479 OA
ATOM     16  H   SER A   1     -36.387  26.860   5.956  0.00  0.00    +0.295 HD
ENDBRANCH  14  15
ENDBRANCH  12  14
BRANCH  12  17
ATOM     17  CB  SER A   1     -33.693  26.144   2.543  0.00  0.00    +0.168 C 
BRANCH  17  18
ATOM     18  OG  SER A   1     -32.438  25.852   3.144  0.00  0.00    -0.380 OA
ATOM     19  H   SER A   1     -32.573  25.615   4.075  0.00  0.00    +0.211 HD
ENDBRANCH  17  18
ENDBRANCH  12  17
ENDBRANCH   2  12
TORSDOF 7
ENDMDL
MODEL 7
REMARK VINA RESULT:      -4.7      1.946      5.721
REMARK  Name = 54150115
REMARK  7 active torsions:
REMARK  status: ('A' for Active; 'I' for Inactive)
REMARK    1  A    between atoms: N_2  and  CA_12
REMARK    2  A    between atoms: C_3  and  CA_5
REMARK    3  A    between atoms: CA_5  and  N_8
REMARK    4  A    between atoms: CA_12  and  C_14
REMARK    5  A    between atoms: CA_12  and  CB_17
REMARK    6  A    between atoms: C_14  and  O_15
REMARK    7  A    between atoms: CB_17  and  OG_18
REMARK                            x       y       z     vdW  Elec       q    Type
REMARK                         _______ _______ _______ _____ _____    ______ ____
ROOT
ATOM      1  O   SER A   1     -36.007  23.454   2.182  0.00  0.00    -0.273 OA
ATOM      2  N   SER A   1     -36.625  22.881   4.346  0.00  0.00    -0.293 N 
ATOM      3  C   SER A   1     -36.870  23.168   3.010  0.00  0.00    +0.241 C 
ATOM      4  H   SER A   1     -37.387  22.664   4.929  0.00  0.00    +0.150 HD
ENDROOT
BRANCH   3   5
ATOM      5  CA  SER A   1     -38.348  23.043   2.659  0.00  0.00    +0.149 C 
ATOM      6  CB  SER A   1     -38.989  24.413   2.508  0.00  0.00    +0.031 C 
BRANCH   5   8
ATOM      7  O   UNK A   0     -40.397  21.105   1.964  0.00  0.00    -0.275 OA
ATOM      8  N   SER A   1     -38.453  22.278   1.444  0.00  0.00    -0.298 N 
ATOM      9  C   UNK A   0     -39.473  21.371   1.199  0.00  0.00    +0.223 C 
ATOM     10  C   UNK A   0     -39.357  20.729  -0.158  0.00  0.00    +0.095 C 
ATOM     11  H   SER A   1     -37.765  22.407   0.751  0.00  0.00    +0.150 HD
ENDBRANCH   5   8
ENDBRANCH   3   5
BRANCH   2  12
ATOM     12  CA  SER A   1     -35.298  22.890   4.913  0.00  0.00    +0.201 C 
BRANCH  12  14
ATOM     13  OXT SER A   1     -35.676  25.152   5.729  0.00  0.00    -0.248 OA
ATOM     14  C   SER A   1     -34.937  24.332   5.199  0.00  0.00    +0.334 C 
BRANCH  14  15
ATOM     15  O   SER A   1     -33.693  24.643   4.750  0.00  0.00    -0.479 OA
ATOM     16  H   SER A   1     -33.551  25.439   4.277  0.00  0.00    +0.295 HD
ENDBRANCH  14  15
ENDBRANCH  12  14
BRANCH  12  17
ATOM     17  CB  SER A   1     -35.227  22.060   6.186  0.00  0.00    +0.168 C 
BRANCH  17  18
ATOM     18  OG  SER A   1     -35.376  20.685   5.856  0.00  0.00    -0.380 OA
ATOM     19  H   SER A   1     -36.320  20.468   5.794  0.00  0.00    +0.211 HD
ENDBRANCH  17  18
ENDBRANCH  12  17
ENDBRANCH   2  12
TORSDOF 7
ENDMDL
MODEL 8
REMARK VINA RESULT:      -4.7      1.760      2.370
REMARK  Name = 54150115
REMARK  7 active torsions:
REMARK  status: ('A' for Active; 'I' for Inactive)
REMARK    1  A    between atoms: N_2  and  CA_12
REMARK    2  A    between atoms: C_3  and  CA_5
REMARK    3  A    between atoms: CA_5  and  N_8
REMARK    4  A    between atoms: CA_12  and  C_14
REMARK    5  A    between atoms: CA_12  and  CB_17
REMARK    6  A    between atoms: C_14  and  O_15
REMARK    7  A    between atoms: CB_17  and  OG_18
REMARK                            x       y       z     vdW  Elec       q    Type
REMARK                         _______ _______ _______ _____ _____    ______ ____
ROOT
ATOM      1  O   SER A   1     -36.509  24.080   1.001  0.00  0.00    -0.273 OA
ATOM      2  N   SER A   1     -37.252  22.252   2.224  0.00  0.00    -0.293 N 
ATOM      3  C   SER A   1     -36.751  23.538   2.078  0.00  0.00    +0.241 C 
ATOM      4  H   SER A   1     -37.412  21.908   3.132  0.00  0.00    +0.150 HD
ENDROOT
BRANCH   3   5
ATOM      5  CA  SER A   1     -36.573  24.238   3.420  0.00  0.00    +0.149 C 
ATOM      6  CB  SER A   1     -37.771  25.120   3.735  0.00  0.00    +0.031 C 
BRANCH   5   8
ATOM      7  O   UNK A   0     -34.682  24.268   5.623  0.00  0.00    -0.275 OA
ATOM      8  N   SER A   1     -36.388  23.227   4.427  0.00  0.00    -0.298 N 
ATOM      9  C   UNK A   0     -35.454  23.329   5.448  0.00  0.00    +0.223 C 
ATOM     10  C   UNK A   0     -35.488  22.145   6.378  0.00  0.00    +0.095 C 
ATOM     11  H   SER A   1     -36.954  22.422   4.391  0.00  0.00    +0.150 HD
ENDBRANCH   5   8
ENDBRANCH   3   5
BRANCH   2  12
ATOM     12  CA  SER A   1     -37.547  21.398   1.097  0.00  0.00    +0.201 C 
BRANCH  12  14
ATOM     13  OXT SER A   1     -36.324  19.404   0.426  0.00  0.00    -0.248 OA
ATOM     14  C   SER A   1     -36.810  20.094   1.313  0.00  0.00    +0.334 C 
BRANCH  14  15
ATOM     15  O   SER A   1     -36.786  19.734   2.623  0.00  0.00    -0.479 OA
ATOM     16  H   SER A   1     -36.082  20.015   3.173  0.00  0.00    +0.295 HD
ENDBRANCH  14  15
ENDBRANCH  12  14
BRANCH  12  17
ATOM     17  CB  SER A   1     -39.042  21.151   0.958  0.00  0.00    +0.168 C 
BRANCH  17  18
ATOM     18  OG  SER A   1     -39.594  20.893   2.243  0.00  0.00    -0.380 OA
ATOM     19  H   SER A   1     -39.109  21.404   2.911  0.00  0.00    +0.211 HD
ENDBRANCH  17  18
ENDBRANCH  12  17
ENDBRANCH   2  12
TORSDOF 7
ENDMDL
MODEL 9
REMARK VINA RESULT:      -4.6      2.559      6.246
REMARK  Name = 54150115
REMARK  7 active torsions:
REMARK  status: ('A' for Active; 'I' for Inactive)
REMARK    1  A    between atoms: N_2  and  CA_12
REMARK    2  A    between atoms: C_3  and  CA_5
REMARK    3  A    between atoms: CA_5  and  N_8
REMARK    4  A    between atoms: CA_12  and  C_14
REMARK    5  A    between atoms: CA_12  and  CB_17
REMARK    6  A    between atoms: C_14  and  O_15
REMARK    7  A    between atoms: CB_17  and  OG_18
REMARK                            x       y       z     vdW  Elec       q    Type
REMARK                         _______ _______ _______ _____ _____    ______ ____
ROOT
ATOM      1  O   SER A   1     -37.774  21.217   2.075  0.00  0.00    -0.273 OA
ATOM      2  N   SER A   1     -35.747  21.402   3.192  0.00  0.00    -0.293 N 
ATOM      3  C   SER A   1     -36.582  20.936   2.185  0.00  0.00    +0.241 C 
ATOM      4  H   SER A   1     -34.804  21.117   3.192  0.00  0.00    +0.150 HD
ENDROOT
BRANCH   3   5
ATOM      5  CA  SER A   1     -35.838  20.060   1.184  0.00  0.00    +0.149 C 
ATOM      6  CB  SER A   1     -34.437  19.738   1.679  0.00  0.00    +0.031 C 
BRANCH   5   8
ATOM      7  O   UNK A   0     -36.216  18.599  -1.297  0.00  0.00    -0.275 OA
ATOM      8  N   SER A   1     -36.611  18.862   0.984  0.00  0.00    -0.298 N 
ATOM      9  C   UNK A   0     -36.734  18.230  -0.245  0.00  0.00    +0.223 C 
ATOM     10  C   UNK A   0     -37.576  16.985  -0.169  0.00  0.00    +0.095 C 
ATOM     11  H   SER A   1     -37.074  18.470   1.759  0.00  0.00    +0.150 HD
ENDBRANCH   5   8
ENDBRANCH   3   5
BRANCH   2  12
ATOM     12  CA  SER A   1     -36.206  22.284   4.238  0.00  0.00    +0.201 C 
BRANCH  12  14
ATOM     13  OXT SER A   1     -35.049  22.749   6.328  0.00  0.00    -0.248 OA
ATOM     14  C   SER A   1     -35.431  21.941   5.492  0.00  0.00    +0.334 C 
BRANCH  14  15
ATOM     15  O   SER A   1     -35.154  20.613   5.570  0.00  0.00    -0.479 OA
ATOM     16  H   SER A   1     -34.410  20.317   6.057  0.00  0.00    +0.295 HD
ENDBRANCH  14  15
ENDBRANCH  12  14
BRANCH  12  17
ATOM     17  CB  SER A   1     -36.001  23.746   3.867  0.00  0.00    +0.168 C 
BRANCH  17  18
ATOM     18  OG  SER A   1     -36.848  24.555   4.673  0.00  0.00    -0.380 OA
ATOM     19  H   SER A   1     -36.435  25.424   4.805  0.00  0.00    +0.211 HD
ENDBRANCH  17  18
ENDBRANCH  12  17
ENDBRANCH   2  12
TORSDOF 7
ENDMDL
