MODEL 1
REMARK VINA RESULT:      -6.2      0.000      0.000
REMARK  Name = 5464170
REMARK  7 active torsions:
REMARK  status: ('A' for Active; 'I' for Inactive)
REMARK    1  A    between atoms: C_4  and  C_12
REMARK    2  A    between atoms: C_7  and  O_26
REMARK    3  A    between atoms: C_10  and  O_24
REMARK    4  A    between atoms: C_11  and  O_28
REMARK    5  A    between atoms: C_15  and  O_18
REMARK    6  A    between atoms: C_16  and  O_22
REMARK    7  A    between atoms: C_17  and  O_20
REMARK                            x       y       z     vdW  Elec       q    Type
REMARK                         _______ _______ _______ _____ _____    ______ ____
ROOT
ATOM      1  O   UNL     1     -35.201  23.053   0.068  0.00  0.00    -0.450 OA
ATOM      2  O   UNL     1     -35.236  20.525   3.271  0.00  0.00    -0.286 OA
ATOM      3  C   UNL     1     -35.702  22.667   2.411  0.00  0.00    +0.110 C 
ATOM      4  C   UNL     1     -34.773  20.833   0.956  0.00  0.00    +0.077 C 
ATOM      5  C   UNL     1     -35.657  23.489   1.286  0.00  0.00    +0.155 C 
ATOM      6  C   UNL     1     -35.241  21.271   2.300  0.00  0.00    +0.205 C 
ATOM      7  C   UNL     1     -36.176  23.165   3.628  0.00  0.00    +0.177 C 
ATOM      8  C   UNL     1     -34.794  21.745  -0.029  0.00  0.00    +0.183 C 
ATOM      9  C   UNL     1     -36.086  24.814   1.371  0.00  0.00    +0.078 C 
ATOM     10  C   UNL     1     -36.605  24.491   3.709  0.00  0.00    +0.206 C 
ATOM     11  C   UNL     1     -36.560  25.314   2.583  0.00  0.00    +0.174 C 
ENDROOT
BRANCH   4  12
ATOM     12  C   UNL     1     -34.324  19.456   0.698  0.00  0.00    +0.012 C 
ATOM     13  C   UNL     1     -33.078  19.028   1.161  0.00  0.00    +0.040 C 
ATOM     14  C   UNL     1     -35.141  18.573  -0.010  0.00  0.00    +0.040 C 
ATOM     15  C   UNL     1     -32.651  17.723   0.916  0.00  0.00    +0.175 C 
ATOM     16  C   UNL     1     -34.715  17.267  -0.254  0.00  0.00    +0.171 C 
ATOM     17  C   UNL     1     -33.470  16.843   0.208  0.00  0.00    +0.206 C 
BRANCH  15  18
ATOM     18  O   UNL     1     -31.433  17.320   1.373  0.00  0.00    -0.468 OA
ATOM     19  C   UNL     1     -30.297  17.866   0.715  0.00  0.00    +0.253 C 
ENDBRANCH  15  18
BRANCH  17  20
ATOM     20  O   UNL     1     -33.053  15.567  -0.030  0.00  0.00    -0.465 OA
ATOM     21  C   UNL     1     -32.336  15.352  -1.240  0.00  0.00    +0.253 C 
ENDBRANCH  17  20
BRANCH  16  22
ATOM     22  O   UNL     1     -35.524  16.417  -0.946  0.00  0.00    -0.503 OA
ATOM     23  H   UNL     1     -35.789  16.630  -1.820  0.00  0.00    +0.292 HD
ENDBRANCH  16  22
ENDBRANCH   4  12
BRANCH  10  24
ATOM     24  O   UNL     1     -37.070  24.988   4.892  0.00  0.00    -0.465 OA
ATOM     25  C   UNL     1     -36.136  25.712   5.682  0.00  0.00    +0.253 C 
ENDBRANCH  10  24
BRANCH   7  26
ATOM     26  O   UNL     1     -36.237  22.395   4.751  0.00  0.00    -0.503 OA
ATOM     27  H   UNL     1     -35.709  21.625   4.820  0.00  0.00    +0.292 HD
ENDBRANCH   7  26
BRANCH  11  28
ATOM     28  O   UNL     1     -36.975  26.610   2.655  0.00  0.00    -0.503 OA
ATOM     29  H   UNL     1     -37.310  27.037   1.891  0.00  0.00    +0.292 HD
ENDBRANCH  11  28
TORSDOF 7
ENDMDL
MODEL 2
REMARK VINA RESULT:      -6.1      0.466      2.115
REMARK  Name = 5464170
REMARK  7 active torsions:
REMARK  status: ('A' for Active; 'I' for Inactive)
REMARK    1  A    between atoms: C_4  and  C_12
REMARK    2  A    between atoms: C_7  and  O_26
REMARK    3  A    between atoms: C_10  and  O_24
REMARK    4  A    between atoms: C_11  and  O_28
REMARK    5  A    between atoms: C_15  and  O_18
REMARK    6  A    between atoms: C_16  and  O_22
REMARK    7  A    between atoms: C_17  and  O_20
REMARK                            x       y       z     vdW  Elec       q    Type
REMARK                         _______ _______ _______ _____ _____    ______ ____
ROOT
ATOM      1  O   UNL     1     -35.182  23.057   0.080  0.00  0.00    -0.450 OA
ATOM      2  O   UNL     1     -35.241  20.522   3.276  0.00  0.00    -0.286 OA
ATOM      3  C   UNL     1     -35.697  22.667   2.419  0.00  0.00    +0.110 C 
ATOM      4  C   UNL     1     -34.765  20.834   0.965  0.00  0.00    +0.077 C 
ATOM      5  C   UNL     1     -35.643  23.491   1.296  0.00  0.00    +0.155 C 
ATOM      6  C   UNL     1     -35.239  21.270   2.307  0.00  0.00    +0.205 C 
ATOM      7  C   UNL     1     -36.175  23.164   3.634  0.00  0.00    +0.177 C 
ATOM      8  C   UNL     1     -34.778  21.747  -0.018  0.00  0.00    +0.183 C 
ATOM      9  C   UNL     1     -36.069  24.817   1.381  0.00  0.00    +0.078 C 
ATOM     10  C   UNL     1     -36.600  24.490   3.717  0.00  0.00    +0.206 C 
ATOM     11  C   UNL     1     -36.548  25.316   2.593  0.00  0.00    +0.174 C 
ENDROOT
BRANCH   4  12
ATOM     12  C   UNL     1     -34.318  19.456   0.705  0.00  0.00    +0.012 C 
ATOM     13  C   UNL     1     -35.146  18.571   0.010  0.00  0.00    +0.040 C 
ATOM     14  C   UNL     1     -33.067  19.028   1.152  0.00  0.00    +0.040 C 
ATOM     15  C   UNL     1     -34.723  17.265  -0.236  0.00  0.00    +0.175 C 
ATOM     16  C   UNL     1     -32.644  17.722   0.905  0.00  0.00    +0.171 C 
ATOM     17  C   UNL     1     -33.473  16.840   0.212  0.00  0.00    +0.206 C 
BRANCH  15  18
ATOM     18  O   UNL     1     -35.542  16.413  -0.915  0.00  0.00    -0.468 OA
ATOM     19  C   UNL     1     -36.878  16.306  -0.440  0.00  0.00    +0.253 C 
ENDBRANCH  15  18
BRANCH  17  20
ATOM     20  O   UNL     1     -33.059  15.564  -0.029  0.00  0.00    -0.465 OA
ATOM     21  C   UNL     1     -32.328  15.353  -1.230  0.00  0.00    +0.253 C 
ENDBRANCH  17  20
BRANCH  16  22
ATOM     22  O   UNL     1     -31.420  17.320   1.348  0.00  0.00    -0.503 OA
ATOM     23  H   UNL     1     -30.770  17.038   0.735  0.00  0.00    +0.292 HD
ENDBRANCH  16  22
ENDBRANCH   4  12
BRANCH  10  24
ATOM     24  O   UNL     1     -37.070  24.986   4.898  0.00  0.00    -0.465 OA
ATOM     25  C   UNL     1     -36.142  25.717   5.689  0.00  0.00    +0.253 C 
ENDBRANCH  10  24
BRANCH   7  26
ATOM     26  O   UNL     1     -36.244  22.391   4.755  0.00  0.00    -0.503 OA
ATOM     27  H   UNL     1     -35.469  22.215   5.252  0.00  0.00    +0.292 HD
ENDBRANCH   7  26
BRANCH  11  28
ATOM     28  O   UNL     1     -36.960  26.612   2.665  0.00  0.00    -0.503 OA
ATOM     29  H   UNL     1     -37.794  26.818   3.039  0.00  0.00    +0.292 HD
ENDBRANCH  11  28
TORSDOF 7
ENDMDL
MODEL 3
REMARK VINA RESULT:      -6.0      4.681      7.683
REMARK  Name = 5464170
REMARK  7 active torsions:
REMARK  status: ('A' for Active; 'I' for Inactive)
REMARK    1  A    between atoms: C_4  and  C_12
REMARK    2  A    between atoms: C_7  and  O_26
REMARK    3  A    between atoms: C_10  and  O_24
REMARK    4  A    between atoms: C_11  and  O_28
REMARK    5  A    between atoms: C_15  and  O_18
REMARK    6  A    between atoms: C_16  and  O_22
REMARK    7  A    between atoms: C_17  and  O_20
REMARK                            x       y       z     vdW  Elec       q    Type
REMARK                         _______ _______ _______ _____ _____    ______ ____
ROOT
ATOM      1  O   UNL     1     -33.504  28.982   2.870  0.00  0.00    -0.450 OA
ATOM      2  O   UNL     1     -33.283  26.027   5.676  0.00  0.00    -0.286 OA
ATOM      3  C   UNL     1     -32.519  28.120   4.914  0.00  0.00    +0.110 C 
ATOM      4  C   UNL     1     -34.319  26.848   3.696  0.00  0.00    +0.077 C 
ATOM      5  C   UNL     1     -32.630  29.092   3.921  0.00  0.00    +0.155 C 
ATOM      6  C   UNL     1     -33.370  26.918   4.841  0.00  0.00    +0.205 C 
ATOM      7  C   UNL     1     -31.609  28.285   5.961  0.00  0.00    +0.177 C 
ATOM      8  C   UNL     1     -34.308  27.868   2.824  0.00  0.00    +0.183 C 
ATOM      9  C   UNL     1     -31.831  30.235   3.970  0.00  0.00    +0.078 C 
ATOM     10  C   UNL     1     -30.811  29.429   6.008  0.00  0.00    +0.206 C 
ATOM     11  C   UNL     1     -30.922  30.403   5.014  0.00  0.00    +0.174 C 
ENDROOT
BRANCH   4  12
ATOM     12  C   UNL     1     -35.253  25.724   3.526  0.00  0.00    +0.012 C 
ATOM     13  C   UNL     1     -34.796  24.505   3.020  0.00  0.00    +0.040 C 
ATOM     14  C   UNL     1     -36.598  25.871   3.870  0.00  0.00    +0.040 C 
ATOM     15  C   UNL     1     -35.681  23.439   2.858  0.00  0.00    +0.175 C 
ATOM     16  C   UNL     1     -37.482  24.804   3.709  0.00  0.00    +0.171 C 
ATOM     17  C   UNL     1     -37.024  23.588   3.202  0.00  0.00    +0.206 C 
BRANCH  15  18
ATOM     18  O   UNL     1     -35.220  22.256   2.362  0.00  0.00    -0.468 OA
ATOM     19  C   UNL     1     -34.681  22.288   1.047  0.00  0.00    +0.253 C 
ENDBRANCH  15  18
BRANCH  17  20
ATOM     20  O   UNL     1     -37.889  22.546   3.044  0.00  0.00    -0.465 OA
ATOM     21  C   UNL     1     -38.545  22.454   1.786  0.00  0.00    +0.253 C 
ENDBRANCH  17  20
BRANCH  16  22
ATOM     22  O   UNL     1     -38.792  24.963   4.049  0.00  0.00    -0.503 OA
ATOM     23  H   UNL     1     -39.427  25.163   3.389  0.00  0.00    +0.292 HD
ENDBRANCH  16  22
ENDBRANCH   4  12
BRANCH  10  24
ATOM     24  O   UNL     1     -29.919  29.601   7.026  0.00  0.00    -0.465 OA
ATOM     25  C   UNL     1     -28.604  29.110   6.802  0.00  0.00    +0.253 C 
ENDBRANCH  10  24
BRANCH   7  26
ATOM     26  O   UNL     1     -31.470  27.358   6.952  0.00  0.00    -0.503 OA
ATOM     27  H   UNL     1     -31.667  27.587   7.839  0.00  0.00    +0.292 HD
ENDBRANCH   7  26
BRANCH  11  28
ATOM     28  O   UNL     1     -30.147  31.523   5.052  0.00  0.00    -0.503 OA
ATOM     29  H   UNL     1     -30.440  32.309   4.635  0.00  0.00    +0.292 HD
ENDBRANCH  11  28
TORSDOF 7
ENDMDL
MODEL 4
REMARK VINA RESULT:      -6.0      5.032      7.527
REMARK  Name = 5464170
REMARK  7 active torsions:
REMARK  status: ('A' for Active; 'I' for Inactive)
REMARK    1  A    between atoms: C_4  and  C_12
REMARK    2  A    between atoms: C_7  and  O_26
REMARK    3  A    between atoms: C_10  and  O_24
REMARK    4  A    between atoms: C_11  and  O_28
REMARK    5  A    between atoms: C_15  and  O_18
REMARK    6  A    between atoms: C_16  and  O_22
REMARK    7  A    between atoms: C_17  and  O_20
REMARK                            x       y       z     vdW  Elec       q    Type
REMARK                         _______ _______ _______ _____ _____    ______ ____
ROOT
ATOM      1  O   UNL     1     -34.823  25.314   6.310  0.00  0.00    -0.450 OA
ATOM      2  O   UNL     1     -35.513  26.398   2.438  0.00  0.00    -0.286 OA
ATOM      3  C   UNL     1     -34.226  26.673   4.390  0.00  0.00    +0.110 C 
ATOM      4  C   UNL     1     -36.109  25.005   4.273  0.00  0.00    +0.077 C 
ATOM      5  C   UNL     1     -34.044  26.271   5.712  0.00  0.00    +0.155 C 
ATOM      6  C   UNL     1     -35.300  26.052   3.592  0.00  0.00    +0.205 C 
ATOM      7  C   UNL     1     -33.402  27.654   3.833  0.00  0.00    +0.177 C 
ATOM      8  C   UNL     1     -35.806  24.728   5.551  0.00  0.00    +0.183 C 
ATOM      9  C   UNL     1     -33.035  26.848   6.485  0.00  0.00    +0.078 C 
ATOM     10  C   UNL     1     -32.394  28.229   4.608  0.00  0.00    +0.206 C 
ATOM     11  C   UNL     1     -32.211  27.827   5.931  0.00  0.00    +0.174 C 
ENDROOT
BRANCH   4  12
ATOM     12  C   UNL     1     -37.185  24.278   3.581  0.00  0.00    +0.012 C 
ATOM     13  C   UNL     1     -38.398  24.915   3.309  0.00  0.00    +0.040 C 
ATOM     14  C   UNL     1     -36.998  22.950   3.192  0.00  0.00    +0.040 C 
ATOM     15  C   UNL     1     -39.419  24.227   2.653  0.00  0.00    +0.175 C 
ATOM     16  C   UNL     1     -38.018  22.263   2.535  0.00  0.00    +0.171 C 
ATOM     17  C   UNL     1     -39.229  22.901   2.266  0.00  0.00    +0.206 C 
BRANCH  15  18
ATOM     18  O   UNL     1     -40.596  24.862   2.396  0.00  0.00    -0.468 OA
ATOM     19  C   UNL     1     -40.800  26.107   3.051  0.00  0.00    +0.253 C 
ENDBRANCH  15  18
BRANCH  17  20
ATOM     20  O   UNL     1     -40.226  22.228   1.624  0.00  0.00    -0.465 OA
ATOM     21  C   UNL     1     -40.228  22.307   0.204  0.00  0.00    +0.253 C 
ENDBRANCH  17  20
BRANCH  16  22
ATOM     22  O   UNL     1     -37.819  20.967   2.162  0.00  0.00    -0.503 OA
ATOM     23  H   UNL     1     -37.628  20.761   1.268  0.00  0.00    +0.292 HD
ENDBRANCH  16  22
ENDBRANCH   4  12
BRANCH  10  24
ATOM     24  O   UNL     1     -31.583  29.188   4.074  0.00  0.00    -0.465 OA
ATOM     25  C   UNL     1     -32.019  30.534   4.217  0.00  0.00    +0.253 C 
ENDBRANCH  10  24
BRANCH   7  26
ATOM     26  O   UNL     1     -33.548  28.075   2.544  0.00  0.00    -0.503 OA
ATOM     27  H   UNL     1     -33.764  28.969   2.364  0.00  0.00    +0.292 HD
ENDBRANCH   7  26
BRANCH  11  28
ATOM     28  O   UNL     1     -31.230  28.385   6.695  0.00  0.00    -0.503 OA
ATOM     29  H   UNL     1     -30.335  28.148   6.553  0.00  0.00    +0.292 HD
ENDBRANCH  11  28
TORSDOF 7
ENDMDL
MODEL 5
REMARK VINA RESULT:      -5.9      1.382      2.520
REMARK  Name = 5464170
REMARK  7 active torsions:
REMARK  status: ('A' for Active; 'I' for Inactive)
REMARK    1  A    between atoms: C_4  and  C_12
REMARK    2  A    between atoms: C_7  and  O_26
REMARK    3  A    between atoms: C_10  and  O_24
REMARK    4  A    between atoms: C_11  and  O_28
REMARK    5  A    between atoms: C_15  and  O_18
REMARK    6  A    between atoms: C_16  and  O_22
REMARK    7  A    between atoms: C_17  and  O_20
REMARK                            x       y       z     vdW  Elec       q    Type
REMARK                         _______ _______ _______ _____ _____    ______ ____
ROOT
ATOM      1  O   UNL     1     -35.874  22.071   4.399  0.00  0.00    -0.450 OA
ATOM      2  O   UNL     1     -34.856  22.812   0.519  0.00  0.00    -0.286 OA
ATOM      3  C   UNL     1     -35.462  23.674   2.624  0.00  0.00    +0.110 C 
ATOM      4  C   UNL     1     -35.199  21.199   2.235  0.00  0.00    +0.077 C 
ATOM      5  C   UNL     1     -35.813  23.360   3.936  0.00  0.00    +0.155 C 
ATOM      6  C   UNL     1     -35.141  22.582   1.686  0.00  0.00    +0.205 C 
ATOM      7  C   UNL     1     -35.418  25.006   2.207  0.00  0.00    +0.177 C 
ATOM      8  C   UNL     1     -35.552  21.063   3.523  0.00  0.00    +0.183 C 
ATOM      9  C   UNL     1     -36.124  24.378   4.839  0.00  0.00    +0.078 C 
ATOM     10  C   UNL     1     -35.728  26.022   3.112  0.00  0.00    +0.206 C 
ATOM     11  C   UNL     1     -36.080  25.709   4.425  0.00  0.00    +0.174 C 
ENDROOT
BRANCH   4  12
ATOM     12  C   UNL     1     -34.864  20.022   1.419  0.00  0.00    +0.012 C 
ATOM     13  C   UNL     1     -33.702  19.294   1.684  0.00  0.00    +0.040 C 
ATOM     14  C   UNL     1     -35.706  19.628   0.377  0.00  0.00    +0.040 C 
ATOM     15  C   UNL     1     -33.384  18.178   0.910  0.00  0.00    +0.175 C 
ATOM     16  C   UNL     1     -35.388  18.511  -0.396  0.00  0.00    +0.171 C 
ATOM     17  C   UNL     1     -34.227  17.787  -0.130  0.00  0.00    +0.206 C 
BRANCH  15  18
ATOM     18  O   UNL     1     -32.247  17.478   1.180  0.00  0.00    -0.468 OA
ATOM     19  C   UNL     1     -31.020  18.100   0.820  0.00  0.00    +0.253 C 
ENDBRANCH  15  18
BRANCH  17  20
ATOM     20  O   UNL     1     -33.916  16.696  -0.887  0.00  0.00    -0.465 OA
ATOM     21  C   UNL     1     -34.490  15.460  -0.478  0.00  0.00    +0.253 C 
ENDBRANCH  17  20
BRANCH  16  22
ATOM     22  O   UNL     1     -36.221  18.140  -1.409  0.00  0.00    -0.503 OA
ATOM     23  H   UNL     1     -36.944  17.570  -1.236  0.00  0.00    +0.292 HD
ENDBRANCH  16  22
ENDBRANCH   4  12
BRANCH  10  24
ATOM     24  O   UNL     1     -35.689  27.328   2.715  0.00  0.00    -0.465 OA
ATOM     25  C   UNL     1     -34.464  28.016   2.933  0.00  0.00    +0.253 C 
ENDBRANCH  10  24
BRANCH   7  26
ATOM     26  O   UNL     1     -35.078  25.355   0.933  0.00  0.00    -0.503 OA
ATOM     27  H   UNL     1     -35.314  24.799   0.217  0.00  0.00    +0.292 HD
ENDBRANCH   7  26
BRANCH  11  28
ATOM     28  O   UNL     1     -36.386  26.696   5.314  0.00  0.00    -0.503 OA
ATOM     29  H   UNL     1     -37.274  26.826   5.581  0.00  0.00    +0.292 HD
ENDBRANCH  11  28
TORSDOF 7
ENDMDL
MODEL 6
REMARK VINA RESULT:      -5.9      1.474      3.331
REMARK  Name = 5464170
REMARK  7 active torsions:
REMARK  status: ('A' for Active; 'I' for Inactive)
REMARK    1  A    between atoms: C_4  and  C_12
REMARK    2  A    between atoms: C_7  and  O_26
REMARK    3  A    between atoms: C_10  and  O_24
REMARK    4  A    between atoms: C_11  and  O_28
REMARK    5  A    between atoms: C_15  and  O_18
REMARK    6  A    between atoms: C_16  and  O_22
REMARK    7  A    between atoms: C_17  and  O_20
REMARK                            x       y       z     vdW  Elec       q    Type
REMARK                         _______ _______ _______ _____ _____    ______ ____
ROOT
ATOM      1  O   UNL     1     -35.853  22.069   4.475  0.00  0.00    -0.450 OA
ATOM      2  O   UNL     1     -34.957  22.784   0.560  0.00  0.00    -0.286 OA
ATOM      3  C   UNL     1     -35.503  23.660   2.676  0.00  0.00    +0.110 C 
ATOM      4  C   UNL     1     -35.239  21.184   2.299  0.00  0.00    +0.077 C 
ATOM      5  C   UNL     1     -35.814  23.355   4.000  0.00  0.00    +0.155 C 
ATOM      6  C   UNL     1     -35.205  22.562   1.737  0.00  0.00    +0.205 C 
ATOM      7  C   UNL     1     -35.480  24.989   2.247  0.00  0.00    +0.177 C 
ATOM      8  C   UNL     1     -35.552  21.056   3.597  0.00  0.00    +0.183 C 
ATOM      9  C   UNL     1     -36.103  24.379   4.904  0.00  0.00    +0.078 C 
ATOM     10  C   UNL     1     -35.769  26.011   3.153  0.00  0.00    +0.206 C 
ATOM     11  C   UNL     1     -36.079  25.706   4.479  0.00  0.00    +0.174 C 
ENDROOT
BRANCH   4  12
ATOM     12  C   UNL     1     -34.922  20.002   1.481  0.00  0.00    +0.012 C 
ATOM     13  C   UNL     1     -35.811  19.576   0.492  0.00  0.00    +0.040 C 
ATOM     14  C   UNL     1     -33.732  19.302   1.692  0.00  0.00    +0.040 C 
ATOM     15  C   UNL     1     -35.511  18.456  -0.283  0.00  0.00    +0.175 C 
ATOM     16  C   UNL     1     -33.433  18.182   0.916  0.00  0.00    +0.171 C 
ATOM     17  C   UNL     1     -34.323  17.758  -0.071  0.00  0.00    +0.206 C 
BRANCH  15  18
ATOM     18  O   UNL     1     -36.389  18.053  -1.244  0.00  0.00    -0.468 OA
ATOM     19  C   UNL     1     -37.641  17.554  -0.790  0.00  0.00    +0.253 C 
ENDBRANCH  15  18
BRANCH  17  20
ATOM     20  O   UNL     1     -34.029  16.664  -0.828  0.00  0.00    -0.465 OA
ATOM     21  C   UNL     1     -34.565  15.424  -0.382  0.00  0.00    +0.253 C 
ENDBRANCH  17  20
BRANCH  16  22
ATOM     22  O   UNL     1     -32.267  17.509   1.134  0.00  0.00    -0.503 OA
ATOM     23  H   UNL     1     -31.586  17.534   0.491  0.00  0.00    +0.292 HD
ENDBRANCH  16  22
ENDBRANCH   4  12
BRANCH  10  24
ATOM     24  O   UNL     1     -35.748  27.313   2.744  0.00  0.00    -0.465 OA
ATOM     25  C   UNL     1     -34.521  28.010   2.921  0.00  0.00    +0.253 C 
ENDBRANCH  10  24
BRANCH   7  26
ATOM     26  O   UNL     1     -35.181  25.330   0.961  0.00  0.00    -0.503 OA
ATOM     27  H   UNL     1     -35.467  24.786   0.254  0.00  0.00    +0.292 HD
ENDBRANCH   7  26
BRANCH  11  28
ATOM     28  O   UNL     1     -36.363  26.698   5.369  0.00  0.00    -0.503 OA
ATOM     29  H   UNL     1     -37.253  26.942   5.530  0.00  0.00    +0.292 HD
ENDBRANCH  11  28
TORSDOF 7
ENDMDL
MODEL 7
REMARK VINA RESULT:      -5.9      4.612      7.734
REMARK  Name = 5464170
REMARK  7 active torsions:
REMARK  status: ('A' for Active; 'I' for Inactive)
REMARK    1  A    between atoms: C_4  and  C_12
REMARK    2  A    between atoms: C_7  and  O_26
REMARK    3  A    between atoms: C_10  and  O_24
REMARK    4  A    between atoms: C_11  and  O_28
REMARK    5  A    between atoms: C_15  and  O_18
REMARK    6  A    between atoms: C_16  and  O_22
REMARK    7  A    between atoms: C_17  and  O_20
REMARK                            x       y       z     vdW  Elec       q    Type
REMARK                         _______ _______ _______ _____ _____    ______ ____
ROOT
ATOM      1  O   UNL     1     -33.847  28.863   2.799  0.00  0.00    -0.450 OA
ATOM      2  O   UNL     1     -33.491  25.818   5.490  0.00  0.00    -0.286 OA
ATOM      3  C   UNL     1     -32.832  27.975   4.817  0.00  0.00    +0.110 C 
ATOM      4  C   UNL     1     -34.554  26.659   3.534  0.00  0.00    +0.077 C 
ATOM      5  C   UNL     1     -32.987  28.978   3.861  0.00  0.00    +0.155 C 
ATOM      6  C   UNL     1     -33.618  26.735   4.690  0.00  0.00    +0.205 C 
ATOM      7  C   UNL     1     -31.940  28.147   5.878  0.00  0.00    +0.177 C 
ATOM      8  C   UNL     1     -34.590  27.712   2.702  0.00  0.00    +0.183 C 
ATOM      9  C   UNL     1     -32.250  30.159   3.961  0.00  0.00    +0.078 C 
ATOM     10  C   UNL     1     -31.204  29.329   5.976  0.00  0.00    +0.206 C 
ATOM     11  C   UNL     1     -31.359  30.333   5.019  0.00  0.00    +0.174 C 
ENDROOT
BRANCH   4  12
ATOM     12  C   UNL     1     -35.426  25.495   3.312  0.00  0.00    +0.012 C 
ATOM     13  C   UNL     1     -36.783  25.565   3.634  0.00  0.00    +0.040 C 
ATOM     14  C   UNL     1     -34.901  24.317   2.779  0.00  0.00    +0.040 C 
ATOM     15  C   UNL     1     -37.610  24.462   3.425  0.00  0.00    +0.175 C 
ATOM     16  C   UNL     1     -35.728  23.214   2.568  0.00  0.00    +0.171 C 
ATOM     17  C   UNL     1     -37.083  23.286   2.892  0.00  0.00    +0.206 C 
BRANCH  15  18
ATOM     18  O   UNL     1     -38.932  24.545   3.744  0.00  0.00    -0.468 OA
ATOM     19  C   UNL     1     -39.721  25.423   2.950  0.00  0.00    +0.253 C 
ENDBRANCH  15  18
BRANCH  17  20
ATOM     20  O   UNL     1     -37.891  22.208   2.686  0.00  0.00    -0.465 OA
ATOM     21  C   UNL     1     -38.536  22.134   1.421  0.00  0.00    +0.253 C 
ENDBRANCH  17  20
BRANCH  16  22
ATOM     22  O   UNL     1     -35.200  22.071   2.047  0.00  0.00    -0.503 OA
ATOM     23  H   UNL     1     -35.124  21.971   1.118  0.00  0.00    +0.292 HD
ENDBRANCH  16  22
ENDBRANCH   4  12
BRANCH  10  24
ATOM     24  O   UNL     1     -30.330  29.507   7.009  0.00  0.00    -0.465 OA
ATOM     25  C   UNL     1     -28.984  29.117   6.770  0.00  0.00    +0.253 C 
ENDBRANCH  10  24
BRANCH   7  26
ATOM     26  O   UNL     1     -31.759  27.191   6.834  0.00  0.00    -0.503 OA
ATOM     27  H   UNL     1     -30.908  26.828   6.978  0.00  0.00    +0.292 HD
ENDBRANCH   7  26
BRANCH  11  28
ATOM     28  O   UNL     1     -30.644  31.490   5.107  0.00  0.00    -0.503 OA
ATOM     29  H   UNL     1     -30.958  32.267   4.690  0.00  0.00    +0.292 HD
ENDBRANCH  11  28
TORSDOF 7
ENDMDL
MODEL 8
REMARK VINA RESULT:      -5.8      5.080      8.496
REMARK  Name = 5464170
REMARK  7 active torsions:
REMARK  status: ('A' for Active; 'I' for Inactive)
REMARK    1  A    between atoms: C_4  and  C_12
REMARK    2  A    between atoms: C_7  and  O_26
REMARK    3  A    between atoms: C_10  and  O_24
REMARK    4  A    between atoms: C_11  and  O_28
REMARK    5  A    between atoms: C_15  and  O_18
REMARK    6  A    between atoms: C_16  and  O_22
REMARK    7  A    between atoms: C_17  and  O_20
REMARK                            x       y       z     vdW  Elec       q    Type
REMARK                         _______ _______ _______ _____ _____    ______ ____
ROOT
ATOM      1  O   UNL     1     -32.229  27.411   6.899  0.00  0.00    -0.450 OA
ATOM      2  O   UNL     1     -33.239  27.513   2.947  0.00  0.00    -0.286 OA
ATOM      3  C   UNL     1     -31.805  28.252   4.662  0.00  0.00    +0.110 C 
ATOM      4  C   UNL     1     -33.668  26.618   5.111  0.00  0.00    +0.077 C 
ATOM      5  C   UNL     1     -31.513  28.186   6.024  0.00  0.00    +0.155 C 
ATOM      6  C   UNL     1     -32.930  27.461   4.130  0.00  0.00    +0.205 C 
ATOM      7  C   UNL     1     -31.041  29.060   3.816  0.00  0.00    +0.177 C 
ATOM      8  C   UNL     1     -33.262  26.662   6.389  0.00  0.00    +0.183 C 
ATOM      9  C   UNL     1     -30.454  28.930   6.547  0.00  0.00    +0.078 C 
ATOM     10  C   UNL     1     -29.983  29.803   4.343  0.00  0.00    +0.206 C 
ATOM     11  C   UNL     1     -29.690  29.737   5.706  0.00  0.00    +0.174 C 
ENDROOT
BRANCH   4  12
ATOM     12  C   UNL     1     -34.786  25.750   4.706  0.00  0.00    +0.012 C 
ATOM     13  C   UNL     1     -34.637  24.361   4.729  0.00  0.00    +0.040 C 
ATOM     14  C   UNL     1     -35.998  26.311   4.300  0.00  0.00    +0.040 C 
ATOM     15  C   UNL     1     -35.696  23.538   4.345  0.00  0.00    +0.175 C 
ATOM     16  C   UNL     1     -37.057  25.487   3.917  0.00  0.00    +0.171 C 
ATOM     17  C   UNL     1     -36.906  24.101   3.939  0.00  0.00    +0.206 C 
BRANCH  15  18
ATOM     18  O   UNL     1     -35.536  22.186   4.372  0.00  0.00    -0.468 OA
ATOM     19  C   UNL     1     -35.153  21.618   5.619  0.00  0.00    +0.253 C 
ENDBRANCH  15  18
BRANCH  17  20
ATOM     20  O   UNL     1     -37.941  23.296   3.565  0.00  0.00    -0.465 OA
ATOM     21  C   UNL     1     -37.979  22.911   2.197  0.00  0.00    +0.253 C 
ENDBRANCH  17  20
BRANCH  16  22
ATOM     22  O   UNL     1     -38.234  26.050   3.523  0.00  0.00    -0.503 OA
ATOM     23  H   UNL     1     -38.383  26.236   2.617  0.00  0.00    +0.292 HD
ENDBRANCH  16  22
ENDBRANCH   4  12
BRANCH  10  24
ATOM     24  O   UNL     1     -29.230  30.596   3.526  0.00  0.00    -0.465 OA
ATOM     25  C   UNL     1     -29.647  31.949   3.402  0.00  0.00    +0.253 C 
ENDBRANCH  10  24
BRANCH   7  26
ATOM     26  O   UNL     1     -31.294  29.152   2.480  0.00  0.00    -0.503 OA
ATOM     27  H   UNL     1     -31.994  28.659   2.100  0.00  0.00    +0.292 HD
ENDBRANCH   7  26
BRANCH  11  28
ATOM     28  O   UNL     1     -28.659  30.459   6.228  0.00  0.00    -0.503 OA
ATOM     29  H   UNL     1     -28.589  30.573   7.155  0.00  0.00    +0.292 HD
ENDBRANCH  11  28
TORSDOF 7
ENDMDL
MODEL 9
REMARK VINA RESULT:      -5.6      3.878      8.515
REMARK  Name = 5464170
REMARK  7 active torsions:
REMARK  status: ('A' for Active; 'I' for Inactive)
REMARK    1  A    between atoms: C_4  and  C_12
REMARK    2  A    between atoms: C_7  and  O_26
REMARK    3  A    between atoms: C_10  and  O_24
REMARK    4  A    between atoms: C_11  and  O_28
REMARK    5  A    between atoms: C_15  and  O_18
REMARK    6  A    between atoms: C_16  and  O_22
REMARK    7  A    between atoms: C_17  and  O_20
REMARK                            x       y       z     vdW  Elec       q    Type
REMARK                         _______ _______ _______ _____ _____    ______ ____
ROOT
ATOM      1  O   UNL     1     -38.158  24.743   3.752  0.00  0.00    -0.450 OA
ATOM      2  O   UNL     1     -34.385  23.633   2.666  0.00  0.00    -0.286 OA
ATOM      3  C   UNL     1     -36.697  23.194   2.588  0.00  0.00    +0.110 C 
ATOM      4  C   UNL     1     -35.775  25.212   3.780  0.00  0.00    +0.077 C 
ATOM      5  C   UNL     1     -37.961  23.616   2.997  0.00  0.00    +0.155 C 
ATOM      6  C   UNL     1     -35.515  23.984   2.979  0.00  0.00    +0.205 C 
ATOM      7  C   UNL     1     -36.556  22.034   1.821  0.00  0.00    +0.177 C 
ATOM      8  C   UNL     1     -37.052  25.484   4.091  0.00  0.00    +0.183 C 
ATOM      9  C   UNL     1     -39.093  22.880   2.641  0.00  0.00    +0.078 C 
ATOM     10  C   UNL     1     -37.689  21.301   1.466  0.00  0.00    +0.206 C 
ATOM     11  C   UNL     1     -38.955  21.723   1.875  0.00  0.00    +0.174 C 
ENDROOT
BRANCH   4  12
ATOM     12  C   UNL     1     -34.690  26.112   4.201  0.00  0.00    +0.012 C 
ATOM     13  C   UNL     1     -34.210  27.088   3.325  0.00  0.00    +0.040 C 
ATOM     14  C   UNL     1     -34.136  25.993   5.477  0.00  0.00    +0.040 C 
ATOM     15  C   UNL     1     -33.181  27.941   3.724  0.00  0.00    +0.175 C 
ATOM     16  C   UNL     1     -33.107  26.847   5.876  0.00  0.00    +0.171 C 
ATOM     17  C   UNL     1     -32.629  27.820   4.999  0.00  0.00    +0.206 C 
BRANCH  15  18
ATOM     18  O   UNL     1     -32.724  28.888   2.859  0.00  0.00    -0.468 OA
ATOM     19  C   UNL     1     -33.652  29.894   2.471  0.00  0.00    +0.253 C 
ENDBRANCH  15  18
BRANCH  17  20
ATOM     20  O   UNL     1     -31.624  28.654   5.390  0.00  0.00    -0.465 OA
ATOM     21  C   UNL     1     -32.019  29.884   5.985  0.00  0.00    +0.253 C 
ENDBRANCH  17  20
BRANCH  16  22
ATOM     22  O   UNL     1     -32.577  26.718   7.125  0.00  0.00    -0.503 OA
ATOM     23  H   UNL     1     -33.136  26.756   7.877  0.00  0.00    +0.292 HD
ENDBRANCH  16  22
ENDBRANCH   4  12
BRANCH  10  24
ATOM     24  O   UNL     1     -37.563  20.167   0.717  0.00  0.00    -0.465 OA
ATOM     25  C   UNL     1     -37.630  20.333  -0.693  0.00  0.00    +0.253 C 
ENDBRANCH  10  24
BRANCH   7  26
ATOM     26  O   UNL     1     -35.338  21.588   1.401  0.00  0.00    -0.503 OA
ATOM     27  H   UNL     1     -35.272  21.071   0.623  0.00  0.00    +0.292 HD
ENDBRANCH   7  26
BRANCH  11  28
ATOM     28  O   UNL     1     -40.066  21.011   1.534  0.00  0.00    -0.503 OA
ATOM     29  H   UNL     1     -40.379  20.333   2.098  0.00  0.00    +0.292 HD
ENDBRANCH  11  28
TORSDOF 7
ENDMDL
