MODEL 1
REMARK VINA RESULT:      -5.6      0.000      0.000
REMARK  Name = 60582
REMARK  7 active torsions:
REMARK  status: ('A' for Active; 'I' for Inactive)
REMARK    1  A    between atoms: C_1  and  N_8
REMARK    2  A    between atoms: C_2  and  S_17
REMARK    3  A    between atoms: C_9  and  C_11
REMARK    4  A    between atoms: C_11  and  C_12
REMARK    5  A    between atoms: C_12  and  C_14
REMARK    6  A    between atoms: C_14  and  O_15
REMARK    7  A    between atoms: S_17  and  N_20
REMARK                            x       y       z     vdW  Elec       q    Type
REMARK                         _______ _______ _______ _____ _____    ______ ____
ROOT
ATOM      1  C   UNL     1     -33.542  26.606   4.847  0.00  0.00    +0.050 C 
ATOM      2  C   UNL     1     -35.075  24.362   4.307  0.00  0.00    +0.122 C 
ATOM      3  C   UNL     1     -35.111  24.943   5.575  0.00  0.00    +0.021 C 
ATOM      4  C   UNL     1     -34.267  24.911   3.312  0.00  0.00    +0.021 C 
ATOM      5  C   UNL     1     -34.339  26.072   5.847  0.00  0.00    +0.016 C 
ATOM      6  C   UNL     1     -33.495  26.041   3.583  0.00  0.00    +0.016 C 
ENDROOT
BRANCH   1   8
ATOM      7  O   UNL     1     -33.637  29.366   3.659  0.00  0.00    -0.275 OA
ATOM      8  N   UNL     1     -32.759  27.752   5.122  0.00  0.00    -0.284 N 
ATOM      9  C   UNL     1     -32.850  29.003   4.528  0.00  0.00    +0.227 C 
ATOM     10  H   UNL     1     -32.068  27.649   5.817  0.00  0.00    +0.155 HD
BRANCH   9  11
ATOM     11  C   UNL     1     -31.829  29.974   5.098  0.00  0.00    +0.097 C 
BRANCH  11  12
ATOM     12  C   UNL     1     -31.486  29.624   6.541  0.00  0.00    +0.119 C 
BRANCH  12  14
ATOM     13  O   UNL     1     -29.088  29.785   6.788  0.00  0.00    -0.250 OA
ATOM     14  C   UNL     1     -30.084  29.083   6.669  0.00  0.00    +0.314 C 
BRANCH  14  15
ATOM     15  O   UNL     1     -30.043  27.727   6.649  0.00  0.00    -0.480 OA
ATOM     16  H   UNL     1     -30.715  27.245   6.210  0.00  0.00    +0.295 HD
ENDBRANCH  14  15
ENDBRANCH  12  14
ENDBRANCH  11  12
ENDBRANCH   9  11
ENDBRANCH   1   8
BRANCH   2  17
ATOM     17  S   UNL     1     -36.040  22.948   3.967  0.00  0.00    +0.057 S 
ATOM     18  O   UNL     1     -37.399  23.379   3.672  0.00  0.00    -0.153 OA
ATOM     19  O   UNL     1     -35.321  22.115   3.013  0.00  0.00    -0.153 OA
BRANCH  17  20
ATOM     20  N   UNL     1     -36.027  22.172   5.489  0.00  0.00    -0.203 NA
ATOM     21  H   UNL     1     -36.768  21.471   5.520  0.00  0.00    +0.144 HD
ATOM     22  H   UNL     1     -36.182  22.862   6.225  0.00  0.00    +0.144 HD
ENDBRANCH  17  20
ENDBRANCH   2  17
TORSDOF 7
ENDMDL
MODEL 2
REMARK VINA RESULT:      -5.6      1.214      1.219
REMARK  Name = 60582
REMARK  7 active torsions:
REMARK  status: ('A' for Active; 'I' for Inactive)
REMARK    1  A    between atoms: C_1  and  N_8
REMARK    2  A    between atoms: C_2  and  S_17
REMARK    3  A    between atoms: C_9  and  C_11
REMARK    4  A    between atoms: C_11  and  C_12
REMARK    5  A    between atoms: C_12  and  C_14
REMARK    6  A    between atoms: C_14  and  O_15
REMARK    7  A    between atoms: S_17  and  N_20
REMARK                            x       y       z     vdW  Elec       q    Type
REMARK                         _______ _______ _______ _____ _____    ______ ____
ROOT
ATOM      1  C   UNL     1     -33.893  26.499   4.629  0.00  0.00    +0.050 C 
ATOM      2  C   UNL     1     -35.250  24.137   4.119  0.00  0.00    +0.122 C 
ATOM      3  C   UNL     1     -35.396  24.774   5.352  0.00  0.00    +0.021 C 
ATOM      4  C   UNL     1     -34.421  24.690   3.143  0.00  0.00    +0.021 C 
ATOM      5  C   UNL     1     -34.713  25.963   5.608  0.00  0.00    +0.016 C 
ATOM      6  C   UNL     1     -33.737  25.878   3.399  0.00  0.00    +0.016 C 
ENDROOT
BRANCH   1   8
ATOM      7  O   UNL     1     -31.848  27.160   6.731  0.00  0.00    -0.275 OA
ATOM      8  N   UNL     1     -33.200  27.705   4.888  0.00  0.00    -0.284 N 
ATOM      9  C   UNL     1     -32.266  27.946   5.887  0.00  0.00    +0.227 C 
ATOM     10  H   UNL     1     -33.404  28.460   4.290  0.00  0.00    +0.155 HD
BRANCH   9  11
ATOM     11  C   UNL     1     -31.746  29.374   5.837  0.00  0.00    +0.097 C 
BRANCH  11  12
ATOM     12  C   UNL     1     -30.891  29.688   7.059  0.00  0.00    +0.119 C 
BRANCH  12  14
ATOM     13  O   UNL     1     -28.671  30.271   6.303  0.00  0.00    -0.250 OA
ATOM     14  C   UNL     1     -29.425  29.443   6.796  0.00  0.00    +0.314 C 
BRANCH  14  15
ATOM     15  O   UNL     1     -29.027  28.203   7.176  0.00  0.00    -0.480 OA
ATOM     16  H   UNL     1     -29.009  27.975   8.084  0.00  0.00    +0.295 HD
ENDBRANCH  14  15
ENDBRANCH  12  14
ENDBRANCH  11  12
ENDBRANCH   9  11
ENDBRANCH   1   8
BRANCH   2  17
ATOM     17  S   UNL     1     -36.104  22.649   3.798  0.00  0.00    +0.057 S 
ATOM     18  O   UNL     1     -37.493  22.971   3.503  0.00  0.00    -0.153 OA
ATOM     19  O   UNL     1     -35.325  21.864   2.851  0.00  0.00    -0.153 OA
BRANCH  17  20
ATOM     20  N   UNL     1     -36.027  21.894   5.329  0.00  0.00    -0.203 NA
ATOM     21  H   UNL     1     -35.179  22.192   5.813  0.00  0.00    +0.144 HD
ATOM     22  H   UNL     1     -36.011  20.881   5.209  0.00  0.00    +0.144 HD
ENDBRANCH  17  20
ENDBRANCH   2  17
TORSDOF 7
ENDMDL
MODEL 3
REMARK VINA RESULT:      -5.5      1.101      1.599
REMARK  Name = 60582
REMARK  7 active torsions:
REMARK  status: ('A' for Active; 'I' for Inactive)
REMARK    1  A    between atoms: C_1  and  N_8
REMARK    2  A    between atoms: C_2  and  S_17
REMARK    3  A    between atoms: C_9  and  C_11
REMARK    4  A    between atoms: C_11  and  C_12
REMARK    5  A    between atoms: C_12  and  C_14
REMARK    6  A    between atoms: C_14  and  O_15
REMARK    7  A    between atoms: S_17  and  N_20
REMARK                            x       y       z     vdW  Elec       q    Type
REMARK                         _______ _______ _______ _____ _____    ______ ____
ROOT
ATOM      1  C   UNL     1     -33.858  26.773   4.393  0.00  0.00    +0.050 C 
ATOM      2  C   UNL     1     -35.194  24.353   4.208  0.00  0.00    +0.122 C 
ATOM      3  C   UNL     1     -34.872  25.062   3.051  0.00  0.00    +0.021 C 
ATOM      4  C   UNL     1     -34.843  24.862   5.459  0.00  0.00    +0.021 C 
ATOM      5  C   UNL     1     -34.200  26.281   3.145  0.00  0.00    +0.016 C 
ATOM      6  C   UNL     1     -34.171  26.080   5.552  0.00  0.00    +0.016 C 
ENDROOT
BRANCH   1   8
ATOM      7  O   UNL     1     -31.014  27.489   3.731  0.00  0.00    -0.275 OA
ATOM      8  N   UNL     1     -33.176  28.009   4.489  0.00  0.00    -0.284 N 
ATOM      9  C   UNL     1     -31.851  28.272   4.171  0.00  0.00    +0.227 C 
ATOM     10  H   UNL     1     -33.704  28.772   4.820  0.00  0.00    +0.155 HD
BRANCH   9  11
ATOM     11  C   UNL     1     -31.492  29.729   4.411  0.00  0.00    +0.097 C 
BRANCH  11  12
ATOM     12  C   UNL     1     -31.918  30.176   5.804  0.00  0.00    +0.119 C 
BRANCH  12  14
ATOM     13  O   UNL     1     -30.027  29.529   7.163  0.00  0.00    -0.250 OA
ATOM     14  C   UNL     1     -31.212  29.395   6.885  0.00  0.00    +0.314 C 
BRANCH  14  15
ATOM     15  O   UNL     1     -32.035  28.529   7.527  0.00  0.00    -0.480 OA
ATOM     16  H   UNL     1     -31.702  27.714   7.845  0.00  0.00    +0.295 HD
ENDBRANCH  14  15
ENDBRANCH  12  14
ENDBRANCH  11  12
ENDBRANCH   9  11
ENDBRANCH   1   8
BRANCH   2  17
ATOM     17  S   UNL     1     -36.036  22.828   4.092  0.00  0.00    +0.057 S 
ATOM     18  O   UNL     1     -37.412  23.092   3.698  0.00  0.00    -0.153 OA
ATOM     19  O   UNL     1     -35.222  21.909   3.309  0.00  0.00    -0.153 OA
BRANCH  17  20
ATOM     20  N   UNL     1     -36.018  22.321   5.723  0.00  0.00    -0.203 NA
ATOM     21  H   UNL     1     -35.707  21.351   5.775  0.00  0.00    +0.144 HD
ATOM     22  H   UNL     1     -36.957  22.398   6.114  0.00  0.00    +0.144 HD
ENDBRANCH  17  20
ENDBRANCH   2  17
TORSDOF 7
ENDMDL
MODEL 4
REMARK VINA RESULT:      -5.5      1.216      2.534
REMARK  Name = 60582
REMARK  7 active torsions:
REMARK  status: ('A' for Active; 'I' for Inactive)
REMARK    1  A    between atoms: C_1  and  N_8
REMARK    2  A    between atoms: C_2  and  S_17
REMARK    3  A    between atoms: C_9  and  C_11
REMARK    4  A    between atoms: C_11  and  C_12
REMARK    5  A    between atoms: C_12  and  C_14
REMARK    6  A    between atoms: C_14  and  O_15
REMARK    7  A    between atoms: S_17  and  N_20
REMARK                            x       y       z     vdW  Elec       q    Type
REMARK                         _______ _______ _______ _____ _____    ______ ____
ROOT
ATOM      1  C   UNL     1     -33.885  26.577   4.794  0.00  0.00    +0.050 C 
ATOM      2  C   UNL     1     -35.167  24.189   4.221  0.00  0.00    +0.122 C 
ATOM      3  C   UNL     1     -34.385  24.812   3.248  0.00  0.00    +0.021 C 
ATOM      4  C   UNL     1     -35.303  24.768   5.482  0.00  0.00    +0.021 C 
ATOM      5  C   UNL     1     -33.740  26.014   3.537  0.00  0.00    +0.016 C 
ATOM      6  C   UNL     1     -34.658  25.971   5.771  0.00  0.00    +0.016 C 
ENDROOT
BRANCH   1   8
ATOM      7  O   UNL     1     -31.578  27.162   6.631  0.00  0.00    -0.275 OA
ATOM      8  N   UNL     1     -33.231  27.797   5.087  0.00  0.00    -0.284 N 
ATOM      9  C   UNL     1     -32.168  28.000   5.957  0.00  0.00    +0.227 C 
ATOM     10  H   UNL     1     -33.570  28.595   4.619  0.00  0.00    +0.155 HD
BRANCH   9  11
ATOM     11  C   UNL     1     -31.746  29.460   5.999  0.00  0.00    +0.097 C 
BRANCH  11  12
ATOM     12  C   UNL     1     -31.290  29.938   4.626  0.00  0.00    +0.119 C 
BRANCH  12  14
ATOM     13  O   UNL     1     -31.819  32.010   3.502  0.00  0.00    -0.250 OA
ATOM     14  C   UNL     1     -32.208  30.997   4.067  0.00  0.00    +0.314 C 
BRANCH  14  15
ATOM     15  O   UNL     1     -33.519  30.701   4.250  0.00  0.00    -0.480 OA
ATOM     16  H   UNL     1     -34.179  31.223   3.839  0.00  0.00    +0.295 HD
ENDBRANCH  14  15
ENDBRANCH  12  14
ENDBRANCH  11  12
ENDBRANCH   9  11
ENDBRANCH   1   8
BRANCH   2  17
ATOM     17  S   UNL     1     -35.975  22.684   3.859  0.00  0.00    +0.057 S 
ATOM     18  O   UNL     1     -37.369  22.973   3.552  0.00  0.00    -0.153 OA
ATOM     19  O   UNL     1     -35.163  21.940   2.907  0.00  0.00    -0.153 OA
BRANCH  17  20
ATOM     20  N   UNL     1     -35.896  21.901   5.376  0.00  0.00    -0.203 NA
ATOM     21  H   UNL     1     -36.270  20.955   5.290  0.00  0.00    +0.144 HD
ATOM     22  H   UNL     1     -36.446  22.423   6.058  0.00  0.00    +0.144 HD
ENDBRANCH  17  20
ENDBRANCH   2  17
TORSDOF 7
ENDMDL
MODEL 5
REMARK VINA RESULT:      -5.4      2.723      7.393
REMARK  Name = 60582
REMARK  7 active torsions:
REMARK  status: ('A' for Active; 'I' for Inactive)
REMARK    1  A    between atoms: C_1  and  N_8
REMARK    2  A    between atoms: C_2  and  S_17
REMARK    3  A    between atoms: C_9  and  C_11
REMARK    4  A    between atoms: C_11  and  C_12
REMARK    5  A    between atoms: C_12  and  C_14
REMARK    6  A    between atoms: C_14  and  O_15
REMARK    7  A    between atoms: S_17  and  N_20
REMARK                            x       y       z     vdW  Elec       q    Type
REMARK                         _______ _______ _______ _____ _____    ______ ____
ROOT
ATOM      1  C   UNL     1     -34.628  25.003   3.911  0.00  0.00    +0.050 C 
ATOM      2  C   UNL     1     -33.041  27.037   4.920  0.00  0.00    +0.122 C 
ATOM      3  C   UNL     1     -33.109  26.823   3.543  0.00  0.00    +0.021 C 
ATOM      4  C   UNL     1     -33.771  26.227   5.788  0.00  0.00    +0.021 C 
ATOM      5  C   UNL     1     -33.908  25.798   3.036  0.00  0.00    +0.016 C 
ATOM      6  C   UNL     1     -34.570  25.203   5.281  0.00  0.00    +0.016 C 
ENDROOT
BRANCH   1   8
ATOM      7  O   UNL     1     -37.587  24.531   4.160  0.00  0.00    -0.275 OA
ATOM      8  N   UNL     1     -35.439  23.963   3.397  0.00  0.00    -0.284 N 
ATOM      9  C   UNL     1     -36.808  23.800   3.557  0.00  0.00    +0.227 C 
ATOM     10  H   UNL     1     -34.977  23.275   2.865  0.00  0.00    +0.155 HD
BRANCH   9  11
ATOM     11  C   UNL     1     -37.313  22.552   2.850  0.00  0.00    +0.097 C 
BRANCH  11  12
ATOM     12  C   UNL     1     -36.208  21.906   2.023  0.00  0.00    +0.119 C 
BRANCH  12  14
ATOM     13  O   UNL     1     -34.776  20.137   2.832  0.00  0.00    -0.250 OA
ATOM     14  C   UNL     1     -35.893  20.510   2.500  0.00  0.00    +0.314 C 
BRANCH  14  15
ATOM     15  O   UNL     1     -36.987  19.709   2.532  0.00  0.00    -0.480 OA
ATOM     16  H   UNL     1     -37.822  20.047   2.276  0.00  0.00    +0.295 HD
ENDBRANCH  14  15
ENDBRANCH  12  14
ENDBRANCH  11  12
ENDBRANCH   9  11
ENDBRANCH   1   8
BRANCH   2  17
ATOM     17  S   UNL     1     -32.040  28.319   5.555  0.00  0.00    +0.057 S 
ATOM     18  O   UNL     1     -32.349  28.486   6.967  0.00  0.00    -0.153 OA
ATOM     19  O   UNL     1     -30.665  28.082   5.137  0.00  0.00    -0.153 OA
BRANCH  17  20
ATOM     20  N   UNL     1     -32.649  29.663   4.695  0.00  0.00    -0.203 NA
ATOM     21  H   UNL     1     -32.054  29.848   3.886  0.00  0.00    +0.144 HD
ATOM     22  H   UNL     1     -32.658  30.482   5.304  0.00  0.00    +0.144 HD
ENDBRANCH  17  20
ENDBRANCH   2  17
TORSDOF 7
ENDMDL
MODEL 6
REMARK VINA RESULT:      -5.4      2.955      6.939
REMARK  Name = 60582
REMARK  7 active torsions:
REMARK  status: ('A' for Active; 'I' for Inactive)
REMARK    1  A    between atoms: C_1  and  N_8
REMARK    2  A    between atoms: C_2  and  S_17
REMARK    3  A    between atoms: C_9  and  C_11
REMARK    4  A    between atoms: C_11  and  C_12
REMARK    5  A    between atoms: C_12  and  C_14
REMARK    6  A    between atoms: C_14  and  O_15
REMARK    7  A    between atoms: S_17  and  N_20
REMARK                            x       y       z     vdW  Elec       q    Type
REMARK                         _______ _______ _______ _____ _____    ______ ____
ROOT
ATOM      1  C   UNL     1     -33.915  25.962   4.826  0.00  0.00    +0.050 C 
ATOM      2  C   UNL     1     -32.334  28.159   5.419  0.00  0.00    +0.122 C 
ATOM      3  C   UNL     1     -32.606  27.834   4.090  0.00  0.00    +0.021 C 
ATOM      4  C   UNL     1     -32.857  27.378   6.449  0.00  0.00    +0.021 C 
ATOM      5  C   UNL     1     -33.402  26.728   3.792  0.00  0.00    +0.016 C 
ATOM      6  C   UNL     1     -33.654  26.272   6.151  0.00  0.00    +0.016 C 
ENDROOT
BRANCH   1   8
ATOM      7  O   UNL     1     -36.714  25.808   3.736  0.00  0.00    -0.275 OA
ATOM      8  N   UNL     1     -34.723  24.840   4.524  0.00  0.00    -0.284 N 
ATOM      9  C   UNL     1     -36.019  24.839   4.026  0.00  0.00    +0.227 C 
ATOM     10  H   UNL     1     -34.317  23.957   4.686  0.00  0.00    +0.155 HD
BRANCH   9  11
ATOM     11  C   UNL     1     -36.547  23.427   3.834  0.00  0.00    +0.097 C 
BRANCH  11  12
ATOM     12  C   UNL     1     -35.457  22.394   4.094  0.00  0.00    +0.119 C 
BRANCH  12  14
ATOM     13  O   UNL     1     -35.929  22.490   6.461  0.00  0.00    -0.250 OA
ATOM     14  C   UNL     1     -35.521  21.852   5.500  0.00  0.00    +0.314 C 
BRANCH  14  15
ATOM     15  O   UNL     1     -35.085  20.570   5.586  0.00  0.00    -0.480 OA
ATOM     16  H   UNL     1     -35.628  19.869   5.285  0.00  0.00    +0.295 HD
ENDBRANCH  14  15
ENDBRANCH  12  14
ENDBRANCH  11  12
ENDBRANCH   9  11
ENDBRANCH   1   8
BRANCH   2  17
ATOM     17  S   UNL     1     -31.337  29.542   5.792  0.00  0.00    +0.057 S 
ATOM     18  O   UNL     1     -30.404  29.746   4.694  0.00  0.00    -0.153 OA
ATOM     19  O   UNL     1     -32.202  30.633   6.221  0.00  0.00    -0.153 OA
BRANCH  17  20
ATOM     20  N   UNL     1     -30.473  28.964   7.148  0.00  0.00    -0.203 NA
ATOM     21  H   UNL     1     -29.586  28.564   6.841  0.00  0.00    +0.144 HD
ATOM     22  H   UNL     1     -31.023  28.246   7.621  0.00  0.00    +0.144 HD
ENDBRANCH  17  20
ENDBRANCH   2  17
TORSDOF 7
ENDMDL
MODEL 7
REMARK VINA RESULT:      -5.3      4.621      6.783
REMARK  Name = 60582
REMARK  7 active torsions:
REMARK  status: ('A' for Active; 'I' for Inactive)
REMARK    1  A    between atoms: C_1  and  N_8
REMARK    2  A    between atoms: C_2  and  S_17
REMARK    3  A    between atoms: C_9  and  C_11
REMARK    4  A    between atoms: C_11  and  C_12
REMARK    5  A    between atoms: C_12  and  C_14
REMARK    6  A    between atoms: C_14  and  O_15
REMARK    7  A    between atoms: S_17  and  N_20
REMARK                            x       y       z     vdW  Elec       q    Type
REMARK                         _______ _______ _______ _____ _____    ______ ____
ROOT
ATOM      1  C   UNL     1     -35.739  21.288   2.554  0.00  0.00    +0.050 C 
ATOM      2  C   UNL     1     -36.140  19.336   0.629  0.00  0.00    +0.122 C 
ATOM      3  C   UNL     1     -37.203  20.142   1.037  0.00  0.00    +0.021 C 
ATOM      4  C   UNL     1     -34.875  19.512   1.191  0.00  0.00    +0.021 C 
ATOM      5  C   UNL     1     -37.001  21.125   2.006  0.00  0.00    +0.016 C 
ATOM      6  C   UNL     1     -34.673  20.495   2.160  0.00  0.00    +0.016 C 
ENDROOT
BRANCH   1   8
ATOM      7  O   UNL     1     -35.246  21.041   5.510  0.00  0.00    -0.275 OA
ATOM      8  N   UNL     1     -35.534  22.285   3.538  0.00  0.00    -0.284 N 
ATOM      9  C   UNL     1     -35.318  22.101   4.897  0.00  0.00    +0.227 C 
ATOM     10  H   UNL     1     -35.547  23.217   3.220  0.00  0.00    +0.155 HD
BRANCH   9  11
ATOM     11  C   UNL     1     -35.142  23.425   5.623  0.00  0.00    +0.097 C 
BRANCH  11  12
ATOM     12  C   UNL     1     -35.801  24.564   4.854  0.00  0.00    +0.119 C 
BRANCH  12  14
ATOM     13  O   UNL     1     -34.464  26.232   5.980  0.00  0.00    -0.250 OA
ATOM     14  C   UNL     1     -35.541  25.902   5.500  0.00  0.00    +0.314 C 
BRANCH  14  15
ATOM     15  O   UNL     1     -36.630  26.710   5.485  0.00  0.00    -0.480 OA
ATOM     16  H   UNL     1     -36.647  27.461   4.925  0.00  0.00    +0.295 HD
ENDBRANCH  14  15
ENDBRANCH  12  14
ENDBRANCH  11  12
ENDBRANCH   9  11
ENDBRANCH   1   8
BRANCH   2  17
ATOM     17  S   UNL     1     -36.392  18.105  -0.583  0.00  0.00    +0.057 S 
ATOM     18  O   UNL     1     -37.121  18.699  -1.695  0.00  0.00    -0.153 OA
ATOM     19  O   UNL     1     -35.126  17.429  -0.825  0.00  0.00    -0.153 OA
BRANCH  17  20
ATOM     20  N   UNL     1     -37.433  17.037   0.250  0.00  0.00    -0.203 NA
ATOM     21  H   UNL     1     -37.681  17.440   1.154  0.00  0.00    +0.144 HD
ATOM     22  H   UNL     1     -36.960  16.145   0.395  0.00  0.00    +0.144 HD
ENDBRANCH  17  20
ENDBRANCH   2  17
TORSDOF 7
ENDMDL
MODEL 8
REMARK VINA RESULT:      -5.2      5.775     10.206
REMARK  Name = 60582
REMARK  7 active torsions:
REMARK  status: ('A' for Active; 'I' for Inactive)
REMARK    1  A    between atoms: C_1  and  N_8
REMARK    2  A    between atoms: C_2  and  S_17
REMARK    3  A    between atoms: C_9  and  C_11
REMARK    4  A    between atoms: C_11  and  C_12
REMARK    5  A    between atoms: C_12  and  C_14
REMARK    6  A    between atoms: C_14  and  O_15
REMARK    7  A    between atoms: S_17  and  N_20
REMARK                            x       y       z     vdW  Elec       q    Type
REMARK                         _______ _______ _______ _____ _____    ______ ____
ROOT
ATOM      1  C   UNL     1     -36.575  20.439   1.774  0.00  0.00    +0.050 C 
ATOM      2  C   UNL     1     -36.415  22.720   3.337  0.00  0.00    +0.122 C 
ATOM      3  C   UNL     1     -35.409  21.756   3.405  0.00  0.00    +0.021 C 
ATOM      4  C   UNL     1     -37.501  22.536   2.483  0.00  0.00    +0.021 C 
ATOM      5  C   UNL     1     -35.490  20.607   2.618  0.00  0.00    +0.016 C 
ATOM      6  C   UNL     1     -37.583  21.387   1.695  0.00  0.00    +0.016 C 
ENDROOT
BRANCH   1   8
ATOM      7  O   UNL     1     -35.175  19.726  -0.790  0.00  0.00    -0.275 OA
ATOM      8  N   UNL     1     -36.658  19.273   0.975  0.00  0.00    -0.284 N 
ATOM      9  C   UNL     1     -35.985  19.009  -0.210  0.00  0.00    +0.227 C 
ATOM     10  H   UNL     1     -37.265  18.568   1.298  0.00  0.00    +0.155 HD
BRANCH   9  11
ATOM     11  C   UNL     1     -36.344  17.642  -0.769  0.00  0.00    +0.097 C 
BRANCH  11  12
ATOM     12  C   UNL     1     -37.773  17.259  -0.405  0.00  0.00    +0.119 C 
BRANCH  12  14
ATOM     13  O   UNL     1     -38.818  15.094  -0.163  0.00  0.00    -0.250 OA
ATOM     14  C   UNL     1     -37.867  15.829   0.068  0.00  0.00    +0.314 C 
BRANCH  14  15
ATOM     15  O   UNL     1     -36.776  15.439   0.774  0.00  0.00    -0.480 OA
ATOM     16  H   UNL     1     -35.982  15.225   0.327  0.00  0.00    +0.295 HD
ENDBRANCH  14  15
ENDBRANCH  12  14
ENDBRANCH  11  12
ENDBRANCH   9  11
ENDBRANCH   1   8
BRANCH   2  17
ATOM     17  S   UNL     1     -36.314  24.158   4.323  0.00  0.00    +0.057 S 
ATOM     18  O   UNL     1     -36.094  23.753   5.704  0.00  0.00    -0.153 OA
ATOM     19  O   UNL     1     -35.396  25.091   3.686  0.00  0.00    -0.153 OA
BRANCH  17  20
ATOM     20  N   UNL     1     -37.904  24.766   4.174  0.00  0.00    -0.203 NA
ATOM     21  H   UNL     1     -38.144  24.849   3.186  0.00  0.00    +0.144 HD
ATOM     22  H   UNL     1     -37.960  25.683   4.616  0.00  0.00    +0.144 HD
ENDBRANCH  17  20
ENDBRANCH   2  17
TORSDOF 7
ENDMDL
MODEL 9
REMARK VINA RESULT:      -5.1      2.504      3.319
REMARK  Name = 60582
REMARK  7 active torsions:
REMARK  status: ('A' for Active; 'I' for Inactive)
REMARK    1  A    between atoms: C_1  and  N_8
REMARK    2  A    between atoms: C_2  and  S_17
REMARK    3  A    between atoms: C_9  and  C_11
REMARK    4  A    between atoms: C_11  and  C_12
REMARK    5  A    between atoms: C_12  and  C_14
REMARK    6  A    between atoms: C_14  and  O_15
REMARK    7  A    between atoms: S_17  and  N_20
REMARK                            x       y       z     vdW  Elec       q    Type
REMARK                         _______ _______ _______ _____ _____    ______ ____
ROOT
ATOM      1  C   UNL     1     -34.769  23.976   4.080  0.00  0.00    +0.050 C 
ATOM      2  C   UNL     1     -36.159  22.209   2.461  0.00  0.00    +0.122 C 
ATOM      3  C   UNL     1     -35.696  23.417   1.939  0.00  0.00    +0.021 C 
ATOM      4  C   UNL     1     -35.923  21.891   3.798  0.00  0.00    +0.021 C 
ATOM      5  C   UNL     1     -34.996  24.306   2.755  0.00  0.00    +0.016 C 
ATOM      6  C   UNL     1     -35.223  22.780   4.614  0.00  0.00    +0.016 C 
ENDROOT
BRANCH   1   8
ATOM      7  O   UNL     1     -35.742  26.309   5.709  0.00  0.00    -0.275 OA
ATOM      8  N   UNL     1     -34.060  24.878   4.908  0.00  0.00    -0.284 N 
ATOM      9  C   UNL     1     -34.572  25.946   5.632  0.00  0.00    +0.227 C 
ATOM     10  H   UNL     1     -33.088  24.730   4.979  0.00  0.00    +0.155 HD
BRANCH   9  11
ATOM     11  C   UNL     1     -33.485  26.679   6.401  0.00  0.00    +0.097 C 
BRANCH  11  12
ATOM     12  C   UNL     1     -32.580  27.462   5.459  0.00  0.00    +0.119 C 
BRANCH  12  14
ATOM     13  O   UNL     1     -32.050  29.585   6.483  0.00  0.00    -0.250 OA
ATOM     14  C   UNL     1     -31.709  28.443   6.203  0.00  0.00    +0.314 C 
BRANCH  14  15
ATOM     15  O   UNL     1     -30.504  27.920   6.542  0.00  0.00    -0.480 OA
ATOM     16  H   UNL     1     -29.961  27.532   5.885  0.00  0.00    +0.295 HD
ENDBRANCH  14  15
ENDBRANCH  12  14
ENDBRANCH  11  12
ENDBRANCH   9  11
ENDBRANCH   1   8
BRANCH   2  17
ATOM     17  S   UNL     1     -37.036  21.097   1.440  0.00  0.00    +0.057 S 
ATOM     18  O   UNL     1     -38.441  21.479   1.444  0.00  0.00    -0.153 OA
ATOM     19  O   UNL     1     -36.323  20.969   0.177  0.00  0.00    -0.153 OA
BRANCH  17  20
ATOM     20  N   UNL     1     -36.859  19.642   2.319  0.00  0.00    -0.203 NA
ATOM     21  H   UNL     1     -36.967  18.848   1.687  0.00  0.00    +0.144 HD
ATOM     22  H   UNL     1     -37.571  19.596   3.048  0.00  0.00    +0.144 HD
ENDBRANCH  17  20
ENDBRANCH   2  17
TORSDOF 7
ENDMDL
