MODEL 1
REMARK VINA RESULT:      -4.7      0.000      0.000
REMARK  Name = 192346
REMARK  14 active torsions:
REMARK  status: ('A' for Active; 'I' for Inactive)
REMARK    1  A    between atoms: C_1  and  C_4
REMARK    2  A    between atoms: C_1  and  C_15
REMARK    3  A    between atoms: N_3  and  C_6
REMARK    4  A    between atoms: C_6  and  C_7
REMARK    5  A    between atoms: C_7  and  C_8
REMARK    6  A    between atoms: C_8  and  C_9
REMARK    7  A    between atoms: C_9  and  C_10
REMARK    8  A    between atoms: C_10  and  C_12
REMARK    9  A    between atoms: C_12  and  O_13
REMARK   10  A    between atoms: C_15  and  C_16
REMARK   11  A    between atoms: C_16  and  C_17
REMARK   12  A    between atoms: C_17  and  C_18
REMARK   13  A    between atoms: C_18  and  N_19
REMARK   14  A    between atoms: N_19  and  C_22
REMARK                            x       y       z     vdW  Elec       q    Type
REMARK                         _______ _______ _______ _____ _____    ______ ____
ROOT
ATOM      1  C   UNL     1     -33.019  25.325   1.249  0.00  0.00    +0.085 C 
ENDROOT
BRANCH   1   4
ATOM      2  O   UNL     1     -31.379  26.197   2.766  0.00  0.00    -0.275 OA
ATOM      3  N   UNL     1     -33.613  26.232   3.411  0.00  0.00    -0.304 N 
ATOM      4  C   UNL     1     -32.564  25.964   2.546  0.00  0.00    +0.222 C 
ATOM      5  H   UNL     1     -34.526  26.001   3.127  0.00  0.00    +0.149 HD
BRANCH   3   6
ATOM      6  C   UNL     1     -33.428  26.834   4.711  0.00  0.00    +0.089 C 
BRANCH   6   7
ATOM      7  C   UNL     1     -34.139  26.040   5.800  0.00  0.00    +0.021 C 
BRANCH   7   8
ATOM      8  C   UNL     1     -35.653  25.946   5.595  0.00  0.00    +0.002 C 
BRANCH   8   9
ATOM      9  C   UNL     1     -36.116  24.570   5.112  0.00  0.00    +0.012 C 
BRANCH   9  10
ATOM     10  C   UNL     1     -35.190  23.465   5.623  0.00  0.00    +0.109 C 
BRANCH  10  12
ATOM     11  O   UNL     1     -35.026  21.051   5.352  0.00  0.00    -0.250 OA
ATOM     12  C   UNL     1     -35.569  22.110   5.069  0.00  0.00    +0.314 C 
BRANCH  12  13
ATOM     13  O   UNL     1     -36.607  22.203   4.197  0.00  0.00    -0.480 OA
ATOM     14  H   UNL     1     -36.735  22.989   3.705  0.00  0.00    +0.295 HD
ENDBRANCH  12  13
ENDBRANCH  10  12
ENDBRANCH   9  10
ENDBRANCH   8   9
ENDBRANCH   7   8
ENDBRANCH   6   7
ENDBRANCH   3   6
ENDBRANCH   1   4
BRANCH   1  15
ATOM     15  C   UNL     1     -34.513  25.000   1.247  0.00  0.00    +0.010 C 
BRANCH  15  16
ATOM     16  C   UNL     1     -34.791  23.525   1.555  0.00  0.00    +0.003 C 
BRANCH  16  17
ATOM     17  C   UNL     1     -34.577  22.652   0.314  0.00  0.00    +0.026 C 
BRANCH  17  18
ATOM     18  C   UNL     1     -34.111  21.243   0.666  0.00  0.00    +0.129 C 
BRANCH  18  19
ATOM     19  N   UNL     1     -34.811  20.774   1.863  0.00  0.00    -0.240 NA
BRANCH  19  22
ATOM     20  N   UNL     1     -36.987  19.873   2.343  0.00  0.00    -0.370 N 
ATOM     21  N   UNL     1     -35.677  18.950   0.724  0.00  0.00    -0.370 N 
ATOM     22  C   UNL     1     -35.782  19.933   1.679  0.00  0.00    +0.189 C 
ATOM     23  H   UNL     1     -37.188  20.524   3.055  0.00  0.00    +0.159 HD
ATOM     24  H   UNL     1     -37.645  19.181   2.107  0.00  0.00    +0.159 HD
ATOM     25  H   UNL     1     -34.861  18.882   0.175  0.00  0.00    +0.159 HD
ATOM     26  H   UNL     1     -36.416  18.314   0.587  0.00  0.00    +0.159 HD
ENDBRANCH  19  22
ENDBRANCH  18  19
ENDBRANCH  17  18
ENDBRANCH  16  17
ENDBRANCH  15  16
ENDBRANCH   1  15
TORSDOF 14
ENDMDL
MODEL 2
REMARK VINA RESULT:      -4.7      3.705      5.981
REMARK  Name = 192346
REMARK  14 active torsions:
REMARK  status: ('A' for Active; 'I' for Inactive)
REMARK    1  A    between atoms: C_1  and  C_4
REMARK    2  A    between atoms: C_1  and  C_15
REMARK    3  A    between atoms: N_3  and  C_6
REMARK    4  A    between atoms: C_6  and  C_7
REMARK    5  A    between atoms: C_7  and  C_8
REMARK    6  A    between atoms: C_8  and  C_9
REMARK    7  A    between atoms: C_9  and  C_10
REMARK    8  A    between atoms: C_10  and  C_12
REMARK    9  A    between atoms: C_12  and  O_13
REMARK   10  A    between atoms: C_15  and  C_16
REMARK   11  A    between atoms: C_16  and  C_17
REMARK   12  A    between atoms: C_17  and  C_18
REMARK   13  A    between atoms: C_18  and  N_19
REMARK   14  A    between atoms: N_19  and  C_22
REMARK                            x       y       z     vdW  Elec       q    Type
REMARK                         _______ _______ _______ _____ _____    ______ ____
ROOT
ATOM      1  C   UNL     1     -34.591  25.811   5.768  0.00  0.00    +0.085 C 
ENDROOT
BRANCH   1   4
ATOM      2  O   UNL     1     -33.734  26.817   3.766  0.00  0.00    -0.275 OA
ATOM      3  N   UNL     1     -32.796  27.431   5.803  0.00  0.00    -0.304 N 
ATOM      4  C   UNL     1     -33.674  26.733   4.990  0.00  0.00    +0.222 C 
ATOM      5  H   UNL     1     -32.839  27.283   6.775  0.00  0.00    +0.149 HD
BRANCH   3   6
ATOM      6  C   UNL     1     -31.822  28.367   5.292  0.00  0.00    +0.089 C 
BRANCH   6   7
ATOM      7  C   UNL     1     -31.904  29.707   6.013  0.00  0.00    +0.021 C 
BRANCH   7   8
ATOM      8  C   UNL     1     -32.346  30.859   5.106  0.00  0.00    +0.002 C 
BRANCH   8   9
ATOM      9  C   UNL     1     -32.885  30.393   3.752  0.00  0.00    +0.012 C 
BRANCH   9  10
ATOM     10  C   UNL     1     -33.965  31.341   3.232  0.00  0.00    +0.109 C 
BRANCH  10  12
ATOM     11  O   UNL     1     -36.203  31.090   2.305  0.00  0.00    -0.250 OA
ATOM     12  C   UNL     1     -35.243  30.608   2.891  0.00  0.00    +0.314 C 
BRANCH  12  13
ATOM     13  O   UNL     1     -35.206  29.319   3.320  0.00  0.00    -0.480 OA
ATOM     14  H   UNL     1     -34.577  28.725   2.960  0.00  0.00    +0.295 HD
ENDBRANCH  12  13
ENDBRANCH  10  12
ENDBRANCH   9  10
ENDBRANCH   8   9
ENDBRANCH   7   8
ENDBRANCH   6   7
ENDBRANCH   3   6
ENDBRANCH   1   4
BRANCH   1  15
ATOM     15  C   UNL     1     -34.359  24.336   5.437  0.00  0.00    +0.010 C 
BRANCH  15  16
ATOM     16  C   UNL     1     -35.643  23.506   5.535  0.00  0.00    +0.003 C 
BRANCH  16  17
ATOM     17  C   UNL     1     -35.916  22.754   4.228  0.00  0.00    +0.026 C 
BRANCH  17  18
ATOM     18  C   UNL     1     -36.840  23.526   3.293  0.00  0.00    +0.129 C 
BRANCH  18  19
ATOM     19  N   UNL     1     -37.587  24.531   4.052  0.00  0.00    -0.240 NA
BRANCH  19  22
ATOM     20  N   UNL     1     -36.777  26.544   3.020  0.00  0.00    -0.370 N 
ATOM     21  N   UNL     1     -39.012  26.192   3.289  0.00  0.00    -0.370 N 
ATOM     22  C   UNL     1     -37.749  25.686   3.486  0.00  0.00    +0.189 C 
ATOM     23  H   UNL     1     -35.826  26.300   3.101  0.00  0.00    +0.159 HD
ATOM     24  H   UNL     1     -37.032  27.400   2.606  0.00  0.00    +0.159 HD
ATOM     25  H   UNL     1     -39.799  25.676   3.578  0.00  0.00    +0.159 HD
ATOM     26  H   UNL     1     -39.130  27.070   2.859  0.00  0.00    +0.159 HD
ENDBRANCH  19  22
ENDBRANCH  18  19
ENDBRANCH  17  18
ENDBRANCH  16  17
ENDBRANCH  15  16
ENDBRANCH   1  15
TORSDOF 14
ENDMDL
MODEL 3
REMARK VINA RESULT:      -4.6      2.110      3.962
REMARK  Name = 192346
REMARK  14 active torsions:
REMARK  status: ('A' for Active; 'I' for Inactive)
REMARK    1  A    between atoms: C_1  and  C_4
REMARK    2  A    between atoms: C_1  and  C_15
REMARK    3  A    between atoms: N_3  and  C_6
REMARK    4  A    between atoms: C_6  and  C_7
REMARK    5  A    between atoms: C_7  and  C_8
REMARK    6  A    between atoms: C_8  and  C_9
REMARK    7  A    between atoms: C_9  and  C_10
REMARK    8  A    between atoms: C_10  and  C_12
REMARK    9  A    between atoms: C_12  and  O_13
REMARK   10  A    between atoms: C_15  and  C_16
REMARK   11  A    between atoms: C_16  and  C_17
REMARK   12  A    between atoms: C_17  and  C_18
REMARK   13  A    between atoms: C_18  and  N_19
REMARK   14  A    between atoms: N_19  and  C_22
REMARK                            x       y       z     vdW  Elec       q    Type
REMARK                         _______ _______ _______ _____ _____    ______ ____
ROOT
ATOM      1  C   UNL     1     -34.868  25.244   5.709  0.00  0.00    +0.085 C 
ENDROOT
BRANCH   1   4
ATOM      2  O   UNL     1     -34.816  27.242   4.383  0.00  0.00    -0.275 OA
ATOM      3  N   UNL     1     -33.813  25.323   3.534  0.00  0.00    -0.304 N 
ATOM      4  C   UNL     1     -34.505  26.058   4.483  0.00  0.00    +0.222 C 
ATOM      5  H   UNL     1     -33.618  24.377   3.724  0.00  0.00    +0.149 HD
BRANCH   3   6
ATOM      6  C   UNL     1     -33.364  25.880   2.279  0.00  0.00    +0.089 C 
BRANCH   6   7
ATOM      7  C   UNL     1     -33.614  24.921   1.122  0.00  0.00    +0.021 C 
BRANCH   7   8
ATOM      8  C   UNL     1     -34.932  24.153   1.242  0.00  0.00    +0.002 C 
BRANCH   8   9
ATOM      9  C   UNL     1     -36.166  25.057   1.216  0.00  0.00    +0.012 C 
BRANCH   9  10
ATOM     10  C   UNL     1     -37.285  24.491   2.089  0.00  0.00    +0.109 C 
BRANCH  10  12
ATOM     11  O   UNL     1     -38.267  26.703   2.355  0.00  0.00    -0.250 OA
ATOM     12  C   UNL     1     -38.056  25.582   2.797  0.00  0.00    +0.314 C 
BRANCH  12  13
ATOM     13  O   UNL     1     -38.499  25.168   4.013  0.00  0.00    -0.480 OA
ATOM     14  H   UNL     1     -38.034  24.500   4.478  0.00  0.00    +0.295 HD
ENDBRANCH  12  13
ENDBRANCH  10  12
ENDBRANCH   9  10
ENDBRANCH   8   9
ENDBRANCH   7   8
ENDBRANCH   6   7
ENDBRANCH   3   6
ENDBRANCH   1   4
BRANCH   1  15
ATOM     15  C   UNL     1     -35.597  23.947   5.357  0.00  0.00    +0.010 C 
BRANCH  15  16
ATOM     16  C   UNL     1     -34.994  22.728   6.062  0.00  0.00    +0.003 C 
BRANCH  16  17
ATOM     17  C   UNL     1     -35.209  21.452   5.241  0.00  0.00    +0.026 C 
BRANCH  17  18
ATOM     18  C   UNL     1     -35.599  21.747   3.797  0.00  0.00    +0.129 C 
BRANCH  18  19
ATOM     19  N   UNL     1     -35.457  20.535   2.987  0.00  0.00    -0.240 NA
BRANCH  19  22
ATOM     20  N   UNL     1     -36.527  19.221   1.284  0.00  0.00    -0.370 N 
ATOM     21  N   UNL     1     -37.650  20.902   2.334  0.00  0.00    -0.370 N 
ATOM     22  C   UNL     1     -36.463  20.215   2.234  0.00  0.00    +0.189 C 
ATOM     23  H   UNL     1     -35.741  18.653   1.113  0.00  0.00    +0.159 HD
ATOM     24  H   UNL     1     -37.358  19.078   0.775  0.00  0.00    +0.159 HD
ATOM     25  H   UNL     1     -37.738  21.641   2.980  0.00  0.00    +0.159 HD
ATOM     26  H   UNL     1     -38.412  20.657   1.761  0.00  0.00    +0.159 HD
ENDBRANCH  19  22
ENDBRANCH  18  19
ENDBRANCH  17  18
ENDBRANCH  16  17
ENDBRANCH  15  16
ENDBRANCH   1  15
TORSDOF 14
ENDMDL
MODEL 4
REMARK VINA RESULT:      -4.5      3.352      7.114
REMARK  Name = 192346
REMARK  14 active torsions:
REMARK  status: ('A' for Active; 'I' for Inactive)
REMARK    1  A    between atoms: C_1  and  C_4
REMARK    2  A    between atoms: C_1  and  C_15
REMARK    3  A    between atoms: N_3  and  C_6
REMARK    4  A    between atoms: C_6  and  C_7
REMARK    5  A    between atoms: C_7  and  C_8
REMARK    6  A    between atoms: C_8  and  C_9
REMARK    7  A    between atoms: C_9  and  C_10
REMARK    8  A    between atoms: C_10  and  C_12
REMARK    9  A    between atoms: C_12  and  O_13
REMARK   10  A    between atoms: C_15  and  C_16
REMARK   11  A    between atoms: C_16  and  C_17
REMARK   12  A    between atoms: C_17  and  C_18
REMARK   13  A    between atoms: C_18  and  N_19
REMARK   14  A    between atoms: N_19  and  C_22
REMARK                            x       y       z     vdW  Elec       q    Type
REMARK                         _______ _______ _______ _____ _____    ______ ____
ROOT
ATOM      1  C   UNL     1     -35.454  22.763   5.844  0.00  0.00    +0.085 C 
ENDROOT
BRANCH   1   4
ATOM      2  O   UNL     1     -35.193  21.013   4.225  0.00  0.00    -0.275 OA
ATOM      3  N   UNL     1     -36.771  22.672   3.818  0.00  0.00    -0.304 N 
ATOM      4  C   UNL     1     -35.778  22.042   4.551  0.00  0.00    +0.222 C 
ATOM      5  H   UNL     1     -37.170  23.496   4.179  0.00  0.00    +0.149 HD
BRANCH   3   6
ATOM      6  C   UNL     1     -37.248  22.176   2.548  0.00  0.00    +0.089 C 
BRANCH   6   7
ATOM      7  C   UNL     1     -38.744  22.412   2.383  0.00  0.00    +0.021 C 
BRANCH   7   8
ATOM      8  C   UNL     1     -39.111  23.094   1.063  0.00  0.00    +0.002 C 
BRANCH   8   9
ATOM      9  C   UNL     1     -39.749  24.472   1.249  0.00  0.00    +0.012 C 
BRANCH   9  10
ATOM     10  C   UNL     1     -38.684  25.560   1.388  0.00  0.00    +0.109 C 
BRANCH  10  12
ATOM     11  O   UNL     1     -37.426  25.775   3.462  0.00  0.00    -0.250 OA
ATOM     12  C   UNL     1     -38.460  25.950   2.832  0.00  0.00    +0.314 C 
BRANCH  12  13
ATOM     13  O   UNL     1     -39.567  26.530   3.367  0.00  0.00    -0.480 OA
ATOM     14  H   UNL     1     -39.735  26.457   4.285  0.00  0.00    +0.295 HD
ENDBRANCH  12  13
ENDBRANCH  10  12
ENDBRANCH   9  10
ENDBRANCH   8   9
ENDBRANCH   7   8
ENDBRANCH   6   7
ENDBRANCH   3   6
ENDBRANCH   1   4
BRANCH   1  15
ATOM     15  C   UNL     1     -35.381  24.280   5.668  0.00  0.00    +0.010 C 
BRANCH  15  16
ATOM     16  C   UNL     1     -34.091  24.726   4.973  0.00  0.00    +0.003 C 
BRANCH  16  17
ATOM     17  C   UNL     1     -33.908  26.245   5.070  0.00  0.00    +0.026 C 
BRANCH  17  18
ATOM     18  C   UNL     1     -33.339  26.679   6.416  0.00  0.00    +0.129 C 
BRANCH  18  19
ATOM     19  N   UNL     1     -32.031  27.309   6.222  0.00  0.00    -0.240 NA
BRANCH  19  22
ATOM     20  N   UNL     1     -31.503  29.231   7.564  0.00  0.00    -0.370 N 
ATOM     21  N   UNL     1     -32.377  29.475   5.474  0.00  0.00    -0.370 N 
ATOM     22  C   UNL     1     -31.962  28.586   6.437  0.00  0.00    +0.189 C 
ATOM     23  H   UNL     1     -31.176  28.708   8.331  0.00  0.00    +0.159 HD
ATOM     24  H   UNL     1     -31.502  30.215   7.602  0.00  0.00    +0.159 HD
ATOM     25  H   UNL     1     -32.729  29.142   4.616  0.00  0.00    +0.159 HD
ATOM     26  H   UNL     1     -32.323  30.444   5.640  0.00  0.00    +0.159 HD
ENDBRANCH  19  22
ENDBRANCH  18  19
ENDBRANCH  17  18
ENDBRANCH  16  17
ENDBRANCH  15  16
ENDBRANCH   1  15
TORSDOF 14
ENDMDL
MODEL 5
REMARK VINA RESULT:      -4.5      4.544      5.769
REMARK  Name = 192346
REMARK  14 active torsions:
REMARK  status: ('A' for Active; 'I' for Inactive)
REMARK    1  A    between atoms: C_1  and  C_4
REMARK    2  A    between atoms: C_1  and  C_15
REMARK    3  A    between atoms: N_3  and  C_6
REMARK    4  A    between atoms: C_6  and  C_7
REMARK    5  A    between atoms: C_7  and  C_8
REMARK    6  A    between atoms: C_8  and  C_9
REMARK    7  A    between atoms: C_9  and  C_10
REMARK    8  A    between atoms: C_10  and  C_12
REMARK    9  A    between atoms: C_12  and  O_13
REMARK   10  A    between atoms: C_15  and  C_16
REMARK   11  A    between atoms: C_16  and  C_17
REMARK   12  A    between atoms: C_17  and  C_18
REMARK   13  A    between atoms: C_18  and  N_19
REMARK   14  A    between atoms: N_19  and  C_22
REMARK                            x       y       z     vdW  Elec       q    Type
REMARK                         _______ _______ _______ _____ _____    ______ ____
ROOT
ATOM      1  C   UNL     1     -35.618  25.112   5.706  0.00  0.00    +0.085 C 
ENDROOT
BRANCH   1   4
ATOM      2  O   UNL     1     -35.626  26.457   3.720  0.00  0.00    -0.275 OA
ATOM      3  N   UNL     1     -37.563  25.300   4.282  0.00  0.00    -0.304 N 
ATOM      4  C   UNL     1     -36.250  25.702   4.461  0.00  0.00    +0.222 C 
ATOM      5  H   UNL     1     -37.961  24.689   4.943  0.00  0.00    +0.149 HD
BRANCH   3   6
ATOM      6  C   UNL     1     -38.376  25.734   3.169  0.00  0.00    +0.089 C 
BRANCH   6   7
ATOM      7  C   UNL     1     -39.380  24.663   2.760  0.00  0.00    +0.021 C 
BRANCH   7   8
ATOM      8  C   UNL     1     -40.796  25.205   2.550  0.00  0.00    +0.002 C 
BRANCH   8   9
ATOM      9  C   UNL     1     -41.170  26.321   3.527  0.00  0.00    +0.012 C 
BRANCH   9  10
ATOM     10  C   UNL     1     -42.356  27.134   3.010  0.00  0.00    +0.109 C 
BRANCH  10  12
ATOM     11  O   UNL     1     -41.906  28.769   4.758  0.00  0.00    -0.250 OA
ATOM     12  C   UNL     1     -42.644  28.333   3.885  0.00  0.00    +0.314 C 
BRANCH  12  13
ATOM     13  O   UNL     1     -43.848  28.889   3.586  0.00  0.00    -0.480 OA
ATOM     14  H   UNL     1     -44.327  28.591   2.838  0.00  0.00    +0.295 HD
ENDBRANCH  12  13
ENDBRANCH  10  12
ENDBRANCH   9  10
ENDBRANCH   8   9
ENDBRANCH   7   8
ENDBRANCH   6   7
ENDBRANCH   3   6
ENDBRANCH   1   4
BRANCH   1  15
ATOM     15  C   UNL     1     -34.747  23.893   5.401  0.00  0.00    +0.010 C 
BRANCH  15  16
ATOM     16  C   UNL     1     -35.437  22.575   5.765  0.00  0.00    +0.003 C 
BRANCH  16  17
ATOM     17  C   UNL     1     -35.461  21.616   4.570  0.00  0.00    +0.026 C 
BRANCH  17  18
ATOM     18  C   UNL     1     -35.938  22.291   3.289  0.00  0.00    +0.129 C 
BRANCH  18  19
ATOM     19  N   UNL     1     -35.788  21.372   2.159  0.00  0.00    -0.240 NA
BRANCH  19  22
ATOM     20  N   UNL     1     -36.722  19.273   1.455  0.00  0.00    -0.370 N 
ATOM     21  N   UNL     1     -38.070  20.966   2.166  0.00  0.00    -0.370 N 
ATOM     22  C   UNL     1     -36.777  20.564   1.930  0.00  0.00    +0.189 C 
ATOM     23  H   UNL     1     -35.851  18.863   1.245  0.00  0.00    +0.159 HD
ATOM     24  H   UNL     1     -37.551  18.760   1.324  0.00  0.00    +0.159 HD
ATOM     25  H   UNL     1     -38.250  21.872   2.509  0.00  0.00    +0.159 HD
ATOM     26  H   UNL     1     -38.818  20.350   1.991  0.00  0.00    +0.159 HD
ENDBRANCH  19  22
ENDBRANCH  18  19
ENDBRANCH  17  18
ENDBRANCH  16  17
ENDBRANCH  15  16
ENDBRANCH   1  15
TORSDOF 14
ENDMDL
MODEL 6
REMARK VINA RESULT:      -4.4      3.669      6.011
REMARK  Name = 192346
REMARK  14 active torsions:
REMARK  status: ('A' for Active; 'I' for Inactive)
REMARK    1  A    between atoms: C_1  and  C_4
REMARK    2  A    between atoms: C_1  and  C_15
REMARK    3  A    between atoms: N_3  and  C_6
REMARK    4  A    between atoms: C_6  and  C_7
REMARK    5  A    between atoms: C_7  and  C_8
REMARK    6  A    between atoms: C_8  and  C_9
REMARK    7  A    between atoms: C_9  and  C_10
REMARK    8  A    between atoms: C_10  and  C_12
REMARK    9  A    between atoms: C_12  and  O_13
REMARK   10  A    between atoms: C_15  and  C_16
REMARK   11  A    between atoms: C_16  and  C_17
REMARK   12  A    between atoms: C_17  and  C_18
REMARK   13  A    between atoms: C_18  and  N_19
REMARK   14  A    between atoms: N_19  and  C_22
REMARK                            x       y       z     vdW  Elec       q    Type
REMARK                         _______ _______ _______ _____ _____    ______ ____
ROOT
ATOM      1  C   UNL     1     -34.433  25.646   5.395  0.00  0.00    +0.085 C 
ENDROOT
BRANCH   1   4
ATOM      2  O   UNL     1     -32.899  26.019   3.588  0.00  0.00    -0.275 OA
ATOM      3  N   UNL     1     -33.283  27.752   5.090  0.00  0.00    -0.304 N 
ATOM      4  C   UNL     1     -33.458  26.475   4.582  0.00  0.00    +0.222 C 
ATOM      5  H   UNL     1     -33.786  28.009   5.896  0.00  0.00    +0.149 HD
BRANCH   3   6
ATOM      6  C   UNL     1     -32.399  28.724   4.491  0.00  0.00    +0.089 C 
BRANCH   6   7
ATOM      7  C   UNL     1     -31.203  29.018   5.388  0.00  0.00    +0.021 C 
BRANCH   7   8
ATOM      8  C   UNL     1     -29.881  28.479   4.834  0.00  0.00    +0.002 C 
BRANCH   8   9
ATOM      9  C   UNL     1     -28.667  28.863   5.681  0.00  0.00    +0.012 C 
BRANCH   9  10
ATOM     10  C   UNL     1     -29.088  29.632   6.933  0.00  0.00    +0.109 C 
BRANCH  10  12
ATOM     11  O   UNL     1     -27.562  30.393   8.672  0.00  0.00    -0.250 OA
ATOM     12  C   UNL     1     -28.087  29.476   8.056  0.00  0.00    +0.314 C 
BRANCH  12  13
ATOM     13  O   UNL     1     -27.827  28.166   8.310  0.00  0.00    -0.480 OA
ATOM     14  H   UNL     1     -28.530  27.581   8.515  0.00  0.00    +0.295 HD
ENDBRANCH  12  13
ENDBRANCH  10  12
ENDBRANCH   9  10
ENDBRANCH   8   9
ENDBRANCH   7   8
ENDBRANCH   6   7
ENDBRANCH   3   6
ENDBRANCH   1   4
BRANCH   1  15
ATOM     15  C   UNL     1     -34.252  24.144   5.175  0.00  0.00    +0.010 C 
BRANCH  15  16
ATOM     16  C   UNL     1     -35.464  23.334   5.645  0.00  0.00    +0.003 C 
BRANCH  16  17
ATOM     17  C   UNL     1     -35.466  21.932   5.027  0.00  0.00    +0.026 C 
BRANCH  17  18
ATOM     18  C   UNL     1     -35.505  21.966   3.503  0.00  0.00    +0.129 C 
BRANCH  18  19
ATOM     19  N   UNL     1     -35.553  20.601   2.977  0.00  0.00    -0.240 NA
BRANCH  19  22
ATOM     20  N   UNL     1     -37.814  20.902   2.222  0.00  0.00    -0.370 N 
ATOM     21  N   UNL     1     -36.510  19.246   1.357  0.00  0.00    -0.370 N 
ATOM     22  C   UNL     1     -36.579  20.294   2.246  0.00  0.00    +0.189 C 
ATOM     23  H   UNL     1     -37.996  21.669   2.813  0.00  0.00    +0.159 HD
ATOM     24  H   UNL     1     -38.515  20.572   1.616  0.00  0.00    +0.159 HD
ATOM     25  H   UNL     1     -35.678  18.725   1.275  0.00  0.00    +0.159 HD
ATOM     26  H   UNL     1     -37.291  19.017   0.804  0.00  0.00    +0.159 HD
ENDBRANCH  19  22
ENDBRANCH  18  19
ENDBRANCH  17  18
ENDBRANCH  16  17
ENDBRANCH  15  16
ENDBRANCH   1  15
TORSDOF 14
ENDMDL
MODEL 7
REMARK VINA RESULT:      -4.4      2.994      5.257
REMARK  Name = 192346
REMARK  14 active torsions:
REMARK  status: ('A' for Active; 'I' for Inactive)
REMARK    1  A    between atoms: C_1  and  C_4
REMARK    2  A    between atoms: C_1  and  C_15
REMARK    3  A    between atoms: N_3  and  C_6
REMARK    4  A    between atoms: C_6  and  C_7
REMARK    5  A    between atoms: C_7  and  C_8
REMARK    6  A    between atoms: C_8  and  C_9
REMARK    7  A    between atoms: C_9  and  C_10
REMARK    8  A    between atoms: C_10  and  C_12
REMARK    9  A    between atoms: C_12  and  O_13
REMARK   10  A    between atoms: C_15  and  C_16
REMARK   11  A    between atoms: C_16  and  C_17
REMARK   12  A    between atoms: C_17  and  C_18
REMARK   13  A    between atoms: C_18  and  N_19
REMARK   14  A    between atoms: N_19  and  C_22
REMARK                            x       y       z     vdW  Elec       q    Type
REMARK                         _______ _______ _______ _____ _____    ______ ____
ROOT
ATOM      1  C   UNL     1     -34.400  19.675   0.854  0.00  0.00    +0.085 C 
ENDROOT
BRANCH   1   4
ATOM      2  O   UNL     1     -36.623  19.801   1.749  0.00  0.00    -0.275 OA
ATOM      3  N   UNL     1     -34.938  21.020   2.791  0.00  0.00    -0.304 N 
ATOM      4  C   UNL     1     -35.450  20.158   1.835  0.00  0.00    +0.222 C 
ATOM      5  H   UNL     1     -33.978  21.236   2.762  0.00  0.00    +0.149 HD
BRANCH   3   6
ATOM      6  C   UNL     1     -35.746  21.615   3.830  0.00  0.00    +0.089 C 
BRANCH   6   7
ATOM      7  C   UNL     1     -35.165  21.345   5.213  0.00  0.00    +0.021 C 
BRANCH   7   8
ATOM      8  C   UNL     1     -35.149  22.580   6.118  0.00  0.00    +0.002 C 
BRANCH   8   9
ATOM      9  C   UNL     1     -35.662  23.845   5.427  0.00  0.00    +0.012 C 
BRANCH   9  10
ATOM     10  C   UNL     1     -34.504  24.719   4.945  0.00  0.00    +0.109 C 
BRANCH  10  12
ATOM     11  O   UNL     1     -33.808  26.516   6.434  0.00  0.00    -0.250 OA
ATOM     12  C   UNL     1     -34.550  26.102   5.554  0.00  0.00    +0.314 C 
BRANCH  12  13
ATOM     13  O   UNL     1     -35.535  26.857   4.999  0.00  0.00    -0.480 OA
ATOM     14  H   UNL     1     -36.380  26.891   5.401  0.00  0.00    +0.295 HD
ENDBRANCH  12  13
ENDBRANCH  10  12
ENDBRANCH   9  10
ENDBRANCH   8   9
ENDBRANCH   7   8
ENDBRANCH   6   7
ENDBRANCH   3   6
ENDBRANCH   1   4
BRANCH   1  15
ATOM     15  C   UNL     1     -33.321  18.823   1.522  0.00  0.00    +0.010 C 
BRANCH  15  16
ATOM     16  C   UNL     1     -33.050  17.522   0.762  0.00  0.00    +0.003 C 
BRANCH  16  17
ATOM     17  C   UNL     1     -34.205  17.184  -0.187  0.00  0.00    +0.026 C 
BRANCH  17  18
ATOM     18  C   UNL     1     -34.463  15.685  -0.281  0.00  0.00    +0.129 C 
BRANCH  18  19
ATOM     19  N   UNL     1     -35.837  15.391   0.132  0.00  0.00    -0.240 NA
BRANCH  19  22
ATOM     20  N   UNL     1     -37.214  16.092  -1.708  0.00  0.00    -0.370 N 
ATOM     21  N   UNL     1     -37.460  17.031   0.352  0.00  0.00    -0.370 N 
ATOM     22  C   UNL     1     -36.773  16.111  -0.404  0.00  0.00    +0.189 C 
ATOM     23  H   UNL     1     -36.803  15.475  -2.357  0.00  0.00    +0.159 HD
ATOM     24  H   UNL     1     -37.939  16.693  -1.993  0.00  0.00    +0.159 HD
ATOM     25  H   UNL     1     -37.242  17.146   1.306  0.00  0.00    +0.159 HD
ATOM     26  H   UNL     1     -38.170  17.576  -0.058  0.00  0.00    +0.159 HD
ENDBRANCH  19  22
ENDBRANCH  18  19
ENDBRANCH  17  18
ENDBRANCH  16  17
ENDBRANCH  15  16
ENDBRANCH   1  15
TORSDOF 14
ENDMDL
MODEL 8
REMARK VINA RESULT:      -4.4      3.535      6.265
REMARK  Name = 192346
REMARK  14 active torsions:
REMARK  status: ('A' for Active; 'I' for Inactive)
REMARK    1  A    between atoms: C_1  and  C_4
REMARK    2  A    between atoms: C_1  and  C_15
REMARK    3  A    between atoms: N_3  and  C_6
REMARK    4  A    between atoms: C_6  and  C_7
REMARK    5  A    between atoms: C_7  and  C_8
REMARK    6  A    between atoms: C_8  and  C_9
REMARK    7  A    between atoms: C_9  and  C_10
REMARK    8  A    between atoms: C_10  and  C_12
REMARK    9  A    between atoms: C_12  and  O_13
REMARK   10  A    between atoms: C_15  and  C_16
REMARK   11  A    between atoms: C_16  and  C_17
REMARK   12  A    between atoms: C_17  and  C_18
REMARK   13  A    between atoms: C_18  and  N_19
REMARK   14  A    between atoms: N_19  and  C_22
REMARK                            x       y       z     vdW  Elec       q    Type
REMARK                         _______ _______ _______ _____ _____    ______ ____
ROOT
ATOM      1  C   UNL     1     -35.158  22.176   5.614  0.00  0.00    +0.085 C 
ENDROOT
BRANCH   1   4
ATOM      2  O   UNL     1     -35.197  20.642   3.769  0.00  0.00    -0.275 OA
ATOM      3  N   UNL     1     -36.734  22.386   3.791  0.00  0.00    -0.304 N 
ATOM      4  C   UNL     1     -35.684  21.638   4.298  0.00  0.00    +0.222 C 
ATOM      5  H   UNL     1     -37.043  23.168   4.303  0.00  0.00    +0.149 HD
BRANCH   3   6
ATOM      6  C   UNL     1     -37.397  22.073   2.546  0.00  0.00    +0.089 C 
BRANCH   6   7
ATOM      7  C   UNL     1     -37.344  23.247   1.576  0.00  0.00    +0.021 C 
BRANCH   7   8
ATOM      8  C   UNL     1     -38.591  23.365   0.695  0.00  0.00    +0.002 C 
BRANCH   8   9
ATOM      9  C   UNL     1     -39.386  24.649   0.937  0.00  0.00    +0.012 C 
BRANCH   9  10
ATOM     10  C   UNL     1     -40.202  24.559   2.226  0.00  0.00    +0.109 C 
BRANCH  10  12
ATOM     11  O   UNL     1     -42.020  26.174   2.101  0.00  0.00    -0.250 OA
ATOM     12  C   UNL     1     -40.921  25.853   2.531  0.00  0.00    +0.314 C 
BRANCH  12  13
ATOM     13  O   UNL     1     -40.188  26.645   3.359  0.00  0.00    -0.480 OA
ATOM     14  H   UNL     1     -40.079  27.554   3.161  0.00  0.00    +0.295 HD
ENDBRANCH  12  13
ENDBRANCH  10  12
ENDBRANCH   9  10
ENDBRANCH   8   9
ENDBRANCH   7   8
ENDBRANCH   6   7
ENDBRANCH   3   6
ENDBRANCH   1   4
BRANCH   1  15
ATOM     15  C   UNL     1     -35.307  23.693   5.729  0.00  0.00    +0.010 C 
BRANCH  15  16
ATOM     16  C   UNL     1     -34.130  24.444   5.100  0.00  0.00    +0.003 C 
BRANCH  16  17
ATOM     17  C   UNL     1     -34.280  25.958   5.281  0.00  0.00    +0.026 C 
BRANCH  17  18
ATOM     18  C   UNL     1     -34.448  26.691   3.955  0.00  0.00    +0.129 C 
BRANCH  18  19
ATOM     19  N   UNL     1     -35.381  25.957   3.097  0.00  0.00    -0.240 NA
BRANCH  19  22
ATOM     20  N   UNL     1     -37.549  25.974   4.132  0.00  0.00    -0.370 N 
ATOM     21  N   UNL     1     -37.180  27.098   2.185  0.00  0.00    -0.370 N 
ATOM     22  C   UNL     1     -36.629  26.304   3.163  0.00  0.00    +0.189 C 
ATOM     23  H   UNL     1     -37.281  25.407   4.892  0.00  0.00    +0.159 HD
ATOM     24  H   UNL     1     -38.474  26.305   4.066  0.00  0.00    +0.159 HD
ATOM     25  H   UNL     1     -36.627  27.406   1.430  0.00  0.00    +0.159 HD
ATOM     26  H   UNL     1     -38.128  27.360   2.238  0.00  0.00    +0.159 HD
ENDBRANCH  19  22
ENDBRANCH  18  19
ENDBRANCH  17  18
ENDBRANCH  16  17
ENDBRANCH  15  16
ENDBRANCH   1  15
TORSDOF 14
ENDMDL
MODEL 9
REMARK VINA RESULT:      -4.3      2.968      6.309
REMARK  Name = 192346
REMARK  14 active torsions:
REMARK  status: ('A' for Active; 'I' for Inactive)
REMARK    1  A    between atoms: C_1  and  C_4
REMARK    2  A    between atoms: C_1  and  C_15
REMARK    3  A    between atoms: N_3  and  C_6
REMARK    4  A    between atoms: C_6  and  C_7
REMARK    5  A    between atoms: C_7  and  C_8
REMARK    6  A    between atoms: C_8  and  C_9
REMARK    7  A    between atoms: C_9  and  C_10
REMARK    8  A    between atoms: C_10  and  C_12
REMARK    9  A    between atoms: C_12  and  O_13
REMARK   10  A    between atoms: C_15  and  C_16
REMARK   11  A    between atoms: C_16  and  C_17
REMARK   12  A    between atoms: C_17  and  C_18
REMARK   13  A    between atoms: C_18  and  N_19
REMARK   14  A    between atoms: N_19  and  C_22
REMARK                            x       y       z     vdW  Elec       q    Type
REMARK                         _______ _______ _______ _____ _____    ______ ____
ROOT
ATOM      1  C   UNL     1     -35.377  22.987   3.175  0.00  0.00    +0.085 C 
ENDROOT
BRANCH   1   4
ATOM      2  O   UNL     1     -36.044  22.370   0.955  0.00  0.00    -0.275 OA
ATOM      3  N   UNL     1     -37.554  22.049   2.694  0.00  0.00    -0.304 N 
ATOM      4  C   UNL     1     -36.343  22.439   2.144  0.00  0.00    +0.222 C 
ATOM      5  H   UNL     1     -37.682  22.151   3.665  0.00  0.00    +0.149 HD
BRANCH   3   6
ATOM      6  C   UNL     1     -38.636  21.500   1.911  0.00  0.00    +0.089 C 
BRANCH   6   7
ATOM      7  C   UNL     1     -39.730  22.533   1.671  0.00  0.00    +0.021 C 
BRANCH   7   8
ATOM      8  C   UNL     1     -39.508  23.374   0.411  0.00  0.00    +0.002 C 
BRANCH   8   9
ATOM      9  C   UNL     1     -38.946  24.766   0.701  0.00  0.00    +0.012 C 
BRANCH   9  10
ATOM     10  C   UNL     1     -39.539  25.345   1.986  0.00  0.00    +0.109 C 
BRANCH  10  12
ATOM     11  O   UNL     1     -38.284  24.730   3.980  0.00  0.00    -0.250 OA
ATOM     12  C   UNL     1     -38.493  25.514   3.064  0.00  0.00    +0.314 C 
BRANCH  12  13
ATOM     13  O   UNL     1     -37.792  26.667   2.900  0.00  0.00    -0.480 OA
ATOM     14  H   UNL     1     -37.028  26.827   3.417  0.00  0.00    +0.295 HD
ENDBRANCH  12  13
ENDBRANCH  10  12
ENDBRANCH   9  10
ENDBRANCH   8   9
ENDBRANCH   7   8
ENDBRANCH   6   7
ENDBRANCH   3   6
ENDBRANCH   1   4
BRANCH   1  15
ATOM     15  C   UNL     1     -35.506  22.291   4.530  0.00  0.00    +0.010 C 
BRANCH  15  16
ATOM     16  C   UNL     1     -35.458  23.278   5.701  0.00  0.00    +0.003 C 
BRANCH  16  17
ATOM     17  C   UNL     1     -34.618  24.511   5.351  0.00  0.00    +0.026 C 
BRANCH  17  18
ATOM     18  C   UNL     1     -35.360  25.816   5.614  0.00  0.00    +0.129 C 
BRANCH  18  19
ATOM     19  N   UNL     1     -35.210  26.712   4.465  0.00  0.00    -0.240 NA
BRANCH  19  22
ATOM     20  N   UNL     1     -33.366  26.570   2.931  0.00  0.00    -0.370 N 
ATOM     21  N   UNL     1     -33.177  27.748   4.872  0.00  0.00    -0.370 N 
ATOM     22  C   UNL     1     -33.999  26.975   4.085  0.00  0.00    +0.189 C 
ATOM     23  H   UNL     1     -33.846  26.009   2.279  0.00  0.00    +0.159 HD
ATOM     24  H   UNL     1     -32.436  26.840   2.758  0.00  0.00    +0.159 HD
ATOM     25  H   UNL     1     -33.509  28.103   5.729  0.00  0.00    +0.159 HD
ATOM     26  H   UNL     1     -32.258  27.946   4.580  0.00  0.00    +0.159 HD
ENDBRANCH  19  22
ENDBRANCH  18  19
ENDBRANCH  17  18
ENDBRANCH  16  17
ENDBRANCH  15  16
ENDBRANCH   1  15
TORSDOF 14
ENDMDL
