MODEL 1
REMARK VINA RESULT:      -7.0      0.000      0.000
REMARK  Name = 53385599
REMARK  6 active torsions:
REMARK  status: ('A' for Active; 'I' for Inactive)
REMARK    1  A    between atoms: N_1  and  S_10
REMARK    2  A    between atoms: C_8  and  C_21
REMARK    3  A    between atoms: S_10  and  C_13
REMARK    4  A    between atoms: C_18  and  O_19
REMARK    5  A    between atoms: C_22  and  C_25
REMARK    6  A    between atoms: N_24  and  O_27
REMARK                            x       y       z     vdW  Elec       q    Type
REMARK                         _______ _______ _______ _____ _____    ______ ____
ROOT
ATOM      1  N   UNL     1     -36.923  24.516   1.588  0.00  0.00    -0.191 N 
ATOM      2  C   UNL     1     -35.993  25.285   0.695  0.00  0.00    +0.121 C 
ATOM      3  C   UNL     1     -35.077  24.235   0.042  0.00  0.00    +0.051 C 
ATOM      4  C   UNL     1     -36.300  23.248   1.834  0.00  0.00    +0.065 C 
ATOM      5  C   UNL     1     -35.233  23.061   0.955  0.00  0.00    -0.006 C 
ATOM      6  C   UNL     1     -34.509  21.881   0.956  0.00  0.00    -0.003 C 
ATOM      7  C   UNL     1     -36.701  22.248   2.704  0.00  0.00    +0.016 C 
ATOM      8  C   UNL     1     -34.876  20.879   1.856  0.00  0.00    -0.000 C 
ATOM      9  C   UNL     1     -35.968  21.059   2.720  0.00  0.00    +0.001 C 
ENDROOT
BRANCH   1  10
ATOM     10  S   UNL     1     -37.602  25.332   2.912  0.00  0.00    +0.077 S 
ATOM     11  O   UNL     1     -38.380  24.402   3.713  0.00  0.00    -0.150 OA
ATOM     12  O   UNL     1     -38.190  26.581   2.462  0.00  0.00    -0.150 OA
BRANCH  10  13
ATOM     13  C   UNL     1     -36.145  25.730   3.830  0.00  0.00    +0.126 C 
ATOM     14  C   UNL     1     -35.862  25.054   5.017  0.00  0.00    +0.023 C 
ATOM     15  C   UNL     1     -35.279  26.723   3.370  0.00  0.00    +0.023 C 
ATOM     16  C   UNL     1     -34.714  25.370   5.743  0.00  0.00    +0.038 C 
ATOM     17  C   UNL     1     -34.132  27.038   4.096  0.00  0.00    +0.038 C 
ATOM     18  C   UNL     1     -33.848  26.362   5.283  0.00  0.00    +0.139 C 
BRANCH  18  19
ATOM     19  O   UNL     1     -32.728  26.670   5.991  0.00  0.00    -0.471 OA
ATOM     20  C   UNL     1     -32.250  28.011   5.898  0.00  0.00    +0.252 C 
ENDBRANCH  18  19
ENDBRANCH  10  13
ENDBRANCH   1  10
BRANCH   8  21
ATOM     21  C   UNL     1     -34.133  19.628   1.886  0.00  0.00    +0.005 C 
ATOM     22  C   UNL     1     -33.323  19.180   0.902  0.00  0.00    +0.060 C 
BRANCH  22  25
ATOM     23  O   UNL     1     -31.611  17.731   1.720  0.00  0.00    -0.268 OA
ATOM     24  N   UNL     1     -33.232  16.890   0.305  0.00  0.00    -0.193 N 
ATOM     25  C   UNL     1     -32.618  17.874   1.036  0.00  0.00    +0.268 C 
ATOM     26  H   UNL     1     -34.042  17.061  -0.230  0.00  0.00    +0.183 HD
BRANCH  24  27
ATOM     27  O   UNL     1     -32.633  15.624   0.367  0.00  0.00    -0.295 OA
ATOM     28  H   UNL     1     -33.298  14.943   0.181  0.00  0.00    +0.241 HD
ENDBRANCH  24  27
ENDBRANCH  22  25
ENDBRANCH   8  21
TORSDOF 6
ENDMDL
MODEL 2
REMARK VINA RESULT:      -6.9      1.165      1.783
REMARK  Name = 53385599
REMARK  6 active torsions:
REMARK  status: ('A' for Active; 'I' for Inactive)
REMARK    1  A    between atoms: N_1  and  S_10
REMARK    2  A    between atoms: C_8  and  C_21
REMARK    3  A    between atoms: S_10  and  C_13
REMARK    4  A    between atoms: C_18  and  O_19
REMARK    5  A    between atoms: C_22  and  C_25
REMARK    6  A    between atoms: N_24  and  O_27
REMARK                            x       y       z     vdW  Elec       q    Type
REMARK                         _______ _______ _______ _____ _____    ______ ____
ROOT
ATOM      1  N   UNL     1     -37.809  24.116   2.700  0.00  0.00    -0.191 N 
ATOM      2  C   UNL     1     -39.199  23.681   2.331  0.00  0.00    +0.121 C 
ATOM      3  C   UNL     1     -39.131  22.151   2.180  0.00  0.00    +0.051 C 
ATOM      4  C   UNL     1     -36.929  23.056   2.304  0.00  0.00    +0.065 C 
ATOM      5  C   UNL     1     -37.666  21.911   1.999  0.00  0.00    -0.006 C 
ATOM      6  C   UNL     1     -37.034  20.731   1.647  0.00  0.00    -0.003 C 
ATOM      7  C   UNL     1     -35.545  23.041   2.308  0.00  0.00    +0.016 C 
ATOM      8  C   UNL     1     -35.639  20.712   1.608  0.00  0.00    -0.000 C 
ATOM      9  C   UNL     1     -34.899  21.858   1.943  0.00  0.00    +0.001 C 
ENDROOT
BRANCH   1  10
ATOM     10  S   UNL     1     -37.352  25.706   2.320  0.00  0.00    +0.077 S 
ATOM     11  O   UNL     1     -38.441  26.615   2.633  0.00  0.00    -0.150 OA
ATOM     12  O   UNL     1     -36.730  25.731   1.008  0.00  0.00    -0.150 OA
BRANCH  10  13
ATOM     13  C   UNL     1     -36.079  25.972   3.517  0.00  0.00    +0.126 C 
ATOM     14  C   UNL     1     -36.293  25.624   4.851  0.00  0.00    +0.023 C 
ATOM     15  C   UNL     1     -34.862  26.534   3.130  0.00  0.00    +0.023 C 
ATOM     16  C   UNL     1     -35.290  25.836   5.796  0.00  0.00    +0.038 C 
ATOM     17  C   UNL     1     -33.860  26.747   4.075  0.00  0.00    +0.038 C 
ATOM     18  C   UNL     1     -34.073  26.398   5.409  0.00  0.00    +0.139 C 
BRANCH  18  19
ATOM     19  O   UNL     1     -33.095  26.606   6.332  0.00  0.00    -0.471 OA
ATOM     20  C   UNL     1     -32.306  27.785   6.187  0.00  0.00    +0.252 C 
ENDBRANCH  18  19
ENDBRANCH  10  13
ENDBRANCH   1  10
BRANCH   8  21
ATOM     21  C   UNL     1     -34.943  19.489   1.238  0.00  0.00    +0.005 C 
ATOM     22  C   UNL     1     -33.658  19.202   1.541  0.00  0.00    +0.060 C 
BRANCH  22  25
ATOM     23  O   UNL     1     -31.874  17.629   1.327  0.00  0.00    -0.268 OA
ATOM     24  N   UNL     1     -33.942  17.134   0.423  0.00  0.00    -0.193 N 
ATOM     25  C   UNL     1     -33.044  17.918   1.100  0.00  0.00    +0.268 C 
ATOM     26  H   UNL     1     -34.873  17.416   0.267  0.00  0.00    +0.183 HD
BRANCH  24  27
ATOM     27  O   UNL     1     -33.450  15.905  -0.036  0.00  0.00    -0.295 OA
ATOM     28  H   UNL     1     -34.156  15.427  -0.499  0.00  0.00    +0.241 HD
ENDBRANCH  24  27
ENDBRANCH  22  25
ENDBRANCH   8  21
TORSDOF 6
ENDMDL
MODEL 3
REMARK VINA RESULT:      -6.7      3.569      8.379
REMARK  Name = 53385599
REMARK  6 active torsions:
REMARK  status: ('A' for Active; 'I' for Inactive)
REMARK    1  A    between atoms: N_1  and  S_10
REMARK    2  A    between atoms: C_8  and  C_21
REMARK    3  A    between atoms: S_10  and  C_13
REMARK    4  A    between atoms: C_18  and  O_19
REMARK    5  A    between atoms: C_22  and  C_25
REMARK    6  A    between atoms: N_24  and  O_27
REMARK                            x       y       z     vdW  Elec       q    Type
REMARK                         _______ _______ _______ _____ _____    ______ ____
ROOT
ATOM      1  N   UNL     1     -35.772  22.429   3.691  0.00  0.00    -0.191 N 
ATOM      2  C   UNL     1     -35.644  21.745   5.022  0.00  0.00    +0.121 C 
ATOM      3  C   UNL     1     -35.264  22.848   6.025  0.00  0.00    +0.051 C 
ATOM      4  C   UNL     1     -35.051  23.665   3.796  0.00  0.00    +0.065 C 
ATOM      5  C   UNL     1     -34.747  23.930   5.131  0.00  0.00    -0.006 C 
ATOM      6  C   UNL     1     -34.104  25.100   5.496  0.00  0.00    -0.003 C 
ATOM      7  C   UNL     1     -34.763  24.578   2.796  0.00  0.00    +0.016 C 
ATOM      8  C   UNL     1     -33.771  26.014   4.494  0.00  0.00    -0.000 C 
ATOM      9  C   UNL     1     -34.103  25.757   3.154  0.00  0.00    +0.001 C 
ENDROOT
BRANCH   1  10
ATOM     10  S   UNL     1     -35.537  21.494   2.295  0.00  0.00    +0.077 S 
ATOM     11  O   UNL     1     -35.103  20.159   2.669  0.00  0.00    -0.150 OA
ATOM     12  O   UNL     1     -34.786  22.261   1.318  0.00  0.00    -0.150 OA
BRANCH  10  13
ATOM     13  C   UNL     1     -37.199  21.365   1.707  0.00  0.00    +0.126 C 
ATOM     14  C   UNL     1     -37.490  20.550   0.614  0.00  0.00    +0.023 C 
ATOM     15  C   UNL     1     -38.219  22.082   2.334  0.00  0.00    +0.023 C 
ATOM     16  C   UNL     1     -38.801  20.451   0.148  0.00  0.00    +0.038 C 
ATOM     17  C   UNL     1     -39.529  21.983   1.867  0.00  0.00    +0.038 C 
ATOM     18  C   UNL     1     -39.821  21.167   0.774  0.00  0.00    +0.139 C 
BRANCH  18  19
ATOM     19  O   UNL     1     -41.099  21.070   0.319  0.00  0.00    -0.471 OA
ATOM     20  C   UNL     1     -41.332  21.424  -1.044  0.00  0.00    +0.252 C 
ENDBRANCH  18  19
ENDBRANCH  10  13
ENDBRANCH   1  10
BRANCH   8  21
ATOM     21  C   UNL     1     -33.091  27.252   4.842  0.00  0.00    +0.005 C 
ATOM     22  C   UNL     1     -32.458  27.490   6.012  0.00  0.00    +0.060 C 
BRANCH  22  25
ATOM     23  O   UNL     1     -32.338  29.874   6.002  0.00  0.00    -0.268 OA
ATOM     24  N   UNL     1     -30.554  28.649   6.812  0.00  0.00    -0.193 N 
ATOM     25  C   UNL     1     -31.803  28.804   6.265  0.00  0.00    +0.268 C 
ATOM     26  H   UNL     1     -30.171  27.762   7.003  0.00  0.00    +0.183 HD
BRANCH  24  27
ATOM     27  O   UNL     1     -29.858  29.836   7.079  0.00  0.00    -0.295 OA
ATOM     28  H   UNL     1     -30.478  30.582   7.075  0.00  0.00    +0.241 HD
ENDBRANCH  24  27
ENDBRANCH  22  25
ENDBRANCH   8  21
TORSDOF 6
ENDMDL
MODEL 4
REMARK VINA RESULT:      -6.5     13.511     15.720
REMARK  Name = 53385599
REMARK  6 active torsions:
REMARK  status: ('A' for Active; 'I' for Inactive)
REMARK    1  A    between atoms: N_1  and  S_10
REMARK    2  A    between atoms: C_8  and  C_21
REMARK    3  A    between atoms: S_10  and  C_13
REMARK    4  A    between atoms: C_18  and  O_19
REMARK    5  A    between atoms: C_22  and  C_25
REMARK    6  A    between atoms: N_24  and  O_27
REMARK                            x       y       z     vdW  Elec       q    Type
REMARK                         _______ _______ _______ _____ _____    ______ ____
ROOT
ATOM      1  N   UNL     1     -33.770  37.484  -0.513  0.00  0.00    -0.191 N 
ATOM      2  C   UNL     1     -32.742  36.832   0.367  0.00  0.00    +0.121 C 
ATOM      3  C   UNL     1     -33.465  35.662   1.057  0.00  0.00    +0.051 C 
ATOM      4  C   UNL     1     -35.052  37.084  -0.010  0.00  0.00    +0.065 C 
ATOM      5  C   UNL     1     -34.904  36.034   0.896  0.00  0.00    -0.006 C 
ATOM      6  C   UNL     1     -36.008  35.433   1.475  0.00  0.00    -0.003 C 
ATOM      7  C   UNL     1     -36.304  37.531  -0.397  0.00  0.00    +0.016 C 
ATOM      8  C   UNL     1     -37.277  35.899   1.125  0.00  0.00    -0.000 C 
ATOM      9  C   UNL     1     -37.424  36.937   0.190  0.00  0.00    +0.001 C 
ENDROOT
BRANCH   1  10
ATOM     10  S   UNL     1     -33.551  39.121  -0.905  0.00  0.00    +0.077 S 
ATOM     11  O   UNL     1     -34.776  39.655  -1.473  0.00  0.00    -0.150 OA
ATOM     12  O   UNL     1     -32.287  39.288  -1.599  0.00  0.00    -0.150 OA
BRANCH  10  13
ATOM     13  C   UNL     1     -33.368  39.819   0.709  0.00  0.00    +0.126 C 
ATOM     14  C   UNL     1     -32.110  39.863   1.311  0.00  0.00    +0.023 C 
ATOM     15  C   UNL     1     -34.481  40.320   1.384  0.00  0.00    +0.023 C 
ATOM     16  C   UNL     1     -31.966  40.411   2.585  0.00  0.00    +0.038 C 
ATOM     17  C   UNL     1     -34.337  40.867   2.658  0.00  0.00    +0.038 C 
ATOM     18  C   UNL     1     -33.079  40.914   3.259  0.00  0.00    +0.139 C 
BRANCH  18  19
ATOM     19  O   UNL     1     -32.937  41.447   4.503  0.00  0.00    -0.471 OA
ATOM     20  C   UNL     1     -31.782  42.250   4.738  0.00  0.00    +0.252 C 
ENDBRANCH  18  19
ENDBRANCH  10  13
ENDBRANCH   1  10
BRANCH   8  21
ATOM     21  C   UNL     1     -38.459  35.291   1.717  0.00  0.00    +0.005 C 
ATOM     22  C   UNL     1     -39.666  35.888   1.835  0.00  0.00    +0.060 C 
BRANCH  22  25
ATOM     23  O   UNL     1     -41.303  34.158   1.992  0.00  0.00    -0.268 OA
ATOM     24  N   UNL     1     -41.212  35.790   3.625  0.00  0.00    -0.193 N 
ATOM     25  C   UNL     1     -40.806  35.171   2.470  0.00  0.00    +0.268 C 
ATOM     26  H   UNL     1     -40.777  36.605   3.964  0.00  0.00    +0.183 HD
BRANCH  24  27
ATOM     27  O   UNL     1     -42.288  35.186   4.290  0.00  0.00    -0.295 OA
ATOM     28  H   UNL     1     -43.118  35.602   4.007  0.00  0.00    +0.241 HD
ENDBRANCH  24  27
ENDBRANCH  22  25
ENDBRANCH   8  21
TORSDOF 6
ENDMDL
MODEL 5
REMARK VINA RESULT:      -6.5      2.652      3.558
REMARK  Name = 53385599
REMARK  6 active torsions:
REMARK  status: ('A' for Active; 'I' for Inactive)
REMARK    1  A    between atoms: N_1  and  S_10
REMARK    2  A    between atoms: C_8  and  C_21
REMARK    3  A    between atoms: S_10  and  C_13
REMARK    4  A    between atoms: C_18  and  O_19
REMARK    5  A    between atoms: C_22  and  C_25
REMARK    6  A    between atoms: N_24  and  O_27
REMARK                            x       y       z     vdW  Elec       q    Type
REMARK                         _______ _______ _______ _____ _____    ______ ____
ROOT
ATOM      1  N   UNL     1     -34.856  24.129   4.612  0.00  0.00    -0.191 N 
ATOM      2  C   UNL     1     -35.248  23.491   5.913  0.00  0.00    +0.121 C 
ATOM      3  C   UNL     1     -35.228  21.974   5.657  0.00  0.00    +0.051 C 
ATOM      4  C   UNL     1     -35.088  23.151   3.590  0.00  0.00    +0.065 C 
ATOM      5  C   UNL     1     -35.304  21.899   4.166  0.00  0.00    -0.006 C 
ATOM      6  C   UNL     1     -35.493  20.776   3.379  0.00  0.00    -0.003 C 
ATOM      7  C   UNL     1     -35.010  23.308   2.216  0.00  0.00    +0.016 C 
ATOM      8  C   UNL     1     -35.456  20.926   1.991  0.00  0.00    -0.000 C 
ATOM      9  C   UNL     1     -35.210  22.182   1.414  0.00  0.00    +0.001 C 
ENDROOT
BRANCH   1  10
ATOM     10  S   UNL     1     -35.382  25.716   4.320  0.00  0.00    +0.077 S 
ATOM     11  O   UNL     1     -36.538  26.008   5.150  0.00  0.00    -0.150 OA
ATOM     12  O   UNL     1     -35.428  25.957   2.889  0.00  0.00    -0.150 OA
BRANCH  10  13
ATOM     13  C   UNL     1     -34.018  26.635   4.970  0.00  0.00    +0.126 C 
ATOM     14  C   UNL     1     -33.309  27.508   4.144  0.00  0.00    +0.023 C 
ATOM     15  C   UNL     1     -33.648  26.483   6.306  0.00  0.00    +0.023 C 
ATOM     16  C   UNL     1     -32.232  28.230   4.656  0.00  0.00    +0.038 C 
ATOM     17  C   UNL     1     -32.570  27.206   6.817  0.00  0.00    +0.038 C 
ATOM     18  C   UNL     1     -31.862  28.080   5.992  0.00  0.00    +0.139 C 
BRANCH  18  19
ATOM     19  O   UNL     1     -30.809  28.784   6.490  0.00  0.00    -0.471 OA
ATOM     20  C   UNL     1     -29.510  28.226   6.307  0.00  0.00    +0.252 C 
ENDBRANCH  18  19
ENDBRANCH  10  13
ENDBRANCH   1  10
BRANCH   8  21
ATOM     21  C   UNL     1     -35.654  19.767   1.134  0.00  0.00    +0.005 C 
ATOM     22  C   UNL     1     -36.804  19.457   0.496  0.00  0.00    +0.060 C 
BRANCH  22  25
ATOM     23  O   UNL     1     -36.635  18.236  -1.549  0.00  0.00    -0.268 OA
ATOM     24  N   UNL     1     -37.304  17.146   0.376  0.00  0.00    -0.193 N 
ATOM     25  C   UNL     1     -36.895  18.235  -0.351  0.00  0.00    +0.268 C 
ATOM     26  H   UNL     1     -37.502  17.201   1.339  0.00  0.00    +0.183 HD
BRANCH  24  27
ATOM     27  O   UNL     1     -37.424  15.948  -0.342  0.00  0.00    -0.295 OA
ATOM     28  H   UNL     1     -38.350  15.658  -0.335  0.00  0.00    +0.241 HD
ENDBRANCH  24  27
ENDBRANCH  22  25
ENDBRANCH   8  21
TORSDOF 6
ENDMDL
MODEL 6
REMARK VINA RESULT:      -6.5      3.777      7.644
REMARK  Name = 53385599
REMARK  6 active torsions:
REMARK  status: ('A' for Active; 'I' for Inactive)
REMARK    1  A    between atoms: N_1  and  S_10
REMARK    2  A    between atoms: C_8  and  C_21
REMARK    3  A    between atoms: S_10  and  C_13
REMARK    4  A    between atoms: C_18  and  O_19
REMARK    5  A    between atoms: C_22  and  C_25
REMARK    6  A    between atoms: N_24  and  O_27
REMARK                            x       y       z     vdW  Elec       q    Type
REMARK                         _______ _______ _______ _____ _____    ______ ____
ROOT
ATOM      1  N   UNL     1     -36.526  23.204   3.670  0.00  0.00    -0.191 N 
ATOM      2  C   UNL     1     -35.948  21.938   4.234  0.00  0.00    +0.121 C 
ATOM      3  C   UNL     1     -35.095  22.369   5.441  0.00  0.00    +0.051 C 
ATOM      4  C   UNL     1     -35.707  24.278   4.151  0.00  0.00    +0.065 C 
ATOM      5  C   UNL     1     -34.874  23.823   5.173  0.00  0.00    -0.006 C 
ATOM      6  C   UNL     1     -34.028  24.692   5.841  0.00  0.00    -0.003 C 
ATOM      7  C   UNL     1     -35.752  25.616   3.799  0.00  0.00    +0.016 C 
ATOM      8  C   UNL     1     -34.033  26.039   5.471  0.00  0.00    -0.000 C 
ATOM      9  C   UNL     1     -34.894  26.498   4.461  0.00  0.00    +0.001 C 
ENDROOT
BRANCH   1  10
ATOM     10  S   UNL     1     -36.956  23.213   2.028  0.00  0.00    +0.077 S 
ATOM     11  O   UNL     1     -37.547  21.935   1.671  0.00  0.00    -0.150 OA
ATOM     12  O   UNL     1     -35.864  23.759   1.244  0.00  0.00    -0.150 OA
BRANCH  10  13
ATOM     13  C   UNL     1     -38.255  24.412   2.040  0.00  0.00    +0.126 C 
ATOM     14  C   UNL     1     -39.244  24.359   3.023  0.00  0.00    +0.023 C 
ATOM     15  C   UNL     1     -38.295  25.408   1.064  0.00  0.00    +0.023 C 
ATOM     16  C   UNL     1     -40.270  25.303   3.031  0.00  0.00    +0.038 C 
ATOM     17  C   UNL     1     -39.322  26.351   1.073  0.00  0.00    +0.038 C 
ATOM     18  C   UNL     1     -40.309  26.300   2.056  0.00  0.00    +0.139 C 
BRANCH  18  19
ATOM     19  O   UNL     1     -41.312  27.220   2.064  0.00  0.00    -0.471 OA
ATOM     20  C   UNL     1     -42.326  27.068   3.056  0.00  0.00    +0.252 C 
ENDBRANCH  18  19
ENDBRANCH  10  13
ENDBRANCH   1  10
BRANCH   8  21
ATOM     21  C   UNL     1     -33.155  26.978   6.150  0.00  0.00    +0.005 C 
ATOM     22  C   UNL     1     -32.407  27.926   5.542  0.00  0.00    +0.060 C 
BRANCH  22  25
ATOM     23  O   UNL     1     -31.812  30.003   6.555  0.00  0.00    -0.268 OA
ATOM     24  N   UNL     1     -30.406  28.183   6.780  0.00  0.00    -0.193 N 
ATOM     25  C   UNL     1     -31.533  28.829   6.340  0.00  0.00    +0.268 C 
ATOM     26  H   UNL     1     -30.231  27.236   6.577  0.00  0.00    +0.183 HD
BRANCH  24  27
ATOM     27  O   UNL     1     -29.519  28.960   7.539  0.00  0.00    -0.295 OA
ATOM     28  H   UNL     1     -29.789  29.891   7.499  0.00  0.00    +0.241 HD
ENDBRANCH  24  27
ENDBRANCH  22  25
ENDBRANCH   8  21
TORSDOF 6
ENDMDL
MODEL 7
REMARK VINA RESULT:      -6.5      2.501      7.704
REMARK  Name = 53385599
REMARK  6 active torsions:
REMARK  status: ('A' for Active; 'I' for Inactive)
REMARK    1  A    between atoms: N_1  and  S_10
REMARK    2  A    between atoms: C_8  and  C_21
REMARK    3  A    between atoms: S_10  and  C_13
REMARK    4  A    between atoms: C_18  and  O_19
REMARK    5  A    between atoms: C_22  and  C_25
REMARK    6  A    between atoms: N_24  and  O_27
REMARK                            x       y       z     vdW  Elec       q    Type
REMARK                         _______ _______ _______ _____ _____    ______ ____
ROOT
ATOM      1  N   UNL     1     -36.255  24.505   1.954  0.00  0.00    -0.191 N 
ATOM      2  C   UNL     1     -37.104  25.651   1.485  0.00  0.00    +0.121 C 
ATOM      3  C   UNL     1     -36.384  26.926   1.957  0.00  0.00    +0.051 C 
ATOM      4  C   UNL     1     -35.429  25.014   3.010  0.00  0.00    +0.065 C 
ATOM      5  C   UNL     1     -35.485  26.407   3.033  0.00  0.00    -0.006 C 
ATOM      6  C   UNL     1     -34.722  27.136   3.930  0.00  0.00    -0.003 C 
ATOM      7  C   UNL     1     -34.579  24.313   3.849  0.00  0.00    +0.016 C 
ATOM      8  C   UNL     1     -33.889  26.441   4.809  0.00  0.00    -0.000 C 
ATOM      9  C   UNL     1     -33.814  25.040   4.765  0.00  0.00    +0.001 C 
ENDROOT
BRANCH   1  10
ATOM     10  S   UNL     1     -37.013  23.006   2.196  0.00  0.00    +0.077 S 
ATOM     11  O   UNL     1     -38.090  22.843   1.235  0.00  0.00    -0.150 OA
ATOM     12  O   UNL     1     -37.260  22.811   3.614  0.00  0.00    -0.150 OA
BRANCH  10  13
ATOM     13  C   UNL     1     -35.712  21.905   1.727  0.00  0.00    +0.126 C 
ATOM     14  C   UNL     1     -34.822  22.269   0.716  0.00  0.00    +0.023 C 
ATOM     15  C   UNL     1     -35.578  20.671   2.363  0.00  0.00    +0.023 C 
ATOM     16  C   UNL     1     -33.798  21.399   0.343  0.00  0.00    +0.038 C 
ATOM     17  C   UNL     1     -34.554  19.802   1.989  0.00  0.00    +0.038 C 
ATOM     18  C   UNL     1     -33.663  20.166   0.980  0.00  0.00    +0.139 C 
BRANCH  18  19
ATOM     19  O   UNL     1     -32.663  19.317   0.615  0.00  0.00    -0.471 OA
ATOM     20  C   UNL     1     -32.543  18.101   1.352  0.00  0.00    +0.252 C 
ENDBRANCH  18  19
ENDBRANCH  10  13
ENDBRANCH   1  10
BRANCH   8  21
ATOM     21  C   UNL     1     -33.077  27.176   5.767  0.00  0.00    +0.005 C 
ATOM     22  C   UNL     1     -32.158  28.115   5.450  0.00  0.00    +0.060 C 
BRANCH  22  25
ATOM     23  O   UNL     1     -31.835  29.704   7.201  0.00  0.00    -0.268 OA
ATOM     24  N   UNL     1     -30.105  28.290   6.615  0.00  0.00    -0.193 N 
ATOM     25  C   UNL     1     -31.374  28.798   6.516  0.00  0.00    +0.268 C 
ATOM     26  H   UNL     1     -29.785  27.559   6.037  0.00  0.00    +0.183 HD
BRANCH  24  27
ATOM     27  O   UNL     1     -29.290  28.878   7.593  0.00  0.00    -0.295 OA
ATOM     28  H   UNL     1     -28.583  29.384   7.163  0.00  0.00    +0.241 HD
ENDBRANCH  24  27
ENDBRANCH  22  25
ENDBRANCH   8  21
TORSDOF 6
ENDMDL
MODEL 8
REMARK VINA RESULT:      -6.4      3.423      8.240
REMARK  Name = 53385599
REMARK  6 active torsions:
REMARK  status: ('A' for Active; 'I' for Inactive)
REMARK    1  A    between atoms: N_1  and  S_10
REMARK    2  A    between atoms: C_8  and  C_21
REMARK    3  A    between atoms: S_10  and  C_13
REMARK    4  A    between atoms: C_18  and  O_19
REMARK    5  A    between atoms: C_22  and  C_25
REMARK    6  A    between atoms: N_24  and  O_27
REMARK                            x       y       z     vdW  Elec       q    Type
REMARK                         _______ _______ _______ _____ _____    ______ ____
ROOT
ATOM      1  N   UNL     1     -35.056  26.693   3.045  0.00  0.00    -0.191 N 
ATOM      2  C   UNL     1     -35.156  27.774   2.007  0.00  0.00    +0.121 C 
ATOM      3  C   UNL     1     -33.881  28.621   2.162  0.00  0.00    +0.051 C 
ATOM      4  C   UNL     1     -34.113  27.151   4.023  0.00  0.00    +0.065 C 
ATOM      5  C   UNL     1     -33.422  28.261   3.539  0.00  0.00    -0.006 C 
ATOM      6  C   UNL     1     -32.412  28.850   4.280  0.00  0.00    -0.003 C 
ATOM      7  C   UNL     1     -33.786  26.572   5.238  0.00  0.00    +0.016 C 
ATOM      8  C   UNL     1     -32.097  28.301   5.525  0.00  0.00    -0.000 C 
ATOM      9  C   UNL     1     -32.776  27.166   5.998  0.00  0.00    +0.001 C 
ENDROOT
BRANCH   1  10
ATOM     10  S   UNL     1     -36.500  25.998   3.603  0.00  0.00    +0.077 S 
ATOM     11  O   UNL     1     -37.584  26.327   2.695  0.00  0.00    -0.150 OA
ATOM     12  O   UNL     1     -36.638  26.245   5.028  0.00  0.00    -0.150 OA
BRANCH  10  13
ATOM     13  C   UNL     1     -36.136  24.281   3.394  0.00  0.00    +0.126 C 
ATOM     14  C   UNL     1     -35.821  23.495   4.502  0.00  0.00    +0.023 C 
ATOM     15  C   UNL     1     -36.160  23.712   2.120  0.00  0.00    +0.023 C 
ATOM     16  C   UNL     1     -35.531  22.141   4.337  0.00  0.00    +0.038 C 
ATOM     17  C   UNL     1     -35.869  22.359   1.955  0.00  0.00    +0.038 C 
ATOM     18  C   UNL     1     -35.555  21.572   3.064  0.00  0.00    +0.139 C 
BRANCH  18  19
ATOM     19  O   UNL     1     -35.271  20.251   2.903  0.00  0.00    -0.471 OA
ATOM     20  C   UNL     1     -34.529  19.883   1.742  0.00  0.00    +0.252 C 
ENDBRANCH  18  19
ENDBRANCH  10  13
ENDBRANCH   1  10
BRANCH   8  21
ATOM     21  C   UNL     1     -31.044  28.897   6.332  0.00  0.00    +0.005 C 
ATOM     22  C   UNL     1     -29.807  29.213   5.887  0.00  0.00    +0.060 C 
BRANCH  22  25
ATOM     23  O   UNL     1     -28.011  30.681   6.454  0.00  0.00    -0.268 OA
ATOM     24  N   UNL     1     -28.878  29.269   8.064  0.00  0.00    -0.193 N 
ATOM     25  C   UNL     1     -28.801  29.812   6.808  0.00  0.00    +0.268 C 
ATOM     26  H   UNL     1     -29.533  28.570   8.295  0.00  0.00    +0.183 HD
BRANCH  24  27
ATOM     27  O   UNL     1     -27.962  29.770   9.000  0.00  0.00    -0.295 OA
ATOM     28  H   UNL     1     -28.121  30.718   9.131  0.00  0.00    +0.241 HD
ENDBRANCH  24  27
ENDBRANCH  22  25
ENDBRANCH   8  21
TORSDOF 6
ENDMDL
MODEL 9
REMARK VINA RESULT:      -6.4      2.662      7.797
REMARK  Name = 53385599
REMARK  6 active torsions:
REMARK  status: ('A' for Active; 'I' for Inactive)
REMARK    1  A    between atoms: N_1  and  S_10
REMARK    2  A    between atoms: C_8  and  C_21
REMARK    3  A    between atoms: S_10  and  C_13
REMARK    4  A    between atoms: C_18  and  O_19
REMARK    5  A    between atoms: C_22  and  C_25
REMARK    6  A    between atoms: N_24  and  O_27
REMARK                            x       y       z     vdW  Elec       q    Type
REMARK                         _______ _______ _______ _____ _____    ______ ____
ROOT
ATOM      1  N   UNL     1     -36.520  22.819   3.685  0.00  0.00    -0.191 N 
ATOM      2  C   UNL     1     -35.867  21.786   4.557  0.00  0.00    +0.121 C 
ATOM      3  C   UNL     1     -35.016  22.571   5.571  0.00  0.00    +0.051 C 
ATOM      4  C   UNL     1     -35.749  24.020   3.826  0.00  0.00    +0.065 C 
ATOM      5  C   UNL     1     -34.875  23.903   4.907  0.00  0.00    -0.006 C 
ATOM      6  C   UNL     1     -34.063  24.959   5.283  0.00  0.00    -0.003 C 
ATOM      7  C   UNL     1     -35.869  25.206   3.121  0.00  0.00    +0.016 C 
ATOM      8  C   UNL     1     -34.145  26.150   4.557  0.00  0.00    -0.000 C 
ATOM      9  C   UNL     1     -35.046  26.274   3.487  0.00  0.00    +0.001 C 
ENDROOT
BRANCH   1  10
ATOM     10  S   UNL     1     -36.980  22.355   2.119  0.00  0.00    +0.077 S 
ATOM     11  O   UNL     1     -37.150  23.536   1.290  0.00  0.00    -0.150 OA
ATOM     12  O   UNL     1     -38.033  21.358   2.198  0.00  0.00    -0.150 OA
BRANCH  10  13
ATOM     13  C   UNL     1     -35.511  21.535   1.579  0.00  0.00    +0.126 C 
ATOM     14  C   UNL     1     -35.282  20.206   1.937  0.00  0.00    +0.023 C 
ATOM     15  C   UNL     1     -34.577  22.217   0.797  0.00  0.00    +0.023 C 
ATOM     16  C   UNL     1     -34.121  19.560   1.514  0.00  0.00    +0.038 C 
ATOM     17  C   UNL     1     -33.416  21.570   0.375  0.00  0.00    +0.038 C 
ATOM     18  C   UNL     1     -33.188  20.241   0.732  0.00  0.00    +0.139 C 
BRANCH  18  19
ATOM     19  O   UNL     1     -32.055  19.610   0.320  0.00  0.00    -0.471 OA
ATOM     20  C   UNL     1     -31.979  19.246  -1.057  0.00  0.00    +0.252 C 
ENDBRANCH  18  19
ENDBRANCH  10  13
ENDBRANCH   1  10
BRANCH   8  21
ATOM     21  C   UNL     1     -33.303  27.278   4.924  0.00  0.00    +0.005 C 
ATOM     22  C   UNL     1     -32.648  27.412   6.098  0.00  0.00    +0.060 C 
BRANCH  22  25
ATOM     23  O   UNL     1     -32.198  29.756   6.109  0.00  0.00    -0.268 OA
ATOM     24  N   UNL     1     -30.613  28.289   6.932  0.00  0.00    -0.193 N 
ATOM     25  C   UNL     1     -31.820  28.620   6.371  0.00  0.00    +0.268 C 
ATOM     26  H   UNL     1     -30.360  27.357   7.121  0.00  0.00    +0.183 HD
BRANCH  24  27
ATOM     27  O   UNL     1     -29.763  29.366   7.219  0.00  0.00    -0.295 OA
ATOM     28  H   UNL     1     -29.320  29.211   8.068  0.00  0.00    +0.241 HD
ENDBRANCH  24  27
ENDBRANCH  22  25
ENDBRANCH   8  21
TORSDOF 6
ENDMDL
