MODEL 1
REMARK VINA RESULT:      -6.4      0.000      0.000
REMARK  Name = 60207520
REMARK  9 active torsions:
REMARK  status: ('A' for Active; 'I' for Inactive)
REMARK    1  A    between atoms: N_1  and  C_33
REMARK    2  A    between atoms: C_6  and  O_21
REMARK    3  A    between atoms: C_8  and  O_23
REMARK    4  A    between atoms: C_9  and  O_25
REMARK    5  A    between atoms: C_10  and  C_35
REMARK    6  A    between atoms: C_11  and  O_27
REMARK    7  A    between atoms: C_14  and  O_29
REMARK    8  A    between atoms: C_18  and  O_31
REMARK    9  A    between atoms: C_35  and  O_36
REMARK                            x       y       z     vdW  Elec       q    Type
REMARK                         _______ _______ _______ _____ _____    ______ ____
ROOT
ATOM      1  N   UNL     1     -37.802  24.784   1.867  0.00  0.00    +0.390 N 
ATOM      2  C   UNL     1     -35.463  24.027   1.642  0.00  0.00    +0.013 C 
ATOM      3  C   UNL     1     -35.367  24.236   3.205  0.00  0.00    +0.030 C 
ATOM      4  C   UNL     1     -36.955  23.606   1.581  0.00  0.00    -0.026 C 
ATOM      5  C   UNL     1     -34.556  22.837   1.124  0.00  0.00    +0.005 C 
ATOM      6  C   UNL     1     -36.935  22.438   2.633  0.00  0.00    +0.119 C 
ATOM      7  C   UNL     1     -34.753  21.450   1.767  0.00  0.00    +0.054 C 
ATOM      8  C   UNL     1     -36.241  21.160   2.059  0.00  0.00    +0.115 C 
ATOM      9  C   UNL     1     -36.161  23.054   3.831  0.00  0.00    +0.140 C 
ATOM     10  C   UNL     1     -36.103  25.563   3.585  0.00  0.00    +0.011 C 
ATOM     11  C   UNL     1     -35.046  25.317   0.845  0.00  0.00    +0.109 C 
ATOM     12  C   UNL     1     -34.653  22.525  -0.396  0.00  0.00    +0.005 C 
ATOM     13  C   UNL     1     -34.852  21.007  -0.524  0.00  0.00    +0.055 C 
ATOM     14  C   UNL     1     -34.158  20.496   0.727  0.00  0.00    +0.120 C 
ATOM     15  C   UNL     1     -37.001  20.524   0.861  0.00  0.00    +0.059 C 
ATOM     16  C   UNL     1     -37.606  25.434   3.172  0.00  0.00    -0.075 C 
ATOM     17  C   UNL     1     -35.422  26.750   2.876  0.00  0.00    +0.003 C 
ATOM     18  C   UNL     1     -36.353  20.664  -0.527  0.00  0.00    +0.120 C 
ATOM     19  C   UNL     1     -35.515  26.666   1.374  0.00  0.00    +0.029 C 
ATOM     20  H   UNL     1     -37.440  25.461   1.197  0.00  0.00    -0.080 HD
ENDROOT
BRANCH   6  21
ATOM     21  O   UNL     1     -38.259  22.095   3.027  0.00  0.00    -0.384 OA
ATOM     22  H   UNL     1     -38.626  21.452   2.401  0.00  0.00    +0.210 HD
ENDBRANCH   6  21
BRANCH   8  23
ATOM     23  O   UNL     1     -36.254  20.150   3.092  0.00  0.00    -0.384 OA
ATOM     24  H   UNL     1     -35.930  19.312   2.729  0.00  0.00    +0.210 HD
ENDBRANCH   8  23
BRANCH   9  25
ATOM     25  O   UNL     1     -35.282  22.186   4.525  0.00  0.00    -0.351 OA
ATOM     26  C   UNL     1     -35.465  22.267   5.934  0.00  0.00    +0.174 C 
ENDBRANCH   9  25
BRANCH  11  27
ATOM     27  O   UNL     1     -35.451  25.271  -0.522  0.00  0.00    -0.385 OA
ATOM     28  H   UNL     1     -34.816  24.744  -1.030  0.00  0.00    +0.210 HD
ENDBRANCH  11  27
BRANCH  14  29
ATOM     29  O   UNL     1     -34.409  19.131   0.984  0.00  0.00    -0.353 OA
ATOM     30  C   UNL     1     -33.216  18.425   1.313  0.00  0.00    +0.174 C 
ENDBRANCH  14  29
BRANCH  18  31
ATOM     31  O   UNL     1     -36.542  19.432  -1.236  0.00  0.00    -0.353 OA
ATOM     32  C   UNL     1     -37.519  18.625  -0.604  0.00  0.00    +0.174 C 
ENDBRANCH  18  31
BRANCH   1  33
ATOM     33  C   UNL     1     -39.213  24.589   1.560  0.00  0.00    -0.077 C 
ATOM     34  C   UNL     1     -40.096  25.093   2.689  0.00  0.00    -0.025 C 
ENDBRANCH   1  33
BRANCH  10  35
ATOM     35  C   UNL     1     -36.003  25.854   5.100  0.00  0.00    +0.140 C 
BRANCH  35  36
ATOM     36  O   UNL     1     -34.935  26.752   5.296  0.00  0.00    -0.351 OA
ATOM     37  C   UNL     1     -33.903  26.186   6.099  0.00  0.00    +0.174 C 
ENDBRANCH  35  36
ENDBRANCH  10  35
TORSDOF 9
ENDMDL
MODEL 2
REMARK VINA RESULT:      -5.9      2.886      4.924
REMARK  Name = 60207520
REMARK  9 active torsions:
REMARK  status: ('A' for Active; 'I' for Inactive)
REMARK    1  A    between atoms: N_1  and  C_33
REMARK    2  A    between atoms: C_6  and  O_21
REMARK    3  A    between atoms: C_8  and  O_23
REMARK    4  A    between atoms: C_9  and  O_25
REMARK    5  A    between atoms: C_10  and  C_35
REMARK    6  A    between atoms: C_11  and  O_27
REMARK    7  A    between atoms: C_14  and  O_29
REMARK    8  A    between atoms: C_18  and  O_31
REMARK    9  A    between atoms: C_35  and  O_36
REMARK                            x       y       z     vdW  Elec       q    Type
REMARK                         _______ _______ _______ _____ _____    ______ ____
ROOT
ATOM      1  N   UNL     1     -34.277  27.954   1.423  0.00  0.00    +0.390 N 
ATOM      2  C   UNL     1     -33.467  25.730   2.126  0.00  0.00    +0.013 C 
ATOM      3  C   UNL     1     -32.461  26.518   3.055  0.00  0.00    +0.030 C 
ATOM      4  C   UNL     1     -34.642  26.741   2.187  0.00  0.00    -0.026 C 
ATOM      5  C   UNL     1     -33.926  24.348   2.748  0.00  0.00    +0.005 C 
ATOM      6  C   UNL     1     -34.790  26.868   3.746  0.00  0.00    +0.119 C 
ATOM      7  C   UNL     1     -34.551  24.366   4.157  0.00  0.00    +0.054 C 
ATOM      8  C   UNL     1     -35.458  25.598   4.365  0.00  0.00    +0.115 C 
ATOM      9  C   UNL     1     -33.326  27.070   4.225  0.00  0.00    +0.140 C 
ATOM     10  C   UNL     1     -31.891  27.741   2.263  0.00  0.00    +0.011 C 
ATOM     11  C   UNL     1     -32.851  25.427   0.711  0.00  0.00    +0.109 C 
ATOM     12  C   UNL     1     -34.971  23.548   1.921  0.00  0.00    +0.005 C 
ATOM     13  C   UNL     1     -36.082  23.132   2.897  0.00  0.00    +0.055 C 
ATOM     14  C   UNL     1     -35.325  23.046   4.211  0.00  0.00    +0.120 C 
ATOM     15  C   UNL     1     -36.926  25.378   3.902  0.00  0.00    +0.059 C 
ATOM     16  C   UNL     1     -33.079  28.679   1.872  0.00  0.00    -0.075 C 
ATOM     17  C   UNL     1     -31.134  27.238   1.018  0.00  0.00    +0.003 C 
ATOM     18  C   UNL     1     -37.184  24.205   2.941  0.00  0.00    +0.120 C 
ATOM     19  C   UNL     1     -32.030  26.520   0.040  0.00  0.00    +0.029 C 
ATOM     20  H   UNL     1     -34.000  27.553   0.527  0.00  0.00    -0.080 HD
ENDROOT
BRANCH   6  21
ATOM     21  O   UNL     1     -35.578  28.004   4.085  0.00  0.00    -0.384 OA
ATOM     22  H   UNL     1     -35.156  28.804   3.738  0.00  0.00    +0.210 HD
ENDBRANCH   6  21
BRANCH   8  23
ATOM     23  O   UNL     1     -35.539  25.794   5.794  0.00  0.00    -0.384 OA
ATOM     24  H   UNL     1     -35.695  24.942   6.229  0.00  0.00    +0.210 HD
ENDBRANCH   8  23
BRANCH   9  25
ATOM     25  O   UNL     1     -32.968  26.434   5.440  0.00  0.00    -0.351 OA
ATOM     26  C   UNL     1     -32.561  27.375   6.427  0.00  0.00    +0.174 C 
ENDBRANCH   9  25
BRANCH  11  27
ATOM     27  O   UNL     1     -33.837  25.038  -0.244  0.00  0.00    -0.385 OA
ATOM     28  H   UNL     1     -34.129  24.133  -0.057  0.00  0.00    +0.210 HD
ENDBRANCH  11  27
BRANCH  14  29
ATOM     29  O   UNL     1     -36.171  22.918   5.333  0.00  0.00    -0.353 OA
ATOM     30  C   UNL     1     -35.563  22.155   6.372  0.00  0.00    +0.174 C 
ENDBRANCH  14  29
BRANCH  18  31
ATOM     31  O   UNL     1     -38.419  23.582   3.317  0.00  0.00    -0.353 OA
ATOM     32  C   UNL     1     -38.880  22.711   2.300  0.00  0.00    +0.174 C 
ENDBRANCH  18  31
BRANCH   1  33
ATOM     33  C   UNL     1     -35.395  28.852   1.164  0.00  0.00    -0.077 C 
ATOM     34  C   UNL     1     -36.622  28.083   0.708  0.00  0.00    -0.025 C 
ENDBRANCH   1  33
BRANCH  10  35
ATOM     35  C   UNL     1     -30.859  28.528   3.102  0.00  0.00    +0.140 C 
BRANCH  35  36
ATOM     36  O   UNL     1     -30.027  27.593   3.750  0.00  0.00    -0.351 OA
ATOM     37  C   UNL     1     -29.145  28.219   4.679  0.00  0.00    +0.174 C 
ENDBRANCH  35  36
ENDBRANCH  10  35
TORSDOF 9
ENDMDL
MODEL 3
REMARK VINA RESULT:      -5.8      2.071      6.259
REMARK  Name = 60207520
REMARK  9 active torsions:
REMARK  status: ('A' for Active; 'I' for Inactive)
REMARK    1  A    between atoms: N_1  and  C_33
REMARK    2  A    between atoms: C_6  and  O_21
REMARK    3  A    between atoms: C_8  and  O_23
REMARK    4  A    between atoms: C_9  and  O_25
REMARK    5  A    between atoms: C_10  and  C_35
REMARK    6  A    between atoms: C_11  and  O_27
REMARK    7  A    between atoms: C_14  and  O_29
REMARK    8  A    between atoms: C_18  and  O_31
REMARK    9  A    between atoms: C_35  and  O_36
REMARK                            x       y       z     vdW  Elec       q    Type
REMARK                         _______ _______ _______ _____ _____    ______ ____
ROOT
ATOM      1  N   UNL     1     -37.346  24.271   3.544  0.00  0.00    +0.390 N 
ATOM      2  C   UNL     1     -34.889  24.520   3.523  0.00  0.00    +0.013 C 
ATOM      3  C   UNL     1     -34.885  23.248   2.586  0.00  0.00    +0.030 C 
ATOM      4  C   UNL     1     -36.240  25.120   3.051  0.00  0.00    -0.026 C 
ATOM      5  C   UNL     1     -33.717  25.532   3.194  0.00  0.00    +0.005 C 
ATOM      6  C   UNL     1     -35.975  25.161   1.502  0.00  0.00    +0.119 C 
ATOM      7  C   UNL     1     -33.602  26.051   1.747  0.00  0.00    +0.054 C 
ATOM      8  C   UNL     1     -34.988  26.310   1.119  0.00  0.00    +0.115 C 
ATOM      9  C   UNL     1     -35.397  23.749   1.205  0.00  0.00    +0.140 C 
ATOM     10  C   UNL     1     -35.920  22.211   3.134  0.00  0.00    +0.011 C 
ATOM     11  C   UNL     1     -34.765  24.136   5.044  0.00  0.00    +0.109 C 
ATOM     12  C   UNL     1     -33.700  26.843   4.029  0.00  0.00    +0.005 C 
ATOM     13  C   UNL     1     -33.536  28.000   3.032  0.00  0.00    +0.055 C 
ATOM     14  C   UNL     1     -32.774  27.331   1.902  0.00  0.00    +0.120 C 
ATOM     15  C   UNL     1     -35.548  27.732   1.404  0.00  0.00    +0.059 C 
ATOM     16  C   UNL     1     -37.340  22.865   3.111  0.00  0.00    -0.075 C 
ATOM     17  C   UNL     1     -35.517  21.786   4.560  0.00  0.00    +0.003 C 
ATOM     18  C   UNL     1     -34.914  28.508   2.572  0.00  0.00    +0.120 C 
ATOM     19  C   UNL     1     -35.550  22.930   5.542  0.00  0.00    +0.029 C 
ATOM     20  H   UNL     1     -37.135  24.222   4.541  0.00  0.00    -0.080 HD
ENDROOT
BRANCH   6  21
ATOM     21  O   UNL     1     -37.192  25.353   0.789  0.00  0.00    -0.384 OA
ATOM     22  H   UNL     1     -37.137  24.904  -0.068  0.00  0.00    +0.210 HD
ENDBRANCH   6  21
BRANCH   8  23
ATOM     23  O   UNL     1     -34.791  26.263  -0.312  0.00  0.00    -0.384 OA
ATOM     24  H   UNL     1     -33.978  26.738  -0.542  0.00  0.00    +0.210 HD
ENDBRANCH   8  23
BRANCH   9  25
ATOM     25  O   UNL     1     -34.357  23.685   0.245  0.00  0.00    -0.351 OA
ATOM     26  C   UNL     1     -34.625  22.709  -0.756  0.00  0.00    +0.174 C 
ENDBRANCH   9  25
BRANCH  11  27
ATOM     27  O   UNL     1     -35.114  25.213   5.911  0.00  0.00    -0.385 OA
ATOM     28  H   UNL     1     -34.357  25.430   6.478  0.00  0.00    +0.210 HD
ENDBRANCH  11  27
BRANCH  14  29
ATOM     29  O   UNL     1     -32.706  28.119   0.733  0.00  0.00    -0.353 OA
ATOM     30  C   UNL     1     -31.597  29.015   0.761  0.00  0.00    +0.174 C 
ENDBRANCH  14  29
BRANCH  18  31
ATOM     31  O   UNL     1     -34.792  29.882   2.183  0.00  0.00    -0.353 OA
ATOM     32  C   UNL     1     -34.092  30.628   3.163  0.00  0.00    +0.174 C 
ENDBRANCH  18  31
BRANCH   1  33
ATOM     33  C   UNL     1     -38.665  24.878   3.415  0.00  0.00    -0.077 C 
ATOM     34  C   UNL     1     -39.637  23.937   2.726  0.00  0.00    -0.025 C 
ENDBRANCH   1  33
BRANCH  10  35
ATOM     35  C   UNL     1     -35.929  20.918   2.288  0.00  0.00    +0.140 C 
BRANCH  35  36
ATOM     36  O   UNL     1     -34.841  20.123   2.703  0.00  0.00    -0.351 OA
ATOM     37  C   UNL     1     -34.121  19.585   1.597  0.00  0.00    +0.174 C 
ENDBRANCH  35  36
ENDBRANCH  10  35
TORSDOF 9
ENDMDL
MODEL 4
REMARK VINA RESULT:      -5.7      2.311      6.011
REMARK  Name = 60207520
REMARK  9 active torsions:
REMARK  status: ('A' for Active; 'I' for Inactive)
REMARK    1  A    between atoms: N_1  and  C_33
REMARK    2  A    between atoms: C_6  and  O_21
REMARK    3  A    between atoms: C_8  and  O_23
REMARK    4  A    between atoms: C_9  and  O_25
REMARK    5  A    between atoms: C_10  and  C_35
REMARK    6  A    between atoms: C_11  and  O_27
REMARK    7  A    between atoms: C_14  and  O_29
REMARK    8  A    between atoms: C_18  and  O_31
REMARK    9  A    between atoms: C_35  and  O_36
REMARK                            x       y       z     vdW  Elec       q    Type
REMARK                         _______ _______ _______ _____ _____    ______ ____
ROOT
ATOM      1  N   UNL     1     -36.124  23.016   0.364  0.00  0.00    +0.390 N 
ATOM      2  C   UNL     1     -38.112  22.723   1.801  0.00  0.00    +0.013 C 
ATOM      3  C   UNL     1     -37.083  22.521   2.983  0.00  0.00    +0.030 C 
ATOM      4  C   UNL     1     -37.273  23.727   0.966  0.00  0.00    -0.026 C 
ATOM      5  C   UNL     1     -39.457  23.417   2.266  0.00  0.00    +0.005 C 
ATOM      6  C   UNL     1     -36.977  24.800   2.077  0.00  0.00    +0.119 C 
ATOM      7  C   UNL     1     -39.352  24.771   2.995  0.00  0.00    +0.054 C 
ATOM      8  C   UNL     1     -38.242  25.660   2.396  0.00  0.00    +0.115 C 
ATOM      9  C   UNL     1     -36.517  23.938   3.286  0.00  0.00    +0.140 C 
ATOM     10  C   UNL     1     -35.900  21.630   2.479  0.00  0.00    +0.011 C 
ATOM     11  C   UNL     1     -38.498  21.363   1.113  0.00  0.00    +0.109 C 
ATOM     12  C   UNL     1     -40.489  23.713   1.143  0.00  0.00    +0.005 C 
ATOM     13  C   UNL     1     -40.932  25.173   1.323  0.00  0.00    +0.055 C 
ATOM     14  C   UNL     1     -40.750  25.370   2.818  0.00  0.00    +0.120 C 
ATOM     15  C   UNL     1     -38.717  26.533   1.200  0.00  0.00    +0.059 C 
ATOM     16  C   UNL     1     -35.190  22.366   1.296  0.00  0.00    -0.075 C 
ATOM     17  C   UNL     1     -36.443  20.254   2.044  0.00  0.00    +0.003 C 
ATOM     18  C   UNL     1     -40.024  26.111   0.507  0.00  0.00    +0.120 C 
ATOM     19  C   UNL     1     -37.392  20.343   0.877  0.00  0.00    +0.029 C 
ATOM     20  H   UNL     1     -36.590  22.237  -0.101  0.00  0.00    -0.080 HD
ENDROOT
BRANCH   6  21
ATOM     21  O   UNL     1     -35.928  25.670   1.668  0.00  0.00    -0.384 OA
ATOM     22  H   UNL     1     -35.409  25.243   0.969  0.00  0.00    +0.210 HD
ENDBRANCH   6  21
BRANCH   8  23
ATOM     23  O   UNL     1     -37.884  26.602   3.431  0.00  0.00    -0.384 OA
ATOM     24  H   UNL     1     -38.470  26.482   4.194  0.00  0.00    +0.210 HD
ENDBRANCH   8  23
BRANCH   9  25
ATOM     25  O   UNL     1     -36.943  24.372   4.566  0.00  0.00    -0.351 OA
ATOM     26  C   UNL     1     -35.857  24.859   5.345  0.00  0.00    +0.174 C 
ENDBRANCH   9  25
BRANCH  11  27
ATOM     27  O   UNL     1     -39.133  21.548  -0.151  0.00  0.00    -0.385 OA
ATOM     28  H   UNL     1     -40.041  21.862  -0.013  0.00  0.00    +0.210 HD
ENDBRANCH  11  27
BRANCH  14  29
ATOM     29  O   UNL     1     -40.855  26.720   3.218  0.00  0.00    -0.353 OA
ATOM     30  C   UNL     1     -42.130  27.007   3.787  0.00  0.00    +0.174 C 
ENDBRANCH  14  29
BRANCH  18  31
ATOM     31  O   UNL     1     -40.762  27.296   0.181  0.00  0.00    -0.353 OA
ATOM     32  C   UNL     1     -42.071  26.978  -0.254  0.00  0.00    +0.174 C 
ENDBRANCH  18  31
BRANCH   1  33
ATOM     33  C   UNL     1     -35.429  23.776  -0.666  0.00  0.00    -0.077 C 
ATOM     34  C   UNL     1     -36.409  24.411  -1.637  0.00  0.00    -0.025 C 
ENDBRANCH   1  33
BRANCH  10  35
ATOM     35  C   UNL     1     -34.880  21.351   3.607  0.00  0.00    +0.140 C 
BRANCH  35  36
ATOM     36  O   UNL     1     -35.600  20.943   4.748  0.00  0.00    -0.351 OA
ATOM     37  C   UNL     1     -35.050  21.484   5.946  0.00  0.00    +0.174 C 
ENDBRANCH  35  36
ENDBRANCH  10  35
TORSDOF 9
ENDMDL
MODEL 5
REMARK VINA RESULT:      -5.4      2.343      4.186
REMARK  Name = 60207520
REMARK  9 active torsions:
REMARK  status: ('A' for Active; 'I' for Inactive)
REMARK    1  A    between atoms: N_1  and  C_33
REMARK    2  A    between atoms: C_6  and  O_21
REMARK    3  A    between atoms: C_8  and  O_23
REMARK    4  A    between atoms: C_9  and  O_25
REMARK    5  A    between atoms: C_10  and  C_35
REMARK    6  A    between atoms: C_11  and  O_27
REMARK    7  A    between atoms: C_14  and  O_29
REMARK    8  A    between atoms: C_18  and  O_31
REMARK    9  A    between atoms: C_35  and  O_36
REMARK                            x       y       z     vdW  Elec       q    Type
REMARK                         _______ _______ _______ _____ _____    ______ ____
ROOT
ATOM      1  N   UNL     1     -36.002  27.137   0.113  0.00  0.00    +0.390 N 
ATOM      2  C   UNL     1     -34.463  25.649   1.344  0.00  0.00    +0.013 C 
ATOM      3  C   UNL     1     -34.037  26.943   2.144  0.00  0.00    +0.030 C 
ATOM      4  C   UNL     1     -35.945  26.035   1.099  0.00  0.00    -0.026 C 
ATOM      5  C   UNL     1     -34.398  24.333   2.223  0.00  0.00    +0.005 C 
ATOM      6  C   UNL     1     -36.378  26.346   2.578  0.00  0.00    +0.119 C 
ATOM      7  C   UNL     1     -35.188  24.313   3.546  0.00  0.00    +0.054 C 
ATOM      8  C   UNL     1     -36.546  25.036   3.414  0.00  0.00    +0.115 C 
ATOM      9  C   UNL     1     -35.226  27.248   3.101  0.00  0.00    +0.140 C 
ATOM     10  C   UNL     1     -33.909  28.139   1.143  0.00  0.00    +0.011 C 
ATOM     11  C   UNL     1     -33.562  25.413   0.077  0.00  0.00    +0.109 C 
ATOM     12  C   UNL     1     -34.871  23.028   1.523  0.00  0.00    +0.005 C 
ATOM     13  C   UNL     1     -35.847  22.338   2.487  0.00  0.00    +0.055 C 
ATOM     14  C   UNL     1     -35.341  22.817   3.837  0.00  0.00    +0.120 C 
ATOM     15  C   UNL     1     -37.696  24.119   2.910  0.00  0.00    +0.059 C 
ATOM     16  C   UNL     1     -35.301  28.379   0.473  0.00  0.00    -0.075 C 
ATOM     17  C   UNL     1     -32.826  27.817   0.095  0.00  0.00    +0.003 C 
ATOM     18  C   UNL     1     -37.288  22.809   2.217  0.00  0.00    +0.120 C 
ATOM     19  C   UNL     1     -33.175  26.625  -0.760  0.00  0.00    +0.029 C 
ATOM     20  H   UNL     1     -35.446  26.753  -0.651  0.00  0.00    -0.080 HD
ENDROOT
BRANCH   6  21
ATOM     21  O   UNL     1     -37.609  27.059   2.602  0.00  0.00    -0.384 OA
ATOM     22  H   UNL     1     -38.053  26.964   1.745  0.00  0.00    +0.210 HD
ENDBRANCH   6  21
BRANCH   8  23
ATOM     23  O   UNL     1     -36.926  25.415   4.755  0.00  0.00    -0.384 OA
ATOM     24  H   UNL     1     -36.828  24.653   5.347  0.00  0.00    +0.210 HD
ENDBRANCH   8  23
BRANCH   9  25
ATOM     25  O   UNL     1     -34.833  27.049   4.448  0.00  0.00    -0.351 OA
ATOM     26  C   UNL     1     -33.420  27.120   4.600  0.00  0.00    +0.174 C 
ENDBRANCH   9  25
BRANCH  11  27
ATOM     27  O   UNL     1     -34.132  24.476  -0.834  0.00  0.00    -0.385 OA
ATOM     28  H   UNL     1     -33.523  24.334  -1.576  0.00  0.00    +0.210 HD
ENDBRANCH  11  27
BRANCH  14  29
ATOM     29  O   UNL     1     -36.223  22.522   4.898  0.00  0.00    -0.353 OA
ATOM     30  C   UNL     1     -35.523  22.243   6.108  0.00  0.00    +0.174 C 
ENDBRANCH  14  29
BRANCH  18  31
ATOM     31  O   UNL     1     -38.194  21.779   2.634  0.00  0.00    -0.353 OA
ATOM     32  C   UNL     1     -39.291  21.676   1.745  0.00  0.00    +0.174 C 
ENDBRANCH  18  31
BRANCH   1  33
ATOM     33  C   UNL     1     -37.336  27.394  -0.414  0.00  0.00    -0.077 C 
ATOM     34  C   UNL     1     -38.030  26.102  -0.805  0.00  0.00    -0.025 C 
ENDBRANCH   1  33
BRANCH  10  35
ATOM     35  C   UNL     1     -33.445  29.428   1.857  0.00  0.00    +0.140 C 
BRANCH  35  36
ATOM     36  O   UNL     1     -34.485  30.374   1.757  0.00  0.00    -0.351 OA
ATOM     37  C   UNL     1     -34.713  31.048   2.992  0.00  0.00    +0.174 C 
ENDBRANCH  35  36
ENDBRANCH  10  35
TORSDOF 9
ENDMDL
MODEL 6
REMARK VINA RESULT:      -5.4      1.831      6.497
REMARK  Name = 60207520
REMARK  9 active torsions:
REMARK  status: ('A' for Active; 'I' for Inactive)
REMARK    1  A    between atoms: N_1  and  C_33
REMARK    2  A    between atoms: C_6  and  O_21
REMARK    3  A    between atoms: C_8  and  O_23
REMARK    4  A    between atoms: C_9  and  O_25
REMARK    5  A    between atoms: C_10  and  C_35
REMARK    6  A    between atoms: C_11  and  O_27
REMARK    7  A    between atoms: C_14  and  O_29
REMARK    8  A    between atoms: C_18  and  O_31
REMARK    9  A    between atoms: C_35  and  O_36
REMARK                            x       y       z     vdW  Elec       q    Type
REMARK                         _______ _______ _______ _____ _____    ______ ____
ROOT
ATOM      1  N   UNL     1     -34.209  20.033   0.749  0.00  0.00    +0.390 N 
ATOM      2  C   UNL     1     -35.124  22.250   0.159  0.00  0.00    +0.013 C 
ATOM      3  C   UNL     1     -36.238  21.451  -0.627  0.00  0.00    +0.030 C 
ATOM      4  C   UNL     1     -34.898  21.221   1.299  0.00  0.00    -0.026 C 
ATOM      5  C   UNL     1     -35.657  23.609   0.772  0.00  0.00    +0.005 C 
ATOM      6  C   UNL     1     -36.382  21.052   1.790  0.00  0.00    +0.119 C 
ATOM      7  C   UNL     1     -36.890  23.546   1.696  0.00  0.00    +0.054 C 
ATOM      8  C   UNL     1     -36.863  22.297   2.603  0.00  0.00    +0.115 C 
ATOM      9  C   UNL     1     -37.172  20.858   0.466  0.00  0.00    +0.140 C 
ATOM     10  C   UNL     1     -35.567  20.257  -1.384  0.00  0.00    +0.011 C 
ATOM     11  C   UNL     1     -33.890  22.597  -0.752  0.00  0.00    +0.109 C 
ATOM     12  C   UNL     1     -34.636  24.415   1.621  0.00  0.00    +0.005 C 
ATOM     13  C   UNL     1     -35.346  24.791   2.929  0.00  0.00    +0.055 C 
ATOM     14  C   UNL     1     -36.798  24.854   2.487  0.00  0.00    +0.120 C 
ATOM     15  C   UNL     1     -36.087  22.508   3.934  0.00  0.00    +0.059 C 
ATOM     16  C   UNL     1     -34.900  19.313  -0.332  0.00  0.00    -0.075 C 
ATOM     17  C   UNL     1     -34.534  20.802  -2.390  0.00  0.00    +0.003 C 
ATOM     18  C   UNL     1     -35.119  23.702   3.993  0.00  0.00    +0.120 C 
ATOM     19  C   UNL     1     -33.397  21.532  -1.722  0.00  0.00    +0.029 C 
ATOM     20  H   UNL     1     -33.407  20.460   0.287  0.00  0.00    -0.080 HD
ENDROOT
BRANCH   6  21
ATOM     21  O   UNL     1     -36.510  19.898   2.612  0.00  0.00    -0.384 OA
ATOM     22  H   UNL     1     -37.313  19.973   3.151  0.00  0.00    +0.210 HD
ENDBRANCH   6  21
BRANCH   8  23
ATOM     23  O   UNL     1     -38.232  22.063   2.998  0.00  0.00    -0.384 OA
ATOM     24  H   UNL     1     -38.482  21.154   2.775  0.00  0.00    +0.210 HD
ENDBRANCH   8  23
BRANCH   9  25
ATOM     25  O   UNL     1     -38.450  21.468   0.402  0.00  0.00    -0.351 OA
ATOM     26  C   UNL     1     -39.417  20.603  -0.184  0.00  0.00    +0.174 C 
ENDBRANCH   9  25
BRANCH  11  27
ATOM     27  O   UNL     1     -32.747  22.996   0.003  0.00  0.00    -0.385 OA
ATOM     28  H   UNL     1     -32.099  23.413  -0.587  0.00  0.00    +0.210 HD
ENDBRANCH  11  27
BRANCH  14  29
ATOM     29  O   UNL     1     -37.705  24.942   3.565  0.00  0.00    -0.353 OA
ATOM     30  C   UNL     1     -38.961  25.478   3.160  0.00  0.00    +0.174 C 
ENDBRANCH  14  29
BRANCH  18  31
ATOM     31  O   UNL     1     -35.222  24.299   5.292  0.00  0.00    -0.353 OA
ATOM     32  C   UNL     1     -34.343  25.402   5.417  0.00  0.00    +0.174 C 
ENDBRANCH  18  31
BRANCH   1  33
ATOM     33  C   UNL     1     -33.687  19.127   1.764  0.00  0.00    -0.077 C 
ATOM     34  C   UNL     1     -32.634  18.199   1.182  0.00  0.00    -0.025 C 
ENDBRANCH   1  33
BRANCH  10  35
ATOM     35  C   UNL     1     -36.599  19.463  -2.217  0.00  0.00    +0.140 C 
BRANCH  35  36
ATOM     36  O   UNL     1     -36.658  18.155  -1.695  0.00  0.00    -0.351 OA
ATOM     37  C   UNL     1     -37.940  17.562  -1.887  0.00  0.00    +0.174 C 
ENDBRANCH  35  36
ENDBRANCH  10  35
TORSDOF 9
ENDMDL
MODEL 7
REMARK VINA RESULT:      -5.4      2.099      5.755
REMARK  Name = 60207520
REMARK  9 active torsions:
REMARK  status: ('A' for Active; 'I' for Inactive)
REMARK    1  A    between atoms: N_1  and  C_33
REMARK    2  A    between atoms: C_6  and  O_21
REMARK    3  A    between atoms: C_8  and  O_23
REMARK    4  A    between atoms: C_9  and  O_25
REMARK    5  A    between atoms: C_10  and  C_35
REMARK    6  A    between atoms: C_11  and  O_27
REMARK    7  A    between atoms: C_14  and  O_29
REMARK    8  A    between atoms: C_18  and  O_31
REMARK    9  A    between atoms: C_35  and  O_36
REMARK                            x       y       z     vdW  Elec       q    Type
REMARK                         _______ _______ _______ _____ _____    ______ ____
ROOT
ATOM      1  N   UNL     1     -37.744  25.277  -0.071  0.00  0.00    +0.390 N 
ATOM      2  C   UNL     1     -38.321  24.426   2.174  0.00  0.00    +0.013 C 
ATOM      3  C   UNL     1     -38.786  23.113   1.429  0.00  0.00    +0.030 C 
ATOM      4  C   UNL     1     -37.168  24.814   1.210  0.00  0.00    -0.026 C 
ATOM      5  C   UNL     1     -37.730  24.141   3.615  0.00  0.00    +0.005 C 
ATOM      6  C   UNL     1     -36.366  23.462   1.212  0.00  0.00    +0.119 C 
ATOM      7  C   UNL     1     -36.568  23.135   3.729  0.00  0.00    +0.054 C 
ATOM      8  C   UNL     1     -35.582  23.262   2.549  0.00  0.00    +0.115 C 
ATOM      9  C   UNL     1     -37.474  22.393   1.001  0.00  0.00    +0.140 C 
ATOM     10  C   UNL     1     -39.559  23.513   0.129  0.00  0.00    +0.011 C 
ATOM     11  C   UNL     1     -39.495  25.458   2.343  0.00  0.00    +0.109 C 
ATOM     12  C   UNL     1     -37.187  25.379   4.381  0.00  0.00    +0.005 C 
ATOM     13  C   UNL     1     -35.796  24.997   4.910  0.00  0.00    +0.055 C 
ATOM     14  C   UNL     1     -35.930  23.493   5.075  0.00  0.00    +0.120 C 
ATOM     15  C   UNL     1     -34.465  24.319   2.779  0.00  0.00    +0.059 C 
ATOM     16  C   UNL     1     -38.591  24.319  -0.798  0.00  0.00    -0.075 C 
ATOM     17  C   UNL     1     -40.801  24.344   0.506  0.00  0.00    +0.003 C 
ATOM     18  C   UNL     1     -34.713  25.365   3.880  0.00  0.00    +0.120 C 
ATOM     19  C   UNL     1     -40.451  25.650   1.173  0.00  0.00    +0.029 C 
ATOM     20  H   UNL     1     -38.399  25.992   0.248  0.00  0.00    -0.080 HD
ENDROOT
BRANCH   6  21
ATOM     21  O   UNL     1     -35.438  23.427   0.134  0.00  0.00    -0.384 OA
ATOM     22  H   UNL     1     -34.587  23.088   0.451  0.00  0.00    +0.210 HD
ENDBRANCH   6  21
BRANCH   8  23
ATOM     23  O   UNL     1     -34.891  21.996   2.470  0.00  0.00    -0.384 OA
ATOM     24  H   UNL     1     -34.344  21.876   3.261  0.00  0.00    +0.210 HD
ENDBRANCH   8  23
BRANCH   9  25
ATOM     25  O   UNL     1     -37.324  21.181   1.720  0.00  0.00    -0.351 OA
ATOM     26  C   UNL     1     -37.161  20.069   0.847  0.00  0.00    +0.174 C 
ENDBRANCH   9  25
BRANCH  11  27
ATOM     27  O   UNL     1     -39.033  26.763   2.686  0.00  0.00    -0.385 OA
ATOM     28  H   UNL     1     -38.529  27.133   1.945  0.00  0.00    +0.210 HD
ENDBRANCH  11  27
BRANCH  14  29
ATOM     29  O   UNL     1     -34.698  22.848   5.320  0.00  0.00    -0.353 OA
ATOM     30  C   UNL     1     -34.876  21.593   5.971  0.00  0.00    +0.174 C 
ENDBRANCH  14  29
BRANCH  18  31
ATOM     31  O   UNL     1     -33.477  25.589   4.572  0.00  0.00    -0.353 OA
ATOM     32  C   UNL     1     -33.680  26.369   5.736  0.00  0.00    +0.174 C 
ENDBRANCH  18  31
BRANCH   1  33
ATOM     33  C   UNL     1     -36.786  25.936  -0.950  0.00  0.00    -0.077 C 
ATOM     34  C   UNL     1     -35.944  26.943  -0.187  0.00  0.00    -0.025 C 
ENDBRANCH   1  33
BRANCH  10  35
ATOM     35  C   UNL     1     -40.086  22.270  -0.622  0.00  0.00    +0.140 C 
BRANCH  35  36
ATOM     36  O   UNL     1     -41.305  21.890  -0.025  0.00  0.00    -0.351 OA
ATOM     37  C   UNL     1     -42.078  21.050  -0.879  0.00  0.00    +0.174 C 
ENDBRANCH  35  36
ENDBRANCH  10  35
TORSDOF 9
ENDMDL
MODEL 8
REMARK VINA RESULT:      -5.4      1.709      2.271
REMARK  Name = 60207520
REMARK  9 active torsions:
REMARK  status: ('A' for Active; 'I' for Inactive)
REMARK    1  A    between atoms: N_1  and  C_33
REMARK    2  A    between atoms: C_6  and  O_21
REMARK    3  A    between atoms: C_8  and  O_23
REMARK    4  A    between atoms: C_9  and  O_25
REMARK    5  A    between atoms: C_10  and  C_35
REMARK    6  A    between atoms: C_11  and  O_27
REMARK    7  A    between atoms: C_14  and  O_29
REMARK    8  A    between atoms: C_18  and  O_31
REMARK    9  A    between atoms: C_35  and  O_36
REMARK                            x       y       z     vdW  Elec       q    Type
REMARK                         _______ _______ _______ _____ _____    ______ ____
ROOT
ATOM      1  N   UNL     1     -35.893  26.530   1.936  0.00  0.00    +0.390 N 
ATOM      2  C   UNL     1     -34.664  24.389   1.902  0.00  0.00    +0.013 C 
ATOM      3  C   UNL     1     -34.650  24.505   3.477  0.00  0.00    +0.030 C 
ATOM      4  C   UNL     1     -36.028  25.085   1.655  0.00  0.00    -0.026 C 
ATOM      5  C   UNL     1     -34.735  22.890   1.395  0.00  0.00    +0.005 C 
ATOM      6  C   UNL     1     -36.931  24.227   2.615  0.00  0.00    +0.119 C 
ATOM      7  C   UNL     1     -35.891  22.012   1.912  0.00  0.00    +0.054 C 
ATOM      8  C   UNL     1     -37.209  22.807   2.025  0.00  0.00    +0.115 C 
ATOM      9  C   UNL     1     -36.103  24.180   3.929  0.00  0.00    +0.140 C 
ATOM     10  C   UNL     1     -34.345  25.987   3.874  0.00  0.00    +0.011 C 
ATOM     11  C   UNL     1     -33.393  25.046   1.248  0.00  0.00    +0.109 C 
ATOM     12  C   UNL     1     -34.823  22.700  -0.145  0.00  0.00    +0.005 C 
ATOM     13  C   UNL     1     -35.972  21.713  -0.404  0.00  0.00    +0.055 C 
ATOM     14  C   UNL     1     -35.966  20.889   0.872  0.00  0.00    +0.120 C 
ATOM     15  C   UNL     1     -38.040  22.831   0.711  0.00  0.00    +0.059 C 
ATOM     16  C   UNL     1     -35.477  26.900   3.298  0.00  0.00    -0.075 C 
ATOM     17  C   UNL     1     -32.961  26.391   3.328  0.00  0.00    +0.003 C 
ATOM     18  C   UNL     1     -37.298  22.473  -0.588  0.00  0.00    +0.120 C 
ATOM     19  C   UNL     1     -32.897  26.366   1.822  0.00  0.00    +0.029 C 
ATOM     20  H   UNL     1     -35.089  26.775   1.358  0.00  0.00    -0.080 HD
ENDROOT
BRANCH   6  21
ATOM     21  O   UNL     1     -38.177  24.875   2.844  0.00  0.00    -0.384 OA
ATOM     22  H   UNL     1     -38.197  25.225   3.747  0.00  0.00    +0.210 HD
ENDBRANCH   6  21
BRANCH   8  23
ATOM     23  O   UNL     1     -38.027  22.088   2.974  0.00  0.00    -0.384 OA
ATOM     24  H   UNL     1     -37.502  21.883   3.763  0.00  0.00    +0.210 HD
ENDBRANCH   8  23
BRANCH   9  25
ATOM     25  O   UNL     1     -36.130  22.957   4.645  0.00  0.00    -0.351 OA
ATOM     26  C   UNL     1     -34.983  22.807   5.474  0.00  0.00    +0.174 C 
ENDBRANCH   9  25
BRANCH  11  27
ATOM     27  O   UNL     1     -33.547  25.263  -0.153  0.00  0.00    -0.385 OA
ATOM     28  H   UNL     1     -33.451  24.420  -0.624  0.00  0.00    +0.210 HD
ENDBRANCH  11  27
BRANCH  14  29
ATOM     29  O   UNL     1     -37.098  20.056   1.002  0.00  0.00    -0.353 OA
ATOM     30  C   UNL     1     -36.965  18.857   0.242  0.00  0.00    +0.174 C 
ENDBRANCH  14  29
BRANCH  18  31
ATOM     31  O   UNL     1     -38.174  21.680  -1.400  0.00  0.00    -0.353 OA
ATOM     32  C   UNL     1     -39.528  22.034  -1.186  0.00  0.00    +0.174 C 
ENDBRANCH  18  31
BRANCH   1  33
ATOM     33  C   UNL     1     -37.015  27.334   1.470  0.00  0.00    -0.077 C 
ATOM     34  C   UNL     1     -37.410  26.957   0.054  0.00  0.00    -0.025 C 
ENDBRANCH   1  33
BRANCH  10  35
ATOM     35  C   UNL     1     -34.268  26.159   5.408  0.00  0.00    +0.140 C 
BRANCH  35  36
ATOM     36  O   UNL     1     -33.355  27.198   5.680  0.00  0.00    -0.351 OA
ATOM     37  C   UNL     1     -32.779  27.076   6.978  0.00  0.00    +0.174 C 
ENDBRANCH  35  36
ENDBRANCH  10  35
TORSDOF 9
ENDMDL
MODEL 9
REMARK VINA RESULT:      -5.4      1.866      2.626
REMARK  Name = 60207520
REMARK  9 active torsions:
REMARK  status: ('A' for Active; 'I' for Inactive)
REMARK    1  A    between atoms: N_1  and  C_33
REMARK    2  A    between atoms: C_6  and  O_21
REMARK    3  A    between atoms: C_8  and  O_23
REMARK    4  A    between atoms: C_9  and  O_25
REMARK    5  A    between atoms: C_10  and  C_35
REMARK    6  A    between atoms: C_11  and  O_27
REMARK    7  A    between atoms: C_14  and  O_29
REMARK    8  A    between atoms: C_18  and  O_31
REMARK    9  A    between atoms: C_35  and  O_36
REMARK                            x       y       z     vdW  Elec       q    Type
REMARK                         _______ _______ _______ _____ _____    ______ ____
ROOT
ATOM      1  N   UNL     1     -38.956  23.263  -0.091  0.00  0.00    +0.390 N 
ATOM      2  C   UNL     1     -36.563  23.379   0.509  0.00  0.00    +0.013 C 
ATOM      3  C   UNL     1     -37.059  23.941   1.900  0.00  0.00    +0.030 C 
ATOM      4  C   UNL     1     -37.766  22.442   0.224  0.00  0.00    -0.026 C 
ATOM      5  C   UNL     1     -35.239  22.519   0.630  0.00  0.00    +0.005 C 
ATOM      6  C   UNL     1     -37.772  21.617   1.562  0.00  0.00    +0.119 C 
ATOM      7  C   UNL     1     -35.243  21.329   1.610  0.00  0.00    +0.054 C 
ATOM      8  C   UNL     1     -36.597  20.588   1.608  0.00  0.00    +0.115 C 
ATOM      9  C   UNL     1     -37.651  22.716   2.654  0.00  0.00    +0.140 C 
ATOM     10  C   UNL     1     -38.222  24.958   1.651  0.00  0.00    +0.011 C 
ATOM     11  C   UNL     1     -36.284  24.528  -0.528  0.00  0.00    +0.109 C 
ATOM     12  C   UNL     1     -34.730  21.874  -0.689  0.00  0.00    +0.005 C 
ATOM     13  C   UNL     1     -34.439  20.398  -0.376  0.00  0.00    +0.055 C 
ATOM     14  C   UNL     1     -34.091  20.457   1.101  0.00  0.00    +0.120 C 
ATOM     15  C   UNL     1     -36.700  19.478   0.525  0.00  0.00    +0.059 C 
ATOM     16  C   UNL     1     -39.399  24.206   0.947  0.00  0.00    -0.075 C 
ATOM     17  C   UNL     1     -37.706  26.128   0.791  0.00  0.00    +0.003 C 
ATOM     18  C   UNL     1     -35.691  19.540  -0.635  0.00  0.00    +0.120 C 
ATOM     19  C   UNL     1     -37.262  25.694  -0.583  0.00  0.00    +0.029 C 
ATOM     20  H   UNL     1     -38.596  23.865  -0.832  0.00  0.00    -0.080 HD
ENDROOT
BRANCH   6  21
ATOM     21  O   UNL     1     -38.999  20.911   1.711  0.00  0.00    -0.384 OA
ATOM     22  H   UNL     1     -39.351  21.061   2.601  0.00  0.00    +0.210 HD
ENDBRANCH   6  21
BRANCH   8  23
ATOM     23  O   UNL     1     -36.671  19.891   2.871  0.00  0.00    -0.384 OA
ATOM     24  H   UNL     1     -35.909  20.134   3.419  0.00  0.00    +0.210 HD
ENDBRANCH   8  23
BRANCH   9  25
ATOM     25  O   UNL     1     -36.848  22.399   3.778  0.00  0.00    -0.351 OA
ATOM     26  C   UNL     1     -36.126  23.533   4.246  0.00  0.00    +0.174 C 
ENDBRANCH   9  25
BRANCH  11  27
ATOM     27  O   UNL     1     -36.178  24.045  -1.866  0.00  0.00    -0.385 OA
ATOM     28  H   UNL     1     -35.812  24.741  -2.433  0.00  0.00    +0.210 HD
ENDBRANCH  11  27
BRANCH  14  29
ATOM     29  O   UNL     1     -34.019  19.184   1.707  0.00  0.00    -0.353 OA
ATOM     30  C   UNL     1     -32.785  18.530   1.424  0.00  0.00    +0.174 C 
ENDBRANCH  14  29
BRANCH  18  31
ATOM     31  O   UNL     1     -35.277  18.203  -0.941  0.00  0.00    -0.353 OA
ATOM     32  C   UNL     1     -34.324  18.192  -1.988  0.00  0.00    +0.174 C 
ENDBRANCH  18  31
BRANCH   1  33
ATOM     33  C   UNL     1     -40.067  22.508  -0.655  0.00  0.00    -0.077 C 
ATOM     34  C   UNL     1     -41.387  23.224  -0.432  0.00  0.00    -0.025 C 
ENDBRANCH   1  33
BRANCH  10  35
ATOM     35  C   UNL     1     -38.721  25.584   2.973  0.00  0.00    +0.140 C 
BRANCH  35  36
ATOM     36  O   UNL     1     -39.725  26.520   2.654  0.00  0.00    -0.351 OA
ATOM     37  C   UNL     1     -40.948  26.242   3.332  0.00  0.00    +0.174 C 
ENDBRANCH  35  36
ENDBRANCH  10  35
TORSDOF 9
ENDMDL
