MODEL 1
REMARK VINA RESULT:      -5.6      0.000      0.000
REMARK  Name = 198325
REMARK  6 active torsions:
REMARK  status: ('A' for Active; 'I' for Inactive)
REMARK    1  A    between atoms: C_1  and  N_13
REMARK    2  A    between atoms: C_2  and  C_9
REMARK    3  A    between atoms: C_3  and  O_21
REMARK    4  A    between atoms: C_14  and  C_17
REMARK    5  A    between atoms: C_17  and  O_18
REMARK    6  A    between atoms: O_18  and  C_19
REMARK                            x       y       z     vdW  Elec       q    Type
REMARK                         _______ _______ _______ _____ _____    ______ ____
ROOT
ATOM      1  C   UNL     1     -39.474  24.739   3.013  0.00  0.00    +0.058 C 
ATOM      2  C   UNL     1     -39.710  23.693   2.121  0.00  0.00    +0.100 C 
ATOM      3  C   UNL     1     -40.771  23.771   1.219  0.00  0.00    +0.144 C 
ATOM      4  C   UNL     1     -40.299  25.863   3.004  0.00  0.00    +0.015 C 
ATOM      5  C   UNL     1     -41.597  24.895   1.210  0.00  0.00    +0.037 C 
ATOM      6  C   UNL     1     -41.360  25.941   2.101  0.00  0.00    +0.004 C 
ENDROOT
BRANCH   2   9
ATOM      7  O   UNL     1     -37.623  22.609   1.990  0.00  0.00    -0.270 OA
ATOM      8  N   UNL     1     -39.463  21.275   2.292  0.00  0.00    -0.325 N 
ATOM      9  C   UNL     1     -38.853  22.511   2.122  0.00  0.00    +0.247 C 
ATOM     10  H   UNL     1     -38.921  20.454   2.299  0.00  0.00    +0.145 HD
ATOM     11  H   UNL     1     -40.440  21.221   2.408  0.00  0.00    +0.145 HD
ENDBRANCH   2   9
BRANCH   1  13
ATOM     12  O   UNL     1     -36.818  26.223   3.087  0.00  0.00    -0.263 OA
ATOM     13  N   UNL     1     -38.417  24.684   3.926  0.00  0.00    -0.275 N 
ATOM     14  C   UNL     1     -37.224  25.393   3.883  0.00  0.00    +0.326 C 
ATOM     15  H   UNL     1     -38.531  24.070   4.688  0.00  0.00    +0.155 HD
BRANCH  14  17
ATOM     16  O   UNL     1     -35.696  25.942   5.609  0.00  0.00    -0.240 OA
ATOM     17  C   UNL     1     -36.326  25.073   5.039  0.00  0.00    +0.396 C 
BRANCH  17  18
ATOM     18  O   UNL     1     -36.358  23.744   5.249  0.00  0.00    -0.442 OA
BRANCH  18  19
ATOM     19  C   UNL     1     -35.081  23.097   5.237  0.00  0.00    +0.209 C 
ATOM     20  C   UNL     1     -35.085  21.981   6.259  0.00  0.00    +0.051 C 
ENDBRANCH  18  19
ENDBRANCH  17  18
ENDBRANCH  14  17
ENDBRANCH   1  13
BRANCH   3  21
ATOM     21  O   UNL     1     -41.020  22.762   0.337  0.00  0.00    -0.471 OA
ATOM     22  C   UNL     1     -41.866  23.063  -0.771  0.00  0.00    +0.252 C 
ENDBRANCH   3  21
TORSDOF 6
ENDMDL
MODEL 2
REMARK VINA RESULT:      -5.3      4.635      6.550
REMARK  Name = 198325
REMARK  6 active torsions:
REMARK  status: ('A' for Active; 'I' for Inactive)
REMARK    1  A    between atoms: C_1  and  N_13
REMARK    2  A    between atoms: C_2  and  C_9
REMARK    3  A    between atoms: C_3  and  O_21
REMARK    4  A    between atoms: C_14  and  C_17
REMARK    5  A    between atoms: C_17  and  O_18
REMARK    6  A    between atoms: O_18  and  C_19
REMARK                            x       y       z     vdW  Elec       q    Type
REMARK                         _______ _______ _______ _____ _____    ______ ____
ROOT
ATOM      1  C   UNL     1     -34.672  25.380   3.008  0.00  0.00    +0.058 C 
ATOM      2  C   UNL     1     -35.207  24.975   4.231  0.00  0.00    +0.100 C 
ATOM      3  C   UNL     1     -35.597  23.649   4.419  0.00  0.00    +0.144 C 
ATOM      4  C   UNL     1     -34.525  24.458   1.972  0.00  0.00    +0.015 C 
ATOM      5  C   UNL     1     -35.450  22.727   3.382  0.00  0.00    +0.037 C 
ATOM      6  C   UNL     1     -34.914  23.131   2.160  0.00  0.00    +0.004 C 
ENDROOT
BRANCH   2   9
ATOM      7  O   UNL     1     -34.397  26.286   6.013  0.00  0.00    -0.270 OA
ATOM      8  N   UNL     1     -36.637  26.444   5.549  0.00  0.00    -0.325 N 
ATOM      9  C   UNL     1     -35.366  25.932   5.323  0.00  0.00    +0.247 C 
ATOM     10  H   UNL     1     -36.786  27.091   6.275  0.00  0.00    +0.145 HD
ATOM     11  H   UNL     1     -37.390  26.160   4.981  0.00  0.00    +0.145 HD
ENDBRANCH   2   9
BRANCH   1  13
ATOM     12  O   UNL     1     -31.954  26.720   3.292  0.00  0.00    -0.263 OA
ATOM     13  N   UNL     1     -34.275  26.703   2.797  0.00  0.00    -0.275 N 
ATOM     14  C   UNL     1     -33.005  27.242   2.959  0.00  0.00    +0.326 C 
ATOM     15  H   UNL     1     -34.977  27.326   2.499  0.00  0.00    +0.155 HD
BRANCH  14  17
ATOM     16  O   UNL     1     -32.412  29.113   1.632  0.00  0.00    -0.240 OA
ATOM     17  C   UNL     1     -32.959  28.704   2.637  0.00  0.00    +0.396 C 
BRANCH  17  18
ATOM     18  O   UNL     1     -33.571  29.379   3.628  0.00  0.00    -0.442 OA
BRANCH  18  19
ATOM     19  C   UNL     1     -33.853  30.753   3.341  0.00  0.00    +0.209 C 
ATOM     20  C   UNL     1     -35.325  30.897   3.021  0.00  0.00    +0.051 C 
ENDBRANCH  18  19
ENDBRANCH  17  18
ENDBRANCH  14  17
ENDBRANCH   1  13
BRANCH   3  21
ATOM     21  O   UNL     1     -36.121  23.231   5.605  0.00  0.00    -0.471 OA
ATOM     22  C   UNL     1     -35.415  22.206   6.300  0.00  0.00    +0.252 C 
ENDBRANCH   3  21
TORSDOF 6
ENDMDL
MODEL 3
REMARK VINA RESULT:      -5.3      4.626      6.518
REMARK  Name = 198325
REMARK  6 active torsions:
REMARK  status: ('A' for Active; 'I' for Inactive)
REMARK    1  A    between atoms: C_1  and  N_13
REMARK    2  A    between atoms: C_2  and  C_9
REMARK    3  A    between atoms: C_3  and  O_21
REMARK    4  A    between atoms: C_14  and  C_17
REMARK    5  A    between atoms: C_17  and  O_18
REMARK    6  A    between atoms: O_18  and  C_19
REMARK                            x       y       z     vdW  Elec       q    Type
REMARK                         _______ _______ _______ _____ _____    ______ ____
ROOT
ATOM      1  C   UNL     1     -34.477  25.592   3.066  0.00  0.00    +0.058 C 
ATOM      2  C   UNL     1     -35.099  25.109   4.217  0.00  0.00    +0.100 C 
ATOM      3  C   UNL     1     -35.538  23.786   4.271  0.00  0.00    +0.144 C 
ATOM      4  C   UNL     1     -34.292  24.752   1.968  0.00  0.00    +0.015 C 
ATOM      5  C   UNL     1     -35.353  22.946   3.173  0.00  0.00    +0.037 C 
ATOM      6  C   UNL     1     -34.730  23.429   2.022  0.00  0.00    +0.004 C 
ENDROOT
BRANCH   2   9
ATOM      7  O   UNL     1     -34.349  26.314   6.097  0.00  0.00    -0.270 OA
ATOM      8  N   UNL     1     -36.588  26.433   5.620  0.00  0.00    -0.325 N 
ATOM      9  C   UNL     1     -35.299  25.980   5.372  0.00  0.00    +0.247 C 
ATOM     10  H   UNL     1     -36.765  27.022   6.389  0.00  0.00    +0.145 HD
ATOM     11  H   UNL     1     -37.326  26.166   5.024  0.00  0.00    +0.145 HD
ENDBRANCH   2   9
BRANCH   1  13
ATOM     12  O   UNL     1     -31.707  26.791   3.458  0.00  0.00    -0.263 OA
ATOM     13  N   UNL     1     -34.030  26.914   2.988  0.00  0.00    -0.275 N 
ATOM     14  C   UNL     1     -32.739  27.384   3.192  0.00  0.00    +0.326 C 
ATOM     15  H   UNL     1     -34.709  27.591   2.764  0.00  0.00    +0.155 HD
BRANCH  14  17
ATOM     16  O   UNL     1     -32.152  29.360   2.023  0.00  0.00    -0.240 OA
ATOM     17  C   UNL     1     -32.638  28.870   3.023  0.00  0.00    +0.396 C 
BRANCH  17  18
ATOM     18  O   UNL     1     -33.129  29.460   4.129  0.00  0.00    -0.442 OA
BRANCH  18  19
ATOM     19  C   UNL     1     -32.210  30.313   4.819  0.00  0.00    +0.209 C 
ATOM     20  C   UNL     1     -31.797  29.647   6.113  0.00  0.00    +0.051 C 
ENDBRANCH  18  19
ENDBRANCH  17  18
ENDBRANCH  14  17
ENDBRANCH   1  13
BRANCH   3  21
ATOM     21  O   UNL     1     -36.148  23.292   5.385  0.00  0.00    -0.471 OA
ATOM     22  C   UNL     1     -35.424  22.326   6.145  0.00  0.00    +0.252 C 
ENDBRANCH   3  21
TORSDOF 6
ENDMDL
MODEL 4
REMARK VINA RESULT:      -5.3      3.489      6.357
REMARK  Name = 198325
REMARK  6 active torsions:
REMARK  status: ('A' for Active; 'I' for Inactive)
REMARK    1  A    between atoms: C_1  and  N_13
REMARK    2  A    between atoms: C_2  and  C_9
REMARK    3  A    between atoms: C_3  and  O_21
REMARK    4  A    between atoms: C_14  and  C_17
REMARK    5  A    between atoms: C_17  and  O_18
REMARK    6  A    between atoms: O_18  and  C_19
REMARK                            x       y       z     vdW  Elec       q    Type
REMARK                         _______ _______ _______ _____ _____    ______ ____
ROOT
ATOM      1  C   UNL     1     -35.716  21.548   3.861  0.00  0.00    +0.058 C 
ATOM      2  C   UNL     1     -36.333  22.798   3.804  0.00  0.00    +0.100 C 
ATOM      3  C   UNL     1     -36.216  23.684   4.875  0.00  0.00    +0.144 C 
ATOM      4  C   UNL     1     -34.981  21.184   4.989  0.00  0.00    +0.015 C 
ATOM      5  C   UNL     1     -35.481  23.319   6.003  0.00  0.00    +0.037 C 
ATOM      6  C   UNL     1     -34.864  22.070   6.060  0.00  0.00    +0.004 C 
ENDROOT
BRANCH   2   9
ATOM      7  O   UNL     1     -38.172  22.624   2.342  0.00  0.00    -0.270 OA
ATOM      8  N   UNL     1     -36.612  24.231   1.853  0.00  0.00    -0.325 N 
ATOM      9  C   UNL     1     -37.106  23.190   2.628  0.00  0.00    +0.247 C 
ATOM     10  H   UNL     1     -37.102  24.526   1.052  0.00  0.00    +0.145 HD
ATOM     11  H   UNL     1     -35.770  24.676   2.106  0.00  0.00    +0.145 HD
ENDBRANCH   2   9
BRANCH   1  13
ATOM     12  O   UNL     1     -34.248  21.414   1.199  0.00  0.00    -0.263 OA
ATOM     13  N   UNL     1     -35.820  20.644   2.801  0.00  0.00    -0.275 N 
ATOM     14  C   UNL     1     -35.114  20.657   1.605  0.00  0.00    +0.326 C 
ATOM     15  H   UNL     1     -36.469  19.912   2.914  0.00  0.00    +0.155 HD
BRANCH  14  17
ATOM     16  O   UNL     1     -36.634  19.103   0.662  0.00  0.00    -0.240 OA
ATOM     17  C   UNL     1     -35.494  19.522   0.703  0.00  0.00    +0.396 C 
BRANCH  17  18
ATOM     18  O   UNL     1     -34.392  19.108   0.049  0.00  0.00    -0.442 OA
BRANCH  18  19
ATOM     19  C   UNL     1     -33.847  17.866   0.506  0.00  0.00    +0.209 C 
ATOM     20  C   UNL     1     -32.606  18.145   1.325  0.00  0.00    +0.051 C 
ENDBRANCH  18  19
ENDBRANCH  17  18
ENDBRANCH  14  17
ENDBRANCH   1  13
BRANCH   3  21
ATOM     21  O   UNL     1     -36.810  24.910   4.841  0.00  0.00    -0.471 OA
ATOM     22  C   UNL     1     -36.005  26.029   5.207  0.00  0.00    +0.252 C 
ENDBRANCH   3  21
TORSDOF 6
ENDMDL
MODEL 5
REMARK VINA RESULT:      -5.2      3.399      5.632
REMARK  Name = 198325
REMARK  6 active torsions:
REMARK  status: ('A' for Active; 'I' for Inactive)
REMARK    1  A    between atoms: C_1  and  N_13
REMARK    2  A    between atoms: C_2  and  C_9
REMARK    3  A    between atoms: C_3  and  O_21
REMARK    4  A    between atoms: C_14  and  C_17
REMARK    5  A    between atoms: C_17  and  O_18
REMARK    6  A    between atoms: O_18  and  C_19
REMARK                            x       y       z     vdW  Elec       q    Type
REMARK                         _______ _______ _______ _____ _____    ______ ____
ROOT
ATOM      1  C   UNL     1     -34.963  25.297   4.670  0.00  0.00    +0.058 C 
ATOM      2  C   UNL     1     -36.110  24.929   3.968  0.00  0.00    +0.100 C 
ATOM      3  C   UNL     1     -36.614  23.634   4.082  0.00  0.00    +0.144 C 
ATOM      4  C   UNL     1     -34.319  24.369   5.488  0.00  0.00    +0.015 C 
ATOM      5  C   UNL     1     -35.970  22.706   4.900  0.00  0.00    +0.037 C 
ATOM      6  C   UNL     1     -34.823  23.073   5.603  0.00  0.00    +0.004 C 
ENDROOT
BRANCH   2   9
ATOM      7  O   UNL     1     -36.230  26.379   2.115  0.00  0.00    -0.270 OA
ATOM      8  N   UNL     1     -38.101  26.229   3.433  0.00  0.00    -0.325 N 
ATOM      9  C   UNL     1     -36.793  25.892   3.108  0.00  0.00    +0.247 C 
ATOM     10  H   UNL     1     -38.596  26.875   2.878  0.00  0.00    +0.145 HD
ATOM     11  H   UNL     1     -38.533  25.821   4.218  0.00  0.00    +0.145 HD
ENDBRANCH   2   9
BRANCH   1  13
ATOM     12  O   UNL     1     -32.438  26.330   3.321  0.00  0.00    -0.263 OA
ATOM     13  N   UNL     1     -34.439  26.588   4.571  0.00  0.00    -0.275 N 
ATOM     14  C   UNL     1     -33.265  26.979   3.939  0.00  0.00    +0.326 C 
ATOM     15  H   UNL     1     -34.961  27.305   4.998  0.00  0.00    +0.155 HD
BRANCH  14  17
ATOM     16  O   UNL     1     -33.852  29.256   3.652  0.00  0.00    -0.240 OA
ATOM     17  C   UNL     1     -33.025  28.455   4.039  0.00  0.00    +0.396 C 
BRANCH  17  18
ATOM     18  O   UNL     1     -31.805  28.655   4.572  0.00  0.00    -0.442 OA
BRANCH  18  19
ATOM     19  C   UNL     1     -31.784  28.823   5.993  0.00  0.00    +0.209 C 
ATOM     20  C   UNL     1     -31.784  30.302   6.313  0.00  0.00    +0.051 C 
ENDBRANCH  18  19
ENDBRANCH  17  18
ENDBRANCH  14  17
ENDBRANCH   1  13
BRANCH   3  21
ATOM     21  O   UNL     1     -37.735  23.253   3.406  0.00  0.00    -0.471 OA
ATOM     22  C   UNL     1     -37.568  22.290   2.367  0.00  0.00    +0.252 C 
ENDBRANCH   3  21
TORSDOF 6
ENDMDL
MODEL 6
REMARK VINA RESULT:      -5.1      4.354      5.560
REMARK  Name = 198325
REMARK  6 active torsions:
REMARK  status: ('A' for Active; 'I' for Inactive)
REMARK    1  A    between atoms: C_1  and  N_13
REMARK    2  A    between atoms: C_2  and  C_9
REMARK    3  A    between atoms: C_3  and  O_21
REMARK    4  A    between atoms: C_14  and  C_17
REMARK    5  A    between atoms: C_17  and  O_18
REMARK    6  A    between atoms: O_18  and  C_19
REMARK                            x       y       z     vdW  Elec       q    Type
REMARK                         _______ _______ _______ _____ _____    ______ ____
ROOT
ATOM      1  C   UNL     1     -34.491  24.009   4.471  0.00  0.00    +0.058 C 
ATOM      2  C   UNL     1     -35.063  23.355   3.379  0.00  0.00    +0.100 C 
ATOM      3  C   UNL     1     -35.662  22.107   3.548  0.00  0.00    +0.144 C 
ATOM      4  C   UNL     1     -34.519  23.414   5.732  0.00  0.00    +0.015 C 
ATOM      5  C   UNL     1     -35.690  21.513   4.809  0.00  0.00    +0.037 C 
ATOM      6  C   UNL     1     -35.120  22.166   5.901  0.00  0.00    +0.004 C 
ENDROOT
BRANCH   2   9
ATOM      7  O   UNL     1     -33.967  24.193   1.469  0.00  0.00    -0.270 OA
ATOM      8  N   UNL     1     -36.259  24.272   1.464  0.00  0.00    -0.325 N 
ATOM      9  C   UNL     1     -35.039  23.968   2.054  0.00  0.00    +0.247 C 
ATOM     10  H   UNL     1     -36.286  24.685   0.572  0.00  0.00    +0.145 HD
ATOM     11  H   UNL     1     -37.098  24.073   1.940  0.00  0.00    +0.145 HD
ENDBRANCH   2   9
BRANCH   1  13
ATOM     12  O   UNL     1     -35.470  26.799   5.192  0.00  0.00    -0.263 OA
ATOM     13  N   UNL     1     -33.885  25.259   4.327  0.00  0.00    -0.275 N 
ATOM     14  C   UNL     1     -34.407  26.498   4.676  0.00  0.00    +0.326 C 
ATOM     15  H   UNL     1     -32.983  25.263   3.931  0.00  0.00    +0.155 HD
BRANCH  14  17
ATOM     16  O   UNL     1     -33.786  28.535   3.636  0.00  0.00    -0.240 OA
ATOM     17  C   UNL     1     -33.464  27.622   4.371  0.00  0.00    +0.396 C 
BRANCH  17  18
ATOM     18  O   UNL     1     -32.301  27.390   5.008  0.00  0.00    -0.442 OA
BRANCH  18  19
ATOM     19  C   UNL     1     -32.274  27.786   6.383  0.00  0.00    +0.209 C 
ATOM     20  C   UNL     1     -31.737  29.199   6.478  0.00  0.00    +0.051 C 
ENDBRANCH  18  19
ENDBRANCH  17  18
ENDBRANCH  14  17
ENDBRANCH   1  13
BRANCH   3  21
ATOM     21  O   UNL     1     -36.227  21.451   2.496  0.00  0.00    -0.471 OA
ATOM     22  C   UNL     1     -35.564  20.276   2.032  0.00  0.00    +0.252 C 
ENDBRANCH   3  21
TORSDOF 6
ENDMDL
MODEL 7
REMARK VINA RESULT:      -5.1      2.601      6.462
REMARK  Name = 198325
REMARK  6 active torsions:
REMARK  status: ('A' for Active; 'I' for Inactive)
REMARK    1  A    between atoms: C_1  and  N_13
REMARK    2  A    between atoms: C_2  and  C_9
REMARK    3  A    between atoms: C_3  and  O_21
REMARK    4  A    between atoms: C_14  and  C_17
REMARK    5  A    between atoms: C_17  and  O_18
REMARK    6  A    between atoms: O_18  and  C_19
REMARK                            x       y       z     vdW  Elec       q    Type
REMARK                         _______ _______ _______ _____ _____    ______ ____
ROOT
ATOM      1  C   UNL     1     -36.049  21.887   3.894  0.00  0.00    +0.058 C 
ATOM      2  C   UNL     1     -36.315  23.242   4.088  0.00  0.00    +0.100 C 
ATOM      3  C   UNL     1     -35.815  23.898   5.213  0.00  0.00    +0.144 C 
ATOM      4  C   UNL     1     -35.281  21.187   4.825  0.00  0.00    +0.015 C 
ATOM      5  C   UNL     1     -35.048  23.198   6.144  0.00  0.00    +0.037 C 
ATOM      6  C   UNL     1     -34.781  21.843   5.950  0.00  0.00    +0.004 C 
ENDROOT
BRANCH   2   9
ATOM      7  O   UNL     1     -36.754  24.102   1.939  0.00  0.00    -0.270 OA
ATOM      8  N   UNL     1     -38.310  24.541   3.566  0.00  0.00    -0.325 N 
ATOM      9  C   UNL     1     -37.117  23.985   3.120  0.00  0.00    +0.247 C 
ATOM     10  H   UNL     1     -38.879  25.050   2.946  0.00  0.00    +0.145 HD
ATOM     11  H   UNL     1     -38.585  24.425   4.505  0.00  0.00    +0.145 HD
ENDBRANCH   2   9
BRANCH   1  13
ATOM     12  O   UNL     1     -34.618  20.248   1.766  0.00  0.00    -0.263 OA
ATOM     13  N   UNL     1     -36.539  21.208   2.775  0.00  0.00    -0.275 N 
ATOM     14  C   UNL     1     -35.812  20.484   1.839  0.00  0.00    +0.326 C 
ATOM     15  H   UNL     1     -37.513  21.248   2.633  0.00  0.00    +0.155 HD
BRANCH  14  17
ATOM     16  O   UNL     1     -36.606  18.716   0.475  0.00  0.00    -0.240 OA
ATOM     17  C   UNL     1     -36.682  19.893   0.772  0.00  0.00    +0.396 C 
BRANCH  17  18
ATOM     18  O   UNL     1     -37.455  20.869   0.261  0.00  0.00    -0.442 OA
BRANCH  18  19
ATOM     19  C   UNL     1     -38.830  20.518   0.076  0.00  0.00    +0.209 C 
ATOM     20  C   UNL     1     -39.684  21.383   0.979  0.00  0.00    +0.051 C 
ENDBRANCH  18  19
ENDBRANCH  17  18
ENDBRANCH  14  17
ENDBRANCH   1  13
BRANCH   3  21
ATOM     21  O   UNL     1     -36.062  25.222   5.423  0.00  0.00    -0.471 OA
ATOM     22  C   UNL     1     -34.930  26.083   5.531  0.00  0.00    +0.252 C 
ENDBRANCH   3  21
TORSDOF 6
ENDMDL
MODEL 8
REMARK VINA RESULT:      -5.1      1.826      6.130
REMARK  Name = 198325
REMARK  6 active torsions:
REMARK  status: ('A' for Active; 'I' for Inactive)
REMARK    1  A    between atoms: C_1  and  N_13
REMARK    2  A    between atoms: C_2  and  C_9
REMARK    3  A    between atoms: C_3  and  O_21
REMARK    4  A    between atoms: C_14  and  C_17
REMARK    5  A    between atoms: C_17  and  O_18
REMARK    6  A    between atoms: O_18  and  C_19
REMARK                            x       y       z     vdW  Elec       q    Type
REMARK                         _______ _______ _______ _____ _____    ______ ____
ROOT
ATOM      1  C   UNL     1     -36.506  23.193   3.956  0.00  0.00    +0.058 C 
ATOM      2  C   UNL     1     -36.402  24.583   3.916  0.00  0.00    +0.100 C 
ATOM      3  C   UNL     1     -35.510  25.241   4.762  0.00  0.00    +0.144 C 
ATOM      4  C   UNL     1     -35.716  22.460   4.843  0.00  0.00    +0.015 C 
ATOM      5  C   UNL     1     -34.720  24.508   5.648  0.00  0.00    +0.037 C 
ATOM      6  C   UNL     1     -34.823  23.118   5.688  0.00  0.00    +0.004 C 
ENDROOT
BRANCH   2   9
ATOM      7  O   UNL     1     -37.046  25.298   1.766  0.00  0.00    -0.270 OA
ATOM      8  N   UNL     1     -38.222  26.158   3.537  0.00  0.00    -0.325 N 
ATOM      9  C   UNL     1     -37.224  25.360   2.992  0.00  0.00    +0.247 C 
ATOM     10  H   UNL     1     -38.797  26.698   2.949  0.00  0.00    +0.145 HD
ATOM     11  H   UNL     1     -38.354  26.183   4.513  0.00  0.00    +0.145 HD
ENDBRANCH   2   9
BRANCH   1  13
ATOM     12  O   UNL     1     -36.012  21.504   1.473  0.00  0.00    -0.263 OA
ATOM     13  N   UNL     1     -37.393  22.510   3.119  0.00  0.00    -0.275 N 
ATOM     14  C   UNL     1     -37.086  21.763   1.990  0.00  0.00    +0.326 C 
ATOM     15  H   UNL     1     -38.347  22.567   3.357  0.00  0.00    +0.155 HD
BRANCH  14  17
ATOM     16  O   UNL     1     -38.211  20.349   0.458  0.00  0.00    -0.240 OA
ATOM     17  C   UNL     1     -38.303  21.176   1.343  0.00  0.00    +0.396 C 
BRANCH  17  18
ATOM     18  O   UNL     1     -39.394  21.740   1.894  0.00  0.00    -0.442 OA
BRANCH  18  19
ATOM     19  C   UNL     1     -40.199  22.508   0.994  0.00  0.00    +0.209 C 
ATOM     20  C   UNL     1     -40.343  23.913   1.539  0.00  0.00    +0.051 C 
ENDBRANCH  18  19
ENDBRANCH  17  18
ENDBRANCH  14  17
ENDBRANCH   1  13
BRANCH   3  21
ATOM     21  O   UNL     1     -35.391  26.599   4.739  0.00  0.00    -0.471 OA
ATOM     22  C   UNL     1     -34.264  27.139   4.052  0.00  0.00    +0.252 C 
ENDBRANCH   3  21
TORSDOF 6
ENDMDL
MODEL 9
REMARK VINA RESULT:      -5.0      3.881      5.261
REMARK  Name = 198325
REMARK  6 active torsions:
REMARK  status: ('A' for Active; 'I' for Inactive)
REMARK    1  A    between atoms: C_1  and  N_13
REMARK    2  A    between atoms: C_2  and  C_9
REMARK    3  A    between atoms: C_3  and  O_21
REMARK    4  A    between atoms: C_14  and  C_17
REMARK    5  A    between atoms: C_17  and  O_18
REMARK    6  A    between atoms: O_18  and  C_19
REMARK                            x       y       z     vdW  Elec       q    Type
REMARK                         _______ _______ _______ _____ _____    ______ ____
ROOT
ATOM      1  C   UNL     1     -34.443  24.554   3.054  0.00  0.00    +0.058 C 
ATOM      2  C   UNL     1     -35.453  23.627   3.309  0.00  0.00    +0.100 C 
ATOM      3  C   UNL     1     -36.007  22.891   2.261  0.00  0.00    +0.144 C 
ATOM      4  C   UNL     1     -33.984  24.745   1.750  0.00  0.00    +0.015 C 
ATOM      5  C   UNL     1     -35.548  23.082   0.958  0.00  0.00    +0.037 C 
ATOM      6  C   UNL     1     -34.537  24.008   0.703  0.00  0.00    +0.004 C 
ENDROOT
BRANCH   2   9
ATOM      7  O   UNL     1     -36.417  24.355   5.332  0.00  0.00    -0.270 OA
ATOM      8  N   UNL     1     -35.870  22.133   5.188  0.00  0.00    -0.325 N 
ATOM      9  C   UNL     1     -35.942  23.420   4.669  0.00  0.00    +0.247 C 
ATOM     10  H   UNL     1     -36.189  21.951   6.102  0.00  0.00    +0.145 HD
ATOM     11  H   UNL     1     -35.501  21.402   4.641  0.00  0.00    +0.145 HD
ENDBRANCH   2   9
BRANCH   1  13
ATOM     12  O   UNL     1     -34.720  27.499   3.771  0.00  0.00    -0.263 OA
ATOM     13  N   UNL     1     -33.874  25.304   4.087  0.00  0.00    -0.275 N 
ATOM     14  C   UNL     1     -34.045  26.659   4.342  0.00  0.00    +0.326 C 
ATOM     15  H   UNL     1     -33.282  24.817   4.705  0.00  0.00    +0.155 HD
BRANCH  14  17
ATOM     16  O   UNL     1     -33.148  26.408   6.521  0.00  0.00    -0.240 OA
ATOM     17  C   UNL     1     -33.273  27.117   5.542  0.00  0.00    +0.396 C 
BRANCH  17  18
ATOM     18  O   UNL     1     -32.828  28.366   5.313  0.00  0.00    -0.442 OA
BRANCH  18  19
ATOM     19  C   UNL     1     -31.492  28.624   5.755  0.00  0.00    +0.209 C 
ATOM     20  C   UNL     1     -31.535  29.609   6.904  0.00  0.00    +0.051 C 
ENDBRANCH  18  19
ENDBRANCH  17  18
ENDBRANCH  14  17
ENDBRANCH   1  13
BRANCH   3  21
ATOM     21  O   UNL     1     -36.994  21.979   2.487  0.00  0.00    -0.471 OA
ATOM     22  C   UNL     1     -36.878  20.721   1.826  0.00  0.00    +0.252 C 
ENDBRANCH   3  21
TORSDOF 6
ENDMDL
