MODEL 1
REMARK VINA RESULT:      -6.7      0.000      0.000
REMARK  Name = 21156165
REMARK  8 active torsions:
REMARK  status: ('A' for Active; 'I' for Inactive)
REMARK    1  A    between atoms: C_4  and  C_22
REMARK    2  A    between atoms: C_10  and  C_35
REMARK    3  A    between atoms: C_14  and  O_31
REMARK    4  A    between atoms: C_15  and  O_33
REMARK    5  A    between atoms: C_19  and  N_25
REMARK    6  A    between atoms: C_21  and  O_29
REMARK    7  A    between atoms: C_35  and  C_37
REMARK    8  A    between atoms: C_37  and  O_38
REMARK                            x       y       z     vdW  Elec       q    Type
REMARK                         _______ _______ _______ _____ _____    ______ ____
ROOT
ATOM      1  O   UNL     1     -40.055  25.000   1.043  0.00  0.00    -0.353 OA
ATOM      2  O   UNL     1     -34.876  28.336   3.105  0.00  0.00    -0.287 OA
ATOM      3  O   UNL     1     -34.603  23.414   5.166  0.00  0.00    -0.286 OA
ATOM      4  C   UNL     1     -33.722  26.805   4.495  0.00  0.00    +0.047 C 
ATOM      5  C   UNL     1     -37.870  25.593   2.025  0.00  0.00    +0.037 A 
ATOM      6  C   UNL     1     -37.793  24.296   2.559  0.00  0.00    +0.015 A 
ATOM      7  C   UNL     1     -35.841  26.194   3.230  0.00  0.00    +0.078 A 
ATOM      8  C   UNL     1     -34.819  27.205   3.572  0.00  0.00    +0.197 C 
ATOM      9  C   UNL     1     -38.867  23.289   2.248  0.00  0.00    +0.059 C 
ATOM     10  C   UNL     1     -39.593  23.650   0.951  0.00  0.00    +0.131 C 
ATOM     11  C   UNL     1     -38.997  25.972   1.086  0.00  0.00    +0.140 C 
ATOM     12  C   UNL     1     -35.774  24.908   3.763  0.00  0.00    +0.078 A 
ATOM     13  C   UNL     1     -33.673  25.566   4.998  0.00  0.00    +0.043 C 
ATOM     14  C   UNL     1     -36.888  26.537   2.367  0.00  0.00    +0.135 A 
ATOM     15  C   UNL     1     -36.751  23.962   3.433  0.00  0.00    +0.133 A 
ATOM     16  C   UNL     1     -34.682  24.535   4.679  0.00  0.00    +0.199 C 
ATOM     17  C   UNL     1     -38.508  26.260  -0.334  0.00  0.00    +0.037 C 
ENDROOT
BRANCH   4  22
ATOM     18  O   UNL     1     -32.097  27.481   6.067  0.00  0.00    -0.352 OA
ATOM     19  C   UNL     1     -30.511  28.896   4.074  0.00  0.00    -0.026 C 
ATOM     20  C   UNL     1     -31.642  27.920   3.720  0.00  0.00    +0.016 C 
ATOM     21  C   UNL     1     -30.005  28.643   5.503  0.00  0.00    +0.119 C 
ATOM     22  C   UNL     1     -32.699  27.843   4.824  0.00  0.00    +0.139 C 
ATOM     23  C   UNL     1     -31.101  28.389   6.551  0.00  0.00    +0.140 C 
ATOM     24  C   UNL     1     -31.739  29.652   7.124  0.00  0.00    +0.035 C 
BRANCH  19  25
ATOM     25  N   UNL     1     -30.951  30.277   3.879  0.00  0.00    +0.387 N 
ATOM     26  C   UNL     1     -29.889  31.207   4.259  0.00  0.00    -0.101 C 
ATOM     27  C   UNL     1     -31.348  30.493   2.489  0.00  0.00    -0.101 C 
ATOM     28  H   UNL     1     -31.760  30.450   4.476  0.00  0.00    -0.080 HD
ENDBRANCH  19  25
BRANCH  21  29
ATOM     29  O   UNL     1     -29.162  27.480   5.463  0.00  0.00    -0.384 OA
ATOM     30  H   UNL     1     -28.232  27.755   5.455  0.00  0.00    +0.210 HD
ENDBRANCH  21  29
ENDBRANCH   4  22
BRANCH  14  31
ATOM     31  O   UNL     1     -37.001  27.803   1.866  0.00  0.00    -0.506 OA
ATOM     32  H   UNL     1     -36.283  28.190   1.403  0.00  0.00    +0.292 HD
ENDBRANCH  14  31
BRANCH  15  33
ATOM     33  O   UNL     1     -36.724  22.700   3.958  0.00  0.00    -0.506 OA
ATOM     34  H   UNL     1     -36.949  22.562   4.857  0.00  0.00    +0.292 HD
ENDBRANCH  15  33
BRANCH  10  35
ATOM     35  C   UNL     1     -40.806  22.755   0.737  0.00  0.00    +0.139 C 
BRANCH  35  37
ATOM     36  O   UNL     1     -39.387  21.260  -0.565  0.00  0.00    -0.250 OA
ATOM     37  C   UNL     1     -40.447  21.494  -0.003  0.00  0.00    +0.316 C 
BRANCH  37  38
ATOM     38  O   UNL     1     -41.486  20.622   0.040  0.00  0.00    -0.480 OA
ATOM     39  H   UNL     1     -41.527  19.973   0.715  0.00  0.00    +0.295 HD
ENDBRANCH  37  38
ENDBRANCH  35  37
ENDBRANCH  10  35
TORSDOF 8
ENDMDL
MODEL 2
REMARK VINA RESULT:      -6.6      3.303      5.895
REMARK  Name = 21156165
REMARK  8 active torsions:
REMARK  status: ('A' for Active; 'I' for Inactive)
REMARK    1  A    between atoms: C_4  and  C_22
REMARK    2  A    between atoms: C_10  and  C_35
REMARK    3  A    between atoms: C_14  and  O_31
REMARK    4  A    between atoms: C_15  and  O_33
REMARK    5  A    between atoms: C_19  and  N_25
REMARK    6  A    between atoms: C_21  and  O_29
REMARK    7  A    between atoms: C_35  and  C_37
REMARK    8  A    between atoms: C_37  and  O_38
REMARK                            x       y       z     vdW  Elec       q    Type
REMARK                         _______ _______ _______ _____ _____    ______ ____
ROOT
ATOM      1  O   UNL     1     -35.744  24.935   4.217  0.00  0.00    -0.353 OA
ATOM      2  O   UNL     1     -33.380  30.511   1.866  0.00  0.00    -0.287 OA
ATOM      3  O   UNL     1     -30.951  29.514   6.519  0.00  0.00    -0.286 OA
ATOM      4  C   UNL     1     -31.834  31.220   3.513  0.00  0.00    +0.047 C 
ATOM      5  C   UNL     1     -34.349  26.938   3.853  0.00  0.00    +0.037 A 
ATOM      6  C   UNL     1     -33.703  26.671   5.071  0.00  0.00    +0.015 A 
ATOM      7  C   UNL     1     -33.122  29.035   3.679  0.00  0.00    +0.078 A 
ATOM      8  C   UNL     1     -32.825  30.274   2.932  0.00  0.00    +0.197 C 
ATOM      9  C   UNL     1     -34.050  25.431   5.852  0.00  0.00    +0.059 C 
ATOM     10  C   UNL     1     -34.650  24.363   4.937  0.00  0.00    +0.131 C 
ATOM     11  C   UNL     1     -35.352  25.955   3.284  0.00  0.00    +0.140 C 
ATOM     12  C   UNL     1     -32.490  28.768   4.893  0.00  0.00    +0.078 A 
ATOM     13  C   UNL     1     -31.237  30.949   4.680  0.00  0.00    +0.043 C 
ATOM     14  C   UNL     1     -34.051  28.124   3.163  0.00  0.00    +0.135 A 
ATOM     15  C   UNL     1     -32.784  27.591   5.591  0.00  0.00    +0.133 A 
ATOM     16  C   UNL     1     -31.516  29.721   5.452  0.00  0.00    +0.199 C 
ATOM     17  C   UNL     1     -34.869  25.305   1.987  0.00  0.00    +0.037 C 
ENDROOT
BRANCH   4  22
ATOM     18  O   UNL     1     -32.737  33.259   2.740  0.00  0.00    -0.352 OA
ATOM     19  C   UNL     1     -30.140  34.580   2.675  0.00  0.00    -0.026 C 
ATOM     20  C   UNL     1     -30.391  33.237   3.375  0.00  0.00    +0.016 C 
ATOM     21  C   UNL     1     -31.460  35.344   2.483  0.00  0.00    +0.119 C 
ATOM     22  C   UNL     1     -31.549  32.465   2.739  0.00  0.00    +0.139 C 
ATOM     23  C   UNL     1     -32.650  34.490   2.014  0.00  0.00    +0.140 C 
ATOM     24  C   UNL     1     -32.704  34.247   0.509  0.00  0.00    +0.035 C 
BRANCH  19  25
ATOM     25  N   UNL     1     -29.432  34.372   1.413  0.00  0.00    +0.387 N 
ATOM     26  C   UNL     1     -29.220  35.648   0.733  0.00  0.00    -0.101 C 
ATOM     27  C   UNL     1     -28.156  33.699   1.650  0.00  0.00    -0.101 C 
ATOM     28  H   UNL     1     -30.003  33.777   0.812  0.00  0.00    -0.080 HD
ENDBRANCH  19  25
BRANCH  21  29
ATOM     29  O   UNL     1     -31.812  35.924   3.750  0.00  0.00    -0.384 OA
ATOM     30  H   UNL     1     -32.344  35.292   4.257  0.00  0.00    +0.210 HD
ENDBRANCH  21  29
ENDBRANCH   4  22
BRANCH  14  31
ATOM     31  O   UNL     1     -34.716  28.382   1.998  0.00  0.00    -0.506 OA
ATOM     32  H   UNL     1     -34.468  29.116   1.469  0.00  0.00    +0.292 HD
ENDBRANCH  14  31
BRANCH  15  33
ATOM     33  O   UNL     1     -32.197  27.313   6.794  0.00  0.00    -0.506 OA
ATOM     34  H   UNL     1     -32.075  27.996   7.423  0.00  0.00    +0.292 HD
ENDBRANCH  15  33
BRANCH  10  35
ATOM     35  C   UNL     1     -35.188  23.191   5.747  0.00  0.00    +0.139 C 
BRANCH  35  37
ATOM     36  O   UNL     1     -35.077  20.947   4.799  0.00  0.00    -0.250 OA
ATOM     37  C   UNL     1     -35.607  22.046   4.862  0.00  0.00    +0.316 C 
BRANCH  37  38
ATOM     38  O   UNL     1     -36.688  22.406   4.124  0.00  0.00    -0.480 OA
ATOM     39  H   UNL     1     -37.248  21.748   3.760  0.00  0.00    +0.295 HD
ENDBRANCH  37  38
ENDBRANCH  35  37
ENDBRANCH  10  35
TORSDOF 8
ENDMDL
MODEL 3
REMARK VINA RESULT:      -6.6      5.345      8.590
REMARK  Name = 21156165
REMARK  8 active torsions:
REMARK  status: ('A' for Active; 'I' for Inactive)
REMARK    1  A    between atoms: C_4  and  C_22
REMARK    2  A    between atoms: C_10  and  C_35
REMARK    3  A    between atoms: C_14  and  O_31
REMARK    4  A    between atoms: C_15  and  O_33
REMARK    5  A    between atoms: C_19  and  N_25
REMARK    6  A    between atoms: C_21  and  O_29
REMARK    7  A    between atoms: C_35  and  C_37
REMARK    8  A    between atoms: C_37  and  O_38
REMARK                            x       y       z     vdW  Elec       q    Type
REMARK                         _______ _______ _______ _____ _____    ______ ____
ROOT
ATOM      1  O   UNL     1     -36.052  19.204   1.123  0.00  0.00    -0.353 OA
ATOM      2  O   UNL     1     -40.917  23.508   1.223  0.00  0.00    -0.287 OA
ATOM      3  O   UNL     1     -36.924  25.453   4.194  0.00  0.00    -0.286 OA
ATOM      4  C   UNL     1     -40.121  25.243   2.625  0.00  0.00    +0.047 C 
ATOM      5  C   UNL     1     -37.373  21.263   1.449  0.00  0.00    +0.037 A 
ATOM      6  C   UNL     1     -36.319  21.778   2.222  0.00  0.00    +0.015 A 
ATOM      7  C   UNL     1     -38.724  23.207   2.020  0.00  0.00    +0.078 A 
ATOM      8  C   UNL     1     -39.996  23.948   1.900  0.00  0.00    +0.197 C 
ATOM      9  C   UNL     1     -35.046  20.991   2.380  0.00  0.00    +0.059 C 
ATOM     10  C   UNL     1     -34.871  20.002   1.228  0.00  0.00    +0.131 C 
ATOM     11  C   UNL     1     -37.217  19.943   0.721  0.00  0.00    +0.140 C 
ATOM     12  C   UNL     1     -37.677  23.710   2.791  0.00  0.00    +0.078 A 
ATOM     13  C   UNL     1     -39.107  25.710   3.362  0.00  0.00    +0.043 C 
ATOM     14  C   UNL     1     -38.573  21.985   1.354  0.00  0.00    +0.135 A 
ATOM     15  C   UNL     1     -36.479  22.995   2.898  0.00  0.00    +0.133 A 
ATOM     16  C   UNL     1     -37.825  24.991   3.504  0.00  0.00    +0.199 C 
ATOM     17  C   UNL     1     -37.220  20.106  -0.800  0.00  0.00    +0.037 C 
ENDROOT
BRANCH   4  22
ATOM     18  O   UNL     1     -41.474  26.953   3.527  0.00  0.00    -0.352 OA
ATOM     19  C   UNL     1     -42.773  27.503   0.978  0.00  0.00    -0.026 C 
ATOM     20  C   UNL     1     -41.507  26.647   1.116  0.00  0.00    +0.016 C 
ATOM     21  C   UNL     1     -42.951  28.409   2.207  0.00  0.00    +0.119 C 
ATOM     22  C   UNL     1     -41.416  25.975   2.488  0.00  0.00    +0.139 C 
ATOM     23  C   UNL     1     -42.671  27.737   3.562  0.00  0.00    +0.140 C 
ATOM     24  C   UNL     1     -43.840  26.934   4.127  0.00  0.00    +0.035 C 
BRANCH  19  25
ATOM     25  N   UNL     1     -43.940  26.654   0.743  0.00  0.00    +0.387 N 
ATOM     26  C   UNL     1     -45.147  27.469   0.624  0.00  0.00    -0.101 C 
ATOM     27  C   UNL     1     -43.746  25.845  -0.460  0.00  0.00    -0.101 C 
ATOM     28  H   UNL     1     -44.051  26.026   1.539  0.00  0.00    -0.080 HD
ENDBRANCH  19  25
BRANCH  21  29
ATOM     29  O   UNL     1     -42.037  29.509   2.069  0.00  0.00    -0.384 OA
ATOM     30  H   UNL     1     -41.597  29.457   1.206  0.00  0.00    +0.210 HD
ENDBRANCH  21  29
ENDBRANCH   4  22
BRANCH  14  31
ATOM     31  O   UNL     1     -39.598  21.449   0.627  0.00  0.00    -0.506 OA
ATOM     32  H   UNL     1     -40.330  21.983   0.384  0.00  0.00    +0.292 HD
ENDBRANCH  14  31
BRANCH  15  33
ATOM     33  O   UNL     1     -35.445  23.452   3.665  0.00  0.00    -0.506 OA
ATOM     34  H   UNL     1     -34.920  24.167   3.364  0.00  0.00    +0.292 HD
ENDBRANCH  15  33
BRANCH  10  35
ATOM     35  C   UNL     1     -33.697  19.067   1.485  0.00  0.00    +0.139 C 
BRANCH  35  37
ATOM     36  O   UNL     1     -32.719  18.085  -0.521  0.00  0.00    -0.250 OA
ATOM     37  C   UNL     1     -33.540  18.051   0.383  0.00  0.00    +0.316 C 
BRANCH  37  38
ATOM     38  O   UNL     1     -34.456  17.061   0.534  0.00  0.00    -0.480 OA
ATOM     39  H   UNL     1     -35.294  17.130   0.120  0.00  0.00    +0.295 HD
ENDBRANCH  37  38
ENDBRANCH  35  37
ENDBRANCH  10  35
TORSDOF 8
ENDMDL
MODEL 4
REMARK VINA RESULT:      -6.5      4.286      6.827
REMARK  Name = 21156165
REMARK  8 active torsions:
REMARK  status: ('A' for Active; 'I' for Inactive)
REMARK    1  A    between atoms: C_4  and  C_22
REMARK    2  A    between atoms: C_10  and  C_35
REMARK    3  A    between atoms: C_14  and  O_31
REMARK    4  A    between atoms: C_15  and  O_33
REMARK    5  A    between atoms: C_19  and  N_25
REMARK    6  A    between atoms: C_21  and  O_29
REMARK    7  A    between atoms: C_35  and  C_37
REMARK    8  A    between atoms: C_37  and  O_38
REMARK                            x       y       z     vdW  Elec       q    Type
REMARK                         _______ _______ _______ _____ _____    ______ ____
ROOT
ATOM      1  O   UNL     1     -33.903  24.447   4.344  0.00  0.00    -0.353 OA
ATOM      2  O   UNL     1     -34.407  30.776   2.969  0.00  0.00    -0.287 OA
ATOM      3  O   UNL     1     -37.931  28.138  -0.061  0.00  0.00    -0.286 OA
ATOM      4  C   UNL     1     -36.070  30.868   1.285  0.00  0.00    +0.047 C 
ATOM      5  C   UNL     1     -34.706  26.618   3.487  0.00  0.00    +0.037 A 
ATOM      6  C   UNL     1     -35.639  25.925   2.698  0.00  0.00    +0.015 A 
ATOM      7  C   UNL     1     -35.368  28.702   2.414  0.00  0.00    +0.078 A 
ATOM      8  C   UNL     1     -35.215  30.165   2.280  0.00  0.00    +0.197 C 
ATOM      9  C   UNL     1     -35.752  24.428   2.804  0.00  0.00    +0.059 C 
ATOM     10  C   UNL     1     -35.225  23.938   4.153  0.00  0.00    +0.131 C 
ATOM     11  C   UNL     1     -33.850  25.876   4.492  0.00  0.00    +0.140 C 
ATOM     12  C   UNL     1     -36.287  28.008   1.629  0.00  0.00    +0.078 A 
ATOM     13  C   UNL     1     -36.946  30.187   0.538  0.00  0.00    +0.043 C 
ATOM     14  C   UNL     1     -34.577  28.008   3.338  0.00  0.00    +0.135 A 
ATOM     15  C   UNL     1     -36.419  26.622   1.765  0.00  0.00    +0.133 A 
ATOM     16  C   UNL     1     -37.120  28.724   0.647  0.00  0.00    +0.199 C 
ATOM     17  C   UNL     1     -34.179  26.253   5.938  0.00  0.00    +0.037 C 
ENDROOT
BRANCH   4  22
ATOM     18  O   UNL     1     -34.609  32.592   0.604  0.00  0.00    -0.352 OA
ATOM     19  C   UNL     1     -36.786  34.446   0.041  0.00  0.00    -0.026 C 
ATOM     20  C   UNL     1     -36.992  32.944   0.278  0.00  0.00    +0.016 C 
ATOM     21  C   UNL     1     -35.330  34.735  -0.361  0.00  0.00    +0.119 C 
ATOM     22  C   UNL     1     -35.898  32.348   1.168  0.00  0.00    +0.139 C 
ATOM     23  C   UNL     1     -34.264  33.972   0.443  0.00  0.00    +0.140 C 
ATOM     24  C   UNL     1     -33.900  34.609   1.781  0.00  0.00    +0.035 C 
BRANCH  19  25
ATOM     25  N   UNL     1     -37.196  35.210   1.219  0.00  0.00    +0.387 N 
ATOM     26  C   UNL     1     -37.262  36.635   0.903  0.00  0.00    -0.101 C 
ATOM     27  C   UNL     1     -38.488  34.732   1.709  0.00  0.00    -0.101 C 
ATOM     28  H   UNL     1     -36.502  35.074   1.954  0.00  0.00    -0.080 HD
ENDBRANCH  19  25
BRANCH  21  29
ATOM     29  O   UNL     1     -35.182  34.366  -1.742  0.00  0.00    -0.384 OA
ATOM     30  H   UNL     1     -34.303  33.981  -1.881  0.00  0.00    +0.210 HD
ENDBRANCH  21  29
ENDBRANCH   4  22
BRANCH  14  31
ATOM     31  O   UNL     1     -33.640  28.658   4.089  0.00  0.00    -0.506 OA
ATOM     32  H   UNL     1     -32.727  28.506   3.934  0.00  0.00    +0.292 HD
ENDBRANCH  14  31
BRANCH  15  33
ATOM     33  O   UNL     1     -37.295  25.912   0.992  0.00  0.00    -0.506 OA
ATOM     34  H   UNL     1     -38.155  25.725   1.312  0.00  0.00    +0.292 HD
ENDBRANCH  15  33
BRANCH  10  35
ATOM     35  C   UNL     1     -35.147  22.417   4.189  0.00  0.00    +0.139 C 
BRANCH  35  37
ATOM     36  O   UNL     1     -35.925  22.497   6.498  0.00  0.00    -0.250 OA
ATOM     37  C   UNL     1     -35.451  21.874   5.560  0.00  0.00    +0.316 C 
BRANCH  37  38
ATOM     38  O   UNL     1     -35.122  20.558   5.619  0.00  0.00    -0.480 OA
ATOM     39  H   UNL     1     -34.391  20.280   6.135  0.00  0.00    +0.295 HD
ENDBRANCH  37  38
ENDBRANCH  35  37
ENDBRANCH  10  35
TORSDOF 8
ENDMDL
MODEL 5
REMARK VINA RESULT:      -6.5      3.577      9.433
REMARK  Name = 21156165
REMARK  8 active torsions:
REMARK  status: ('A' for Active; 'I' for Inactive)
REMARK    1  A    between atoms: C_4  and  C_22
REMARK    2  A    between atoms: C_10  and  C_35
REMARK    3  A    between atoms: C_14  and  O_31
REMARK    4  A    between atoms: C_15  and  O_33
REMARK    5  A    between atoms: C_19  and  N_25
REMARK    6  A    between atoms: C_21  and  O_29
REMARK    7  A    between atoms: C_35  and  C_37
REMARK    8  A    between atoms: C_37  and  O_38
REMARK                            x       y       z     vdW  Elec       q    Type
REMARK                         _______ _______ _______ _____ _____    ______ ____
ROOT
ATOM      1  O   UNL     1     -31.551  27.976   4.321  0.00  0.00    -0.353 OA
ATOM      2  O   UNL     1     -34.520  23.687   0.449  0.00  0.00    -0.287 OA
ATOM      3  O   UNL     1     -36.313  22.941   5.427  0.00  0.00    -0.286 OA
ATOM      4  C   UNL     1     -35.900  22.445   1.918  0.00  0.00    +0.047 C 
ATOM      5  C   UNL     1     -33.102  26.267   3.446  0.00  0.00    +0.037 A 
ATOM      6  C   UNL     1     -33.581  26.078   4.753  0.00  0.00    +0.015 A 
ATOM      7  C   UNL     1     -34.468  24.398   2.691  0.00  0.00    +0.078 A 
ATOM      8  C   UNL     1     -34.928  23.524   1.592  0.00  0.00    +0.197 C 
ATOM      9  C   UNL     1     -33.067  26.939   5.875  0.00  0.00    +0.059 C 
ATOM     10  C   UNL     1     -32.514  28.260   5.338  0.00  0.00    +0.131 C 
ATOM     11  C   UNL     1     -32.114  27.375   3.143  0.00  0.00    +0.140 C 
ATOM     12  C   UNL     1     -34.934  24.210   3.991  0.00  0.00    +0.078 A 
ATOM     13  C   UNL     1     -36.336  22.278   3.172  0.00  0.00    +0.043 C 
ATOM     14  C   UNL     1     -33.552  25.421   2.420  0.00  0.00    +0.135 A 
ATOM     15  C   UNL     1     -34.487  25.044   5.022  0.00  0.00    +0.133 A 
ATOM     16  C   UNL     1     -35.892  23.132   4.292  0.00  0.00    +0.199 C 
ATOM     17  C   UNL     1     -32.707  28.463   2.246  0.00  0.00    +0.037 C 
ENDROOT
BRANCH   4  22
ATOM     18  O   UNL     1     -35.398  20.522   0.645  0.00  0.00    -0.352 OA
ATOM     19  C   UNL     1     -38.193  20.011  -0.000  0.00  0.00    -0.026 C 
ATOM     20  C   UNL     1     -37.741  21.001   1.083  0.00  0.00    +0.016 C 
ATOM     21  C   UNL     1     -37.076  19.001  -0.311  0.00  0.00    +0.119 C 
ATOM     22  C   UNL     1     -36.352  21.575   0.791  0.00  0.00    +0.139 C 
ATOM     23  C   UNL     1     -35.663  19.599  -0.417  0.00  0.00    +0.140 C 
ATOM     24  C   UNL     1     -35.331  20.211  -1.774  0.00  0.00    +0.035 C 
BRANCH  19  25
ATOM     25  N   UNL     1     -38.638  20.730  -1.194  0.00  0.00    +0.387 N 
ATOM     26  C   UNL     1     -39.039  19.787  -2.235  0.00  0.00    -0.101 C 
ATOM     27  C   UNL     1     -39.741  21.630  -0.863  0.00  0.00    -0.101 C 
ATOM     28  H   UNL     1     -37.861  21.289  -1.546  0.00  0.00    -0.080 HD
ENDBRANCH  19  25
BRANCH  21  29
ATOM     29  O   UNL     1     -37.063  18.033   0.750  0.00  0.00    -0.384 OA
ATOM     30  H   UNL     1     -36.591  17.238   0.456  0.00  0.00    +0.210 HD
ENDBRANCH  21  29
ENDBRANCH   4  22
BRANCH  14  31
ATOM     31  O   UNL     1     -33.048  25.599   1.163  0.00  0.00    -0.506 OA
ATOM     32  H   UNL     1     -32.236  26.052   1.043  0.00  0.00    +0.292 HD
ENDBRANCH  14  31
BRANCH  15  33
ATOM     33  O   UNL     1     -34.908  24.870   6.310  0.00  0.00    -0.506 OA
ATOM     34  H   UNL     1     -35.807  25.011   6.532  0.00  0.00    +0.292 HD
ENDBRANCH  15  33
BRANCH  10  35
ATOM     35  C   UNL     1     -31.812  29.045   6.438  0.00  0.00    +0.139 C 
BRANCH  35  37
ATOM     36  O   UNL     1     -29.519  29.755   6.013  0.00  0.00    -0.250 OA
ATOM     37  C   UNL     1     -30.315  28.897   6.363  0.00  0.00    +0.316 C 
BRANCH  37  38
ATOM     38  O   UNL     1     -29.955  27.647   6.750  0.00  0.00    -0.480 OA
ATOM     39  H   UNL     1     -29.275  27.192   6.294  0.00  0.00    +0.295 HD
ENDBRANCH  37  38
ENDBRANCH  35  37
ENDBRANCH  10  35
TORSDOF 8
ENDMDL
MODEL 6
REMARK VINA RESULT:      -6.4      4.100     11.184
REMARK  Name = 21156165
REMARK  8 active torsions:
REMARK  status: ('A' for Active; 'I' for Inactive)
REMARK    1  A    between atoms: C_4  and  C_22
REMARK    2  A    between atoms: C_10  and  C_35
REMARK    3  A    between atoms: C_14  and  O_31
REMARK    4  A    between atoms: C_15  and  O_33
REMARK    5  A    between atoms: C_19  and  N_25
REMARK    6  A    between atoms: C_21  and  O_29
REMARK    7  A    between atoms: C_35  and  C_37
REMARK    8  A    between atoms: C_37  and  O_38
REMARK                            x       y       z     vdW  Elec       q    Type
REMARK                         _______ _______ _______ _____ _____    ______ ____
ROOT
ATOM      1  O   UNL     1     -36.170  23.654   4.941  0.00  0.00    -0.353 OA
ATOM      2  O   UNL     1     -39.675  20.577   0.418  0.00  0.00    -0.287 OA
ATOM      3  O   UNL     1     -41.404  25.625   0.702  0.00  0.00    -0.286 OA
ATOM      4  C   UNL     1     -41.202  22.220  -0.342  0.00  0.00    +0.047 C 
ATOM      5  C   UNL     1     -37.702  23.175   3.067  0.00  0.00    +0.037 A 
ATOM      6  C   UNL     1     -38.150  24.505   3.134  0.00  0.00    +0.015 A 
ATOM      7  C   UNL     1     -39.412  22.700   1.399  0.00  0.00    +0.078 A 
ATOM      8  C   UNL     1     -40.064  21.737   0.487  0.00  0.00    +0.197 C 
ATOM      9  C   UNL     1     -37.514  25.465   4.104  0.00  0.00    +0.059 C 
ATOM     10  C   UNL     1     -36.106  25.005   4.480  0.00  0.00    +0.131 C 
ATOM     11  C   UNL     1     -36.540  22.712   3.921  0.00  0.00    +0.140 C 
ATOM     12  C   UNL     1     -39.857  24.018   1.476  0.00  0.00    +0.078 A 
ATOM     13  C   UNL     1     -41.617  23.489  -0.254  0.00  0.00    +0.043 C 
ATOM     14  C   UNL     1     -38.340  22.278   2.195  0.00  0.00    +0.135 A 
ATOM     15  C   UNL     1     -39.232  24.918   2.346  0.00  0.00    +0.133 A 
ATOM     16  C   UNL     1     -40.989  24.473   0.649  0.00  0.00    +0.199 C 
ATOM     17  C   UNL     1     -35.309  22.346   3.091  0.00  0.00    +0.037 C 
ENDROOT
BRANCH   4  22
ATOM     18  O   UNL     1     -42.612  20.330  -0.455  0.00  0.00    -0.352 OA
ATOM     19  C   UNL     1     -43.508  20.950  -3.157  0.00  0.00    -0.026 C 
ATOM     20  C   UNL     1     -42.742  21.941  -2.270  0.00  0.00    +0.016 C 
ATOM     21  C   UNL     1     -44.162  19.852  -2.302  0.00  0.00    +0.119 C 
ATOM     22  C   UNL     1     -41.844  21.228  -1.257  0.00  0.00    +0.139 C 
ATOM     23  C   UNL     1     -43.282  19.289  -1.173  0.00  0.00    +0.140 C 
ATOM     24  C   UNL     1     -42.303  18.205  -1.611  0.00  0.00    +0.035 C 
BRANCH  19  25
ATOM     25  N   UNL     1     -42.627  20.398  -4.185  0.00  0.00    +0.387 N 
ATOM     26  C   UNL     1     -43.349  19.433  -5.010  0.00  0.00    -0.101 C 
ATOM     27  C   UNL     1     -42.077  21.471  -5.012  0.00  0.00    -0.101 C 
ATOM     28  H   UNL     1     -41.853  19.916  -3.727  0.00  0.00    -0.080 HD
ENDBRANCH  19  25
BRANCH  21  29
ATOM     29  O   UNL     1     -45.337  20.418  -1.697  0.00  0.00    -0.384 OA
ATOM     30  H   UNL     1     -45.107  20.791  -0.832  0.00  0.00    +0.210 HD
ENDBRANCH  21  29
ENDBRANCH   4  22
BRANCH  14  31
ATOM     31  O   UNL     1     -37.913  20.981   2.170  0.00  0.00    -0.506 OA
ATOM     32  H   UNL     1     -38.083  20.417   2.899  0.00  0.00    +0.292 HD
ENDBRANCH  14  31
BRANCH  15  33
ATOM     33  O   UNL     1     -39.660  26.211   2.459  0.00  0.00    -0.506 OA
ATOM     34  H   UNL     1     -40.578  26.399   2.486  0.00  0.00    +0.292 HD
ENDBRANCH  15  33
BRANCH  10  35
ATOM     35  C   UNL     1     -35.537  25.856   5.607  0.00  0.00    +0.139 C 
BRANCH  35  37
ATOM     36  O   UNL     1     -33.385  26.939   5.979  0.00  0.00    -0.250 OA
ATOM     37  C   UNL     1     -34.051  26.055   5.462  0.00  0.00    +0.316 C 
BRANCH  37  38
ATOM     38  O   UNL     1     -33.532  25.091   4.660  0.00  0.00    -0.480 OA
ATOM     39  H   UNL     1     -32.922  25.319   3.987  0.00  0.00    +0.295 HD
ENDBRANCH  37  38
ENDBRANCH  35  37
ENDBRANCH  10  35
TORSDOF 8
ENDMDL
MODEL 7
REMARK VINA RESULT:      -6.3      2.885      3.559
REMARK  Name = 21156165
REMARK  8 active torsions:
REMARK  status: ('A' for Active; 'I' for Inactive)
REMARK    1  A    between atoms: C_4  and  C_22
REMARK    2  A    between atoms: C_10  and  C_35
REMARK    3  A    between atoms: C_14  and  O_31
REMARK    4  A    between atoms: C_15  and  O_33
REMARK    5  A    between atoms: C_19  and  N_25
REMARK    6  A    between atoms: C_21  and  O_29
REMARK    7  A    between atoms: C_35  and  C_37
REMARK    8  A    between atoms: C_37  and  O_38
REMARK                            x       y       z     vdW  Elec       q    Type
REMARK                         _______ _______ _______ _____ _____    ______ ____
ROOT
ATOM      1  O   UNL     1     -35.870  21.686  -0.145  0.00  0.00    -0.353 OA
ATOM      2  O   UNL     1     -32.290  26.579   2.190  0.00  0.00    -0.287 OA
ATOM      3  O   UNL     1     -35.759  25.110   5.980  0.00  0.00    -0.286 OA
ATOM      4  C   UNL     1     -33.161  26.943   4.362  0.00  0.00    +0.047 C 
ATOM      5  C   UNL     1     -34.822  23.326   1.372  0.00  0.00    +0.037 A 
ATOM      6  C   UNL     1     -35.727  22.934   2.371  0.00  0.00    +0.015 A 
ATOM      7  C   UNL     1     -34.004  25.098   2.829  0.00  0.00    +0.078 A 
ATOM      8  C   UNL     1     -33.087  26.234   3.055  0.00  0.00    +0.197 C 
ATOM      9  C   UNL     1     -36.693  21.809   2.113  0.00  0.00    +0.059 C 
ATOM     10  C   UNL     1     -36.176  20.892   1.004  0.00  0.00    +0.131 C 
ATOM     11  C   UNL     1     -34.767  22.586   0.051  0.00  0.00    +0.140 C 
ATOM     12  C   UNL     1     -34.909  24.709   3.814  0.00  0.00    +0.078 A 
ATOM     13  C   UNL     1     -34.037  26.556   5.296  0.00  0.00    +0.043 C 
ATOM     14  C   UNL     1     -33.962  24.411   1.610  0.00  0.00    +0.135 A 
ATOM     15  C   UNL     1     -35.774  23.633   3.584  0.00  0.00    +0.133 A 
ATOM     16  C   UNL     1     -34.969  25.428   5.099  0.00  0.00    +0.199 C 
ATOM     17  C   UNL     1     -33.450  21.833  -0.147  0.00  0.00    +0.037 C 
ENDROOT
BRANCH   4  22
ATOM     18  O   UNL     1     -32.926  29.288   4.246  0.00  0.00    -0.352 OA
ATOM     19  C   UNL     1     -30.859  29.352   6.299  0.00  0.00    -0.026 C 
ATOM     20  C   UNL     1     -31.737  28.125   6.018  0.00  0.00    +0.016 C 
ATOM     21  C   UNL     1     -31.524  30.629   5.758  0.00  0.00    +0.119 C 
ATOM     22  C   UNL     1     -32.223  28.087   4.568  0.00  0.00    +0.139 C 
ATOM     23  C   UNL     1     -32.162  30.493   4.365  0.00  0.00    +0.140 C 
ATOM     24  C   UNL     1     -31.188  30.645   3.201  0.00  0.00    +0.035 C 
BRANCH  19  25
ATOM     25  N   UNL     1     -29.516  29.154   5.756  0.00  0.00    +0.387 N 
ATOM     26  C   UNL     1     -28.700  30.347   5.971  0.00  0.00    -0.101 C 
ATOM     27  C   UNL     1     -28.888  27.985   6.367  0.00  0.00    -0.101 C 
ATOM     28  H   UNL     1     -29.592  28.992   4.752  0.00  0.00    -0.080 HD
ENDBRANCH  19  25
BRANCH  21  29
ATOM     29  O   UNL     1     -32.563  30.999   6.679  0.00  0.00    -0.384 OA
ATOM     30  H   UNL     1     -33.083  31.726   6.304  0.00  0.00    +0.210 HD
ENDBRANCH  21  29
ENDBRANCH   4  22
BRANCH  14  31
ATOM     31  O   UNL     1     -33.115  24.800   0.612  0.00  0.00    -0.506 OA
ATOM     32  H   UNL     1     -32.582  25.565   0.719  0.00  0.00    +0.292 HD
ENDBRANCH  14  31
BRANCH  15  33
ATOM     33  O   UNL     1     -36.687  23.243   4.523  0.00  0.00    -0.506 OA
ATOM     34  H   UNL     1     -36.578  23.500   5.417  0.00  0.00    +0.292 HD
ENDBRANCH  15  33
BRANCH  10  35
ATOM     35  C   UNL     1     -37.235  19.875   0.599  0.00  0.00    +0.139 C 
BRANCH  35  37
ATOM     36  O   UNL     1     -35.543  18.483  -0.471  0.00  0.00    -0.250 OA
ATOM     37  C   UNL     1     -36.618  18.595   0.098  0.00  0.00    +0.316 C 
BRANCH  37  38
ATOM     38  O   UNL     1     -37.438  17.549   0.375  0.00  0.00    -0.480 OA
ATOM     39  H   UNL     1     -37.771  17.018  -0.321  0.00  0.00    +0.295 HD
ENDBRANCH  37  38
ENDBRANCH  35  37
ENDBRANCH  10  35
TORSDOF 8
ENDMDL
MODEL 8
REMARK VINA RESULT:      -6.3      5.391      9.170
REMARK  Name = 21156165
REMARK  8 active torsions:
REMARK  status: ('A' for Active; 'I' for Inactive)
REMARK    1  A    between atoms: C_4  and  C_22
REMARK    2  A    between atoms: C_10  and  C_35
REMARK    3  A    between atoms: C_14  and  O_31
REMARK    4  A    between atoms: C_15  and  O_33
REMARK    5  A    between atoms: C_19  and  N_25
REMARK    6  A    between atoms: C_21  and  O_29
REMARK    7  A    between atoms: C_35  and  C_37
REMARK    8  A    between atoms: C_37  and  O_38
REMARK                            x       y       z     vdW  Elec       q    Type
REMARK                         _______ _______ _______ _____ _____    ______ ____
ROOT
ATOM      1  O   UNL     1     -36.218  23.548   1.905  0.00  0.00    -0.353 OA
ATOM      2  O   UNL     1     -41.162  27.346   3.734  0.00  0.00    -0.287 OA
ATOM      3  O   UNL     1     -43.014  23.814   0.178  0.00  0.00    -0.286 OA
ATOM      4  C   UNL     1     -42.996  26.553   2.463  0.00  0.00    +0.047 C 
ATOM      5  C   UNL     1     -38.481  24.467   2.256  0.00  0.00    +0.037 A 
ATOM      6  C   UNL     1     -38.971  23.533   1.329  0.00  0.00    +0.015 A 
ATOM      7  C   UNL     1     -40.687  25.493   2.363  0.00  0.00    +0.078 A 
ATOM      8  C   UNL     1     -41.580  26.531   2.920  0.00  0.00    +0.197 C 
ATOM      9  C   UNL     1     -38.042  22.512   0.727  0.00  0.00    +0.059 C 
ATOM     10  C   UNL     1     -36.827  22.285   1.627  0.00  0.00    +0.131 C 
ATOM     11  C   UNL     1     -37.035  24.420   2.704  0.00  0.00    +0.140 C 
ATOM     12  C   UNL     1     -41.165  24.568   1.437  0.00  0.00    +0.078 A 
ATOM     13  C   UNL     1     -43.438  25.657   1.573  0.00  0.00    +0.043 C 
ATOM     14  C   UNL     1     -39.349  25.445   2.769  0.00  0.00    +0.135 A 
ATOM     15  C   UNL     1     -40.308  23.593   0.916  0.00  0.00    +0.133 A 
ATOM     16  C   UNL     1     -42.570  24.611   0.995  0.00  0.00    +0.199 C 
ATOM     17  C   UNL     1     -36.888  24.049   4.181  0.00  0.00    +0.037 C 
ENDROOT
BRANCH   4  22
ATOM     18  O   UNL     1     -43.935  27.405   4.454  0.00  0.00    -0.352 OA
ATOM     19  C   UNL     1     -44.142  30.113   3.397  0.00  0.00    -0.026 C 
ATOM     20  C   UNL     1     -43.325  29.001   2.725  0.00  0.00    +0.016 C 
ATOM     21  C   UNL     1     -44.386  29.785   4.879  0.00  0.00    +0.119 C 
ATOM     22  C   UNL     1     -43.880  27.610   3.042  0.00  0.00    +0.139 C 
ATOM     23  C   UNL     1     -44.766  28.323   5.173  0.00  0.00    +0.140 C 
ATOM     24  C   UNL     1     -46.243  27.998   4.976  0.00  0.00    +0.035 C 
BRANCH  19  25
ATOM     25  N   UNL     1     -45.390  30.341   2.668  0.00  0.00    +0.387 N 
ATOM     26  C   UNL     1     -46.173  31.390   3.317  0.00  0.00    -0.101 C 
ATOM     27  C   UNL     1     -45.109  30.695   1.278  0.00  0.00    -0.101 C 
ATOM     28  H   UNL     1     -45.935  29.478   2.677  0.00  0.00    -0.080 HD
ENDBRANCH  19  25
BRANCH  21  29
ATOM     29  O   UNL     1     -43.171  30.071   5.590  0.00  0.00    -0.384 OA
ATOM     30  H   UNL     1     -43.070  31.031   5.684  0.00  0.00    +0.210 HD
ENDBRANCH  21  29
ENDBRANCH   4  22
BRANCH  14  31
ATOM     31  O   UNL     1     -38.845  26.367   3.642  0.00  0.00    -0.506 OA
ATOM     32  H   UNL     1     -39.221  27.225   3.687  0.00  0.00    +0.292 HD
ENDBRANCH  14  31
BRANCH  15  33
ATOM     33  O   UNL     1     -40.742  22.686  -0.011  0.00  0.00    -0.506 OA
ATOM     34  H   UNL     1     -41.449  22.108   0.196  0.00  0.00    +0.292 HD
ENDBRANCH  15  33
BRANCH  10  35
ATOM     35  C   UNL     1     -35.790  21.411   0.933  0.00  0.00    +0.139 C 
BRANCH  35  37
ATOM     36  O   UNL     1     -34.384  19.597   1.755  0.00  0.00    -0.250 OA
ATOM     37  C   UNL     1     -35.451  20.192   1.750  0.00  0.00    +0.316 C 
BRANCH  37  38
ATOM     38  O   UNL     1     -36.519  19.831   2.506  0.00  0.00    -0.480 OA
ATOM     39  H   UNL     1     -37.389  19.984   2.193  0.00  0.00    +0.295 HD
ENDBRANCH  37  38
ENDBRANCH  35  37
ENDBRANCH  10  35
TORSDOF 8
ENDMDL
MODEL 9
REMARK VINA RESULT:      -6.2      5.117      9.694
REMARK  Name = 21156165
REMARK  8 active torsions:
REMARK  status: ('A' for Active; 'I' for Inactive)
REMARK    1  A    between atoms: C_4  and  C_22
REMARK    2  A    between atoms: C_10  and  C_35
REMARK    3  A    between atoms: C_14  and  O_31
REMARK    4  A    between atoms: C_15  and  O_33
REMARK    5  A    between atoms: C_19  and  N_25
REMARK    6  A    between atoms: C_21  and  O_29
REMARK    7  A    between atoms: C_35  and  C_37
REMARK    8  A    between atoms: C_37  and  O_38
REMARK                            x       y       z     vdW  Elec       q    Type
REMARK                         _______ _______ _______ _____ _____    ______ ____
ROOT
ATOM      1  O   UNL     1     -35.553  23.747   2.288  0.00  0.00    -0.353 OA
ATOM      2  O   UNL     1     -40.943  27.173   3.474  0.00  0.00    -0.287 OA
ATOM      3  O   UNL     1     -42.165  23.324  -0.024  0.00  0.00    -0.286 OA
ATOM      4  C   UNL     1     -42.583  26.160   2.098  0.00  0.00    +0.047 C 
ATOM      5  C   UNL     1     -37.908  24.477   2.393  0.00  0.00    +0.037 A 
ATOM      6  C   UNL     1     -38.231  23.459   1.481  0.00  0.00    +0.015 A 
ATOM      7  C   UNL     1     -40.193  25.307   2.254  0.00  0.00    +0.078 A 
ATOM      8  C   UNL     1     -41.217  26.286   2.675  0.00  0.00    +0.197 C 
ATOM      9  C   UNL     1     -37.169  22.498   1.018  0.00  0.00    +0.059 C 
ATOM     10  C   UNL     1     -36.025  22.423   2.029  0.00  0.00    +0.131 C 
ATOM     11  C   UNL     1     -36.509  24.580   2.964  0.00  0.00    +0.140 C 
ATOM     12  C   UNL     1     -40.506  24.299   1.344  0.00  0.00    +0.078 A 
ATOM     13  C   UNL     1     -42.866  25.187   1.224  0.00  0.00    +0.043 C 
ATOM     14  C   UNL     1     -38.897  25.398   2.774  0.00  0.00    +0.135 A 
ATOM     15  C   UNL     1     -39.526  23.380   0.952  0.00  0.00    +0.133 A 
ATOM     16  C   UNL     1     -41.865  24.196   0.782  0.00  0.00    +0.199 C 
ATOM     17  C   UNL     1     -36.464  24.295   4.466  0.00  0.00    +0.037 C 
ENDROOT
BRANCH   4  22
ATOM     18  O   UNL     1     -43.960  27.946   1.402  0.00  0.00    -0.352 OA
ATOM     19  C   UNL     1     -45.948  27.445   3.472  0.00  0.00    -0.026 C 
ATOM     20  C   UNL     1     -44.832  26.455   3.111  0.00  0.00    +0.016 C 
ATOM     21  C   UNL     1     -46.188  28.433   2.319  0.00  0.00    +0.119 C 
ATOM     22  C   UNL     1     -43.601  27.161   2.540  0.00  0.00    +0.139 C 
ATOM     23  C   UNL     1     -44.916  28.982   1.651  0.00  0.00    +0.140 C 
ATOM     24  C   UNL     1     -44.275  30.161   2.376  0.00  0.00    +0.035 C 
BRANCH  19  25
ATOM     25  N   UNL     1     -45.639  28.125   4.729  0.00  0.00    +0.387 N 
ATOM     26  C   UNL     1     -46.670  29.113   5.039  0.00  0.00    -0.101 C 
ATOM     27  C   UNL     1     -45.514  27.155   5.815  0.00  0.00    -0.101 C 
ATOM     28  H   UNL     1     -44.747  28.610   4.626  0.00  0.00    -0.080 HD
ENDBRANCH  19  25
BRANCH  21  29
ATOM     29  O   UNL     1     -46.948  27.745   1.312  0.00  0.00    -0.384 OA
ATOM     30  H   UNL     1     -47.894  27.907   1.454  0.00  0.00    +0.210 HD
ENDBRANCH  21  29
ENDBRANCH   4  22
BRANCH  14  31
ATOM     31  O   UNL     1     -38.553  26.402   3.635  0.00  0.00    -0.506 OA
ATOM     32  H   UNL     1     -37.662  26.688   3.690  0.00  0.00    +0.292 HD
ENDBRANCH  14  31
BRANCH  15  33
ATOM     33  O   UNL     1     -39.797  22.395   0.044  0.00  0.00    -0.506 OA
ATOM     34  H   UNL     1     -40.212  21.603   0.323  0.00  0.00    +0.292 HD
ENDBRANCH  15  33
BRANCH  10  35
ATOM     35  C   UNL     1     -34.860  21.613   1.476  0.00  0.00    +0.139 C 
BRANCH  35  37
ATOM     36  O   UNL     1     -34.033  19.337   1.760  0.00  0.00    -0.250 OA
ATOM     37  C   UNL     1     -34.835  20.215   2.039  0.00  0.00    +0.316 C 
BRANCH  37  38
ATOM     38  O   UNL     1     -35.851  20.057   2.926  0.00  0.00    -0.480 OA
ATOM     39  H   UNL     1     -36.478  20.742   3.048  0.00  0.00    +0.295 HD
ENDBRANCH  37  38
ENDBRANCH  35  37
ENDBRANCH  10  35
TORSDOF 8
ENDMDL
