MODEL 1
REMARK VINA RESULT:      -6.8      0.000      0.000
REMARK  Name = 5492434
REMARK  6 active torsions:
REMARK  status: ('A' for Active; 'I' for Inactive)
REMARK    1  A    between atoms: C_3  and  C_12
REMARK    2  A    between atoms: C_8  and  O_24
REMARK    3  A    between atoms: C_11  and  O_26
REMARK    4  A    between atoms: C_13  and  O_22
REMARK    5  A    between atoms: C_15  and  O_18
REMARK    6  A    between atoms: C_16  and  O_20
REMARK                            x       y       z     vdW  Elec       q    Type
REMARK                         _______ _______ _______ _____ _____    ______ ____
ROOT
ATOM      1  O   UNL     1     -34.796  23.664   1.395  0.00  0.00    -0.450 OA
ATOM      2  O   UNL     1     -35.412  20.536   3.942  0.00  0.00    -0.286 OA
ATOM      3  C   UNL     1     -34.843  21.261   1.746  0.00  0.00    +0.080 C 
ATOM      4  C   UNL     1     -35.418  22.866   3.601  0.00  0.00    +0.107 C 
ATOM      5  C   UNL     1     -35.244  21.468   3.165  0.00  0.00    +0.205 C 
ATOM      6  C   UNL     1     -35.184  23.895   2.690  0.00  0.00    +0.154 C 
ATOM      7  C   UNL     1     -34.658  22.357   0.994  0.00  0.00    +0.183 C 
ATOM      8  C   UNL     1     -35.811  23.161   4.909  0.00  0.00    +0.143 C 
ATOM      9  C   UNL     1     -35.338  25.225   3.083  0.00  0.00    +0.074 C 
ATOM     10  C   UNL     1     -35.965  24.492   5.299  0.00  0.00    +0.073 C 
ATOM     11  C   UNL     1     -35.729  25.521   4.388  0.00  0.00    +0.140 C 
ENDROOT
BRANCH   3  12
ATOM     12  C   UNL     1     -34.674  19.917   1.172  0.00  0.00    +0.043 C 
ATOM     13  C   UNL     1     -35.678  19.326   0.400  0.00  0.00    +0.137 C 
ATOM     14  C   UNL     1     -33.484  19.222   1.406  0.00  0.00    +0.043 C 
ATOM     15  C   UNL     1     -33.301  17.947   0.873  0.00  0.00    +0.173 C 
ATOM     16  C   UNL     1     -34.306  17.361   0.102  0.00  0.00    +0.175 C 
ATOM     17  C   UNL     1     -35.495  18.051  -0.134  0.00  0.00    +0.077 C 
BRANCH  15  18
ATOM     18  O   UNL     1     -32.135  17.283   1.110  0.00  0.00    -0.468 OA
ATOM     19  C   UNL     1     -30.929  17.920   0.692  0.00  0.00    +0.253 C 
ENDBRANCH  15  18
BRANCH  16  20
ATOM     20  O   UNL     1     -34.138  16.116  -0.425  0.00  0.00    -0.468 OA
ATOM     21  C   UNL     1     -35.273  15.253  -0.423  0.00  0.00    +0.253 C 
ENDBRANCH  16  20
BRANCH  13  22
ATOM     22  O   UNL     1     -36.850  19.979   0.154  0.00  0.00    -0.505 OA
ATOM     23  H   UNL     1     -36.933  20.524  -0.604  0.00  0.00    +0.292 HD
ENDBRANCH  13  22
ENDBRANCH   3  12
BRANCH   8  24
ATOM     24  O   UNL     1     -36.054  22.195   5.839  0.00  0.00    -0.505 OA
ATOM     25  H   UNL     1     -35.423  21.518   5.987  0.00  0.00    +0.292 HD
ENDBRANCH   8  24
BRANCH  11  26
ATOM     26  O   UNL     1     -35.881  26.818   4.773  0.00  0.00    -0.505 OA
ATOM     27  H   UNL     1     -35.129  27.337   4.982  0.00  0.00    +0.292 HD
ENDBRANCH  11  26
TORSDOF 6
ENDMDL
MODEL 2
REMARK VINA RESULT:      -6.3      3.628      6.242
REMARK  Name = 5492434
REMARK  6 active torsions:
REMARK  status: ('A' for Active; 'I' for Inactive)
REMARK    1  A    between atoms: C_3  and  C_12
REMARK    2  A    between atoms: C_8  and  O_24
REMARK    3  A    between atoms: C_11  and  O_26
REMARK    4  A    between atoms: C_13  and  O_22
REMARK    5  A    between atoms: C_15  and  O_18
REMARK    6  A    between atoms: C_16  and  O_20
REMARK                            x       y       z     vdW  Elec       q    Type
REMARK                         _______ _______ _______ _____ _____    ______ ____
ROOT
ATOM      1  O   UNL     1     -34.954  25.371   6.240  0.00  0.00    -0.450 OA
ATOM      2  O   UNL     1     -35.526  26.460   2.349  0.00  0.00    -0.286 OA
ATOM      3  C   UNL     1     -36.212  25.101   4.180  0.00  0.00    +0.080 C 
ATOM      4  C   UNL     1     -34.268  26.695   4.325  0.00  0.00    +0.107 C 
ATOM      5  C   UNL     1     -35.350  26.113   3.510  0.00  0.00    +0.205 C 
ATOM      6  C   UNL     1     -34.127  26.293   5.653  0.00  0.00    +0.154 C 
ATOM      7  C   UNL     1     -35.945  24.819   5.465  0.00  0.00    +0.183 C 
ATOM      8  C   UNL     1     -33.395  27.640   3.780  0.00  0.00    +0.143 C 
ATOM      9  C   UNL     1     -33.112  26.835   6.443  0.00  0.00    +0.074 C 
ATOM     10  C   UNL     1     -32.381  28.179   4.572  0.00  0.00    +0.073 C 
ATOM     11  C   UNL     1     -32.240  27.778   5.900  0.00  0.00    +0.140 C 
ENDROOT
BRANCH   3  12
ATOM     12  C   UNL     1     -37.303  24.413   3.469  0.00  0.00    +0.043 C 
ATOM     13  C   UNL     1     -38.525  25.048   3.230  0.00  0.00    +0.137 C 
ATOM     14  C   UNL     1     -37.108  23.102   3.029  0.00  0.00    +0.043 C 
ATOM     15  C   UNL     1     -38.127  22.430   2.354  0.00  0.00    +0.173 C 
ATOM     16  C   UNL     1     -39.345  23.068   2.116  0.00  0.00    +0.175 C 
ATOM     17  C   UNL     1     -39.544  24.377   2.555  0.00  0.00    +0.077 C 
BRANCH  15  18
ATOM     18  O   UNL     1     -37.921  21.151   1.931  0.00  0.00    -0.468 OA
ATOM     19  C   UNL     1     -36.591  20.643   2.030  0.00  0.00    +0.253 C 
ENDBRANCH  15  18
BRANCH  16  20
ATOM     20  O   UNL     1     -40.347  22.422   1.458  0.00  0.00    -0.468 OA
ATOM     21  C   UNL     1     -40.499  22.706   0.069  0.00  0.00    +0.253 C 
ENDBRANCH  16  20
BRANCH  13  22
ATOM     22  O   UNL     1     -38.745  26.327   3.647  0.00  0.00    -0.505 OA
ATOM     23  H   UNL     1     -39.439  26.831   3.269  0.00  0.00    +0.292 HD
ENDBRANCH  13  22
ENDBRANCH   3  12
BRANCH   8  24
ATOM     24  O   UNL     1     -33.487  28.067   2.489  0.00  0.00    -0.505 OA
ATOM     25  H   UNL     1     -32.736  28.428   2.061  0.00  0.00    +0.292 HD
ENDBRANCH   8  24
BRANCH  11  26
ATOM     26  O   UNL     1     -31.249  28.308   6.669  0.00  0.00    -0.505 OA
ATOM     27  H   UNL     1     -31.344  29.168   7.032  0.00  0.00    +0.292 HD
ENDBRANCH  11  26
TORSDOF 6
ENDMDL
MODEL 3
REMARK VINA RESULT:      -6.1      1.509      2.662
REMARK  Name = 5492434
REMARK  6 active torsions:
REMARK  status: ('A' for Active; 'I' for Inactive)
REMARK    1  A    between atoms: C_3  and  C_12
REMARK    2  A    between atoms: C_8  and  O_24
REMARK    3  A    between atoms: C_11  and  O_26
REMARK    4  A    between atoms: C_13  and  O_22
REMARK    5  A    between atoms: C_15  and  O_18
REMARK    6  A    between atoms: C_16  and  O_20
REMARK                            x       y       z     vdW  Elec       q    Type
REMARK                         _______ _______ _______ _____ _____    ______ ____
ROOT
ATOM      1  O   UNL     1     -36.558  23.737   1.581  0.00  0.00    -0.450 OA
ATOM      2  O   UNL     1     -35.211  20.553   3.748  0.00  0.00    -0.286 OA
ATOM      3  C   UNL     1     -35.976  21.380   1.651  0.00  0.00    +0.080 C 
ATOM      4  C   UNL     1     -35.820  22.827   3.706  0.00  0.00    +0.107 C 
ATOM      5  C   UNL     1     -35.635  21.498   3.095  0.00  0.00    +0.205 C 
ATOM      6  C   UNL     1     -36.273  23.881   2.914  0.00  0.00    +0.154 C 
ATOM      7  C   UNL     1     -36.403  22.489   1.027  0.00  0.00    +0.183 C 
ATOM      8  C   UNL     1     -35.544  23.033   5.061  0.00  0.00    +0.143 C 
ATOM      9  C   UNL     1     -36.451  25.148   3.471  0.00  0.00    +0.074 C 
ATOM     10  C   UNL     1     -35.724  24.301   5.615  0.00  0.00    +0.073 C 
ATOM     11  C   UNL     1     -36.176  25.356   4.823  0.00  0.00    +0.140 C 
ENDROOT
BRANCH   3  12
ATOM     12  C   UNL     1     -35.874  20.102   0.928  0.00  0.00    +0.043 C 
ATOM     13  C   UNL     1     -34.632  19.534   0.632  0.00  0.00    +0.137 C 
ATOM     14  C   UNL     1     -37.044  19.448   0.533  0.00  0.00    +0.043 C 
ATOM     15  C   UNL     1     -36.973  18.236  -0.154  0.00  0.00    +0.173 C 
ATOM     16  C   UNL     1     -35.731  17.673  -0.447  0.00  0.00    +0.175 C 
ATOM     17  C   UNL     1     -34.560  18.322  -0.054  0.00  0.00    +0.077 C 
BRANCH  15  18
ATOM     18  O   UNL     1     -38.123  17.612  -0.532  0.00  0.00    -0.468 OA
ATOM     19  C   UNL     1     -38.958  18.300  -1.463  0.00  0.00    +0.253 C 
ENDBRANCH  15  18
BRANCH  16  20
ATOM     20  O   UNL     1     -35.648  16.489  -1.116  0.00  0.00    -0.468 OA
ATOM     21  C   UNL     1     -35.201  15.355  -0.376  0.00  0.00    +0.253 C 
ENDBRANCH  16  20
BRANCH  13  22
ATOM     22  O   UNL     1     -33.473  20.147   1.004  0.00  0.00    -0.505 OA
ATOM     23  H   UNL     1     -33.352  21.062   0.838  0.00  0.00    +0.292 HD
ENDBRANCH  13  22
ENDBRANCH   3  12
BRANCH   8  24
ATOM     24  O   UNL     1     -35.100  22.040   5.880  0.00  0.00    -0.505 OA
ATOM     25  H   UNL     1     -34.181  21.922   6.017  0.00  0.00    +0.292 HD
ENDBRANCH   8  24
BRANCH  11  26
ATOM     26  O   UNL     1     -36.350  26.591   5.369  0.00  0.00    -0.505 OA
ATOM     27  H   UNL     1     -35.605  27.126   5.567  0.00  0.00    +0.292 HD
ENDBRANCH  11  26
TORSDOF 6
ENDMDL
MODEL 4
REMARK VINA RESULT:      -6.0      0.997      2.130
REMARK  Name = 5492434
REMARK  6 active torsions:
REMARK  status: ('A' for Active; 'I' for Inactive)
REMARK    1  A    between atoms: C_3  and  C_12
REMARK    2  A    between atoms: C_8  and  O_24
REMARK    3  A    between atoms: C_11  and  O_26
REMARK    4  A    between atoms: C_13  and  O_22
REMARK    5  A    between atoms: C_15  and  O_18
REMARK    6  A    between atoms: C_16  and  O_20
REMARK                            x       y       z     vdW  Elec       q    Type
REMARK                         _______ _______ _______ _____ _____    ______ ____
ROOT
ATOM      1  O   UNL     1     -35.597  22.138   4.606  0.00  0.00    -0.450 OA
ATOM      2  O   UNL     1     -35.883  22.710   0.576  0.00  0.00    -0.286 OA
ATOM      3  C   UNL     1     -35.454  21.203   2.368  0.00  0.00    +0.080 C 
ATOM      4  C   UNL     1     -35.976  23.640   2.737  0.00  0.00    +0.107 C 
ATOM      5  C   UNL     1     -35.776  22.534   1.782  0.00  0.00    +0.205 C 
ATOM      6  C   UNL     1     -35.876  23.383   4.104  0.00  0.00    +0.154 C 
ATOM      7  C   UNL     1     -35.392  21.120   3.706  0.00  0.00    +0.183 C 
ATOM      8  C   UNL     1     -36.263  24.929   2.283  0.00  0.00    +0.143 C 
ATOM      9  C   UNL     1     -36.066  24.414   5.024  0.00  0.00    +0.074 C 
ATOM     10  C   UNL     1     -36.451  25.959   3.205  0.00  0.00    +0.073 C 
ATOM     11  C   UNL     1     -36.353  25.702   4.573  0.00  0.00    +0.140 C 
ENDROOT
BRANCH   3  12
ATOM     12  C   UNL     1     -35.193  20.023   1.527  0.00  0.00    +0.043 C 
ATOM     13  C   UNL     1     -36.206  19.443   0.758  0.00  0.00    +0.137 C 
ATOM     14  C   UNL     1     -33.907  19.477   1.501  0.00  0.00    +0.043 C 
ATOM     15  C   UNL     1     -33.636  18.360   0.713  0.00  0.00    +0.173 C 
ATOM     16  C   UNL     1     -34.649  17.785  -0.054  0.00  0.00    +0.175 C 
ATOM     17  C   UNL     1     -35.935  18.326  -0.031  0.00  0.00    +0.077 C 
BRANCH  15  18
ATOM     18  O   UNL     1     -32.377  17.840   0.698  0.00  0.00    -0.468 OA
ATOM     19  C   UNL     1     -31.307  18.740   0.415  0.00  0.00    +0.253 C 
ENDBRANCH  15  18
BRANCH  16  20
ATOM     20  O   UNL     1     -34.396  16.693  -0.829  0.00  0.00    -0.468 OA
ATOM     21  C   UNL     1     -34.914  15.443  -0.378  0.00  0.00    +0.253 C 
ENDBRANCH  16  20
BRANCH  13  22
ATOM     22  O   UNL     1     -37.470  19.954   0.763  0.00  0.00    -0.505 OA
ATOM     23  H   UNL     1     -38.186  19.430   1.065  0.00  0.00    +0.292 HD
ENDBRANCH  13  22
ENDBRANCH   3  12
BRANCH   8  24
ATOM     24  O   UNL     1     -36.371  25.236   0.960  0.00  0.00    -0.505 OA
ATOM     25  H   UNL     1     -36.322  26.129   0.680  0.00  0.00    +0.292 HD
ENDBRANCH   8  24
BRANCH  11  26
ATOM     26  O   UNL     1     -36.538  26.710   5.469  0.00  0.00    -0.505 OA
ATOM     27  H   UNL     1     -37.253  27.308   5.363  0.00  0.00    +0.292 HD
ENDBRANCH  11  26
TORSDOF 6
ENDMDL
MODEL 5
REMARK VINA RESULT:      -6.0      4.405      6.942
REMARK  Name = 5492434
REMARK  6 active torsions:
REMARK  status: ('A' for Active; 'I' for Inactive)
REMARK    1  A    between atoms: C_3  and  C_12
REMARK    2  A    between atoms: C_8  and  O_24
REMARK    3  A    between atoms: C_11  and  O_26
REMARK    4  A    between atoms: C_13  and  O_22
REMARK    5  A    between atoms: C_15  and  O_18
REMARK    6  A    between atoms: C_16  and  O_20
REMARK                            x       y       z     vdW  Elec       q    Type
REMARK                         _______ _______ _______ _____ _____    ______ ____
ROOT
ATOM      1  O   UNL     1     -32.024  28.016   2.787  0.00  0.00    -0.450 OA
ATOM      2  O   UNL     1     -33.730  26.718   6.259  0.00  0.00    -0.286 OA
ATOM      3  C   UNL     1     -33.668  26.602   3.882  0.00  0.00    +0.080 C 
ATOM      4  C   UNL     1     -32.167  28.130   5.207  0.00  0.00    +0.107 C 
ATOM      5  C   UNL     1     -33.238  27.116   5.211  0.00  0.00    +0.205 C 
ATOM      6  C   UNL     1     -31.613  28.528   3.991  0.00  0.00    +0.154 C 
ATOM      7  C   UNL     1     -33.037  27.088   2.802  0.00  0.00    +0.183 C 
ATOM      8  C   UNL     1     -31.708  28.686   6.405  0.00  0.00    +0.143 C 
ATOM      9  C   UNL     1     -30.596  29.483   3.965  0.00  0.00    +0.074 C 
ATOM     10  C   UNL     1     -30.692  29.641   6.375  0.00  0.00    +0.073 C 
ATOM     11  C   UNL     1     -30.137  30.039   5.159  0.00  0.00    +0.140 C 
ENDROOT
BRANCH   3  12
ATOM     12  C   UNL     1     -34.753  25.617   3.741  0.00  0.00    +0.043 C 
ATOM     13  C   UNL     1     -36.010  25.988   3.257  0.00  0.00    +0.137 C 
ATOM     14  C   UNL     1     -34.515  24.287   4.098  0.00  0.00    +0.043 C 
ATOM     15  C   UNL     1     -35.527  23.336   3.974  0.00  0.00    +0.173 C 
ATOM     16  C   UNL     1     -36.781  23.711   3.490  0.00  0.00    +0.175 C 
ATOM     17  C   UNL     1     -37.023  25.038   3.132  0.00  0.00    +0.077 C 
BRANCH  15  18
ATOM     18  O   UNL     1     -35.280  22.044   4.327  0.00  0.00    -0.468 OA
ATOM     19  C   UNL     1     -35.168  21.764   5.721  0.00  0.00    +0.253 C 
ENDBRANCH  15  18
BRANCH  16  20
ATOM     20  O   UNL     1     -37.778  22.791   3.363  0.00  0.00    -0.468 OA
ATOM     21  C   UNL     1     -37.955  22.199   2.078  0.00  0.00    +0.253 C 
ENDBRANCH  16  20
BRANCH  13  22
ATOM     22  O   UNL     1     -36.272  27.278   2.899  0.00  0.00    -0.505 OA
ATOM     23  H   UNL     1     -35.745  27.975   3.239  0.00  0.00    +0.292 HD
ENDBRANCH  13  22
ENDBRANCH   3  12
BRANCH   8  24
ATOM     24  O   UNL     1     -32.214  28.334   7.620  0.00  0.00    -0.505 OA
ATOM     25  H   UNL     1     -33.134  28.402   7.781  0.00  0.00    +0.292 HD
ENDBRANCH   8  24
BRANCH  11  26
ATOM     26  O   UNL     1     -29.145  30.971   5.136  0.00  0.00    -0.505 OA
ATOM     27  H   UNL     1     -29.232  31.737   4.602  0.00  0.00    +0.292 HD
ENDBRANCH  11  26
TORSDOF 6
ENDMDL
MODEL 6
REMARK VINA RESULT:      -6.0      4.760      7.298
REMARK  Name = 5492434
REMARK  6 active torsions:
REMARK  status: ('A' for Active; 'I' for Inactive)
REMARK    1  A    between atoms: C_3  and  C_12
REMARK    2  A    between atoms: C_8  and  O_24
REMARK    3  A    between atoms: C_11  and  O_26
REMARK    4  A    between atoms: C_13  and  O_22
REMARK    5  A    between atoms: C_15  and  O_18
REMARK    6  A    between atoms: C_16  and  O_20
REMARK                            x       y       z     vdW  Elec       q    Type
REMARK                         _______ _______ _______ _____ _____    ______ ____
ROOT
ATOM      1  O   UNL     1     -32.620  27.537   6.661  0.00  0.00    -0.450 OA
ATOM      2  O   UNL     1     -33.082  27.078   2.633  0.00  0.00    -0.286 OA
ATOM      3  C   UNL     1     -33.783  26.457   4.822  0.00  0.00    +0.080 C 
ATOM      4  C   UNL     1     -31.914  28.094   4.407  0.00  0.00    +0.107 C 
ATOM      5  C   UNL     1     -32.937  27.195   3.843  0.00  0.00    +0.205 C 
ATOM      6  C   UNL     1     -31.809  28.219   5.792  0.00  0.00    +0.154 C 
ATOM      7  C   UNL     1     -33.556  26.686   6.125  0.00  0.00    +0.183 C 
ATOM      8  C   UNL     1     -31.060  28.816   3.568  0.00  0.00    +0.143 C 
ATOM      9  C   UNL     1     -30.850  29.068   6.346  0.00  0.00    +0.074 C 
ATOM     10  C   UNL     1     -30.101  29.663   4.126  0.00  0.00    +0.073 C 
ATOM     11  C   UNL     1     -29.997  29.789   5.511  0.00  0.00    +0.140 C 
ENDROOT
BRANCH   3  12
ATOM     12  C   UNL     1     -34.815  25.499   4.394  0.00  0.00    +0.043 C 
ATOM     13  C   UNL     1     -35.929  25.914   3.659  0.00  0.00    +0.137 C 
ATOM     14  C   UNL     1     -34.674  24.151   4.732  0.00  0.00    +0.043 C 
ATOM     15  C   UNL     1     -35.639  23.224   4.339  0.00  0.00    +0.173 C 
ATOM     16  C   UNL     1     -36.749  23.643   3.604  0.00  0.00    +0.175 C 
ATOM     17  C   UNL     1     -36.894  24.988   3.264  0.00  0.00    +0.077 C 
BRANCH  15  18
ATOM     18  O   UNL     1     -35.487  21.913   4.677  0.00  0.00    -0.468 OA
ATOM     19  C   UNL     1     -35.129  21.630   6.029  0.00  0.00    +0.253 C 
ENDBRANCH  15  18
BRANCH  16  20
ATOM     20  O   UNL     1     -37.698  22.747   3.213  0.00  0.00    -0.468 OA
ATOM     21  C   UNL     1     -38.742  23.233   2.372  0.00  0.00    +0.253 C 
ENDBRANCH  16  20
BRANCH  13  22
ATOM     22  O   UNL     1     -36.094  27.223   3.313  0.00  0.00    -0.505 OA
ATOM     23  H   UNL     1     -36.928  27.526   3.009  0.00  0.00    +0.292 HD
ENDBRANCH  13  22
ENDBRANCH   3  12
BRANCH   8  24
ATOM     24  O   UNL     1     -31.119  28.730   2.210  0.00  0.00    -0.505 OA
ATOM     25  H   UNL     1     -30.571  29.278   1.682  0.00  0.00    +0.292 HD
ENDBRANCH   8  24
BRANCH  11  26
ATOM     26  O   UNL     1     -29.060  30.618   6.049  0.00  0.00    -0.505 OA
ATOM     27  H   UNL     1     -28.769  31.370   5.572  0.00  0.00    +0.292 HD
ENDBRANCH  11  26
TORSDOF 6
ENDMDL
MODEL 7
REMARK VINA RESULT:      -5.7      4.492      6.721
REMARK  Name = 5492434
REMARK  6 active torsions:
REMARK  status: ('A' for Active; 'I' for Inactive)
REMARK    1  A    between atoms: C_3  and  C_12
REMARK    2  A    between atoms: C_8  and  O_24
REMARK    3  A    between atoms: C_11  and  O_26
REMARK    4  A    between atoms: C_13  and  O_22
REMARK    5  A    between atoms: C_15  and  O_18
REMARK    6  A    between atoms: C_16  and  O_20
REMARK                            x       y       z     vdW  Elec       q    Type
REMARK                         _______ _______ _______ _____ _____    ______ ____
ROOT
ATOM      1  O   UNL     1     -34.891  25.368   6.267  0.00  0.00    -0.450 OA
ATOM      2  O   UNL     1     -35.418  26.322   2.335  0.00  0.00    -0.286 OA
ATOM      3  C   UNL     1     -36.108  25.008   4.196  0.00  0.00    +0.080 C 
ATOM      4  C   UNL     1     -34.197  26.644   4.323  0.00  0.00    +0.107 C 
ATOM      5  C   UNL     1     -35.254  26.015   3.509  0.00  0.00    +0.205 C 
ATOM      6  C   UNL     1     -34.071  26.286   5.665  0.00  0.00    +0.154 C 
ATOM      7  C   UNL     1     -35.858  24.772   5.493  0.00  0.00    +0.183 C 
ATOM      8  C   UNL     1     -33.333  27.588   3.762  0.00  0.00    +0.143 C 
ATOM      9  C   UNL     1     -33.081  26.872   6.453  0.00  0.00    +0.074 C 
ATOM     10  C   UNL     1     -32.343  28.172   4.553  0.00  0.00    +0.073 C 
ATOM     11  C   UNL     1     -32.217  27.815   5.896  0.00  0.00    +0.140 C 
ENDROOT
BRANCH   3  12
ATOM     12  C   UNL     1     -37.174  24.277   3.490  0.00  0.00    +0.043 C 
ATOM     13  C   UNL     1     -36.958  22.993   2.983  0.00  0.00    +0.137 C 
ATOM     14  C   UNL     1     -38.422  24.884   3.327  0.00  0.00    +0.043 C 
ATOM     15  C   UNL     1     -39.446  24.212   2.662  0.00  0.00    +0.173 C 
ATOM     16  C   UNL     1     -39.227  22.929   2.158  0.00  0.00    +0.175 C 
ATOM     17  C   UNL     1     -37.982  22.320   2.318  0.00  0.00    +0.077 C 
BRANCH  15  18
ATOM     18  O   UNL     1     -40.657  24.817   2.511  0.00  0.00    -0.468 OA
ATOM     19  C   UNL     1     -40.742  26.196   2.869  0.00  0.00    +0.253 C 
ENDBRANCH  15  18
BRANCH  16  20
ATOM     20  O   UNL     1     -40.221  22.262   1.506  0.00  0.00    -0.468 OA
ATOM     21  C   UNL     1     -40.045  22.042   0.108  0.00  0.00    +0.253 C 
ENDBRANCH  16  20
BRANCH  13  22
ATOM     22  O   UNL     1     -35.751  22.375   3.127  0.00  0.00    -0.505 OA
ATOM     23  H   UNL     1     -35.031  22.836   3.512  0.00  0.00    +0.292 HD
ENDBRANCH  13  22
ENDBRANCH   3  12
BRANCH   8  24
ATOM     24  O   UNL     1     -33.412  27.973   2.458  0.00  0.00    -0.505 OA
ATOM     25  H   UNL     1     -32.765  27.684   1.844  0.00  0.00    +0.292 HD
ENDBRANCH   8  24
BRANCH  11  26
ATOM     26  O   UNL     1     -31.250  28.388   6.663  0.00  0.00    -0.505 OA
ATOM     27  H   UNL     1     -31.485  28.986   7.346  0.00  0.00    +0.292 HD
ENDBRANCH  11  26
TORSDOF 6
ENDMDL
MODEL 8
REMARK VINA RESULT:      -5.6      5.710      7.256
REMARK  Name = 5492434
REMARK  6 active torsions:
REMARK  status: ('A' for Active; 'I' for Inactive)
REMARK    1  A    between atoms: C_3  and  C_12
REMARK    2  A    between atoms: C_8  and  O_24
REMARK    3  A    between atoms: C_11  and  O_26
REMARK    4  A    between atoms: C_13  and  O_22
REMARK    5  A    between atoms: C_15  and  O_18
REMARK    6  A    between atoms: C_16  and  O_20
REMARK                            x       y       z     vdW  Elec       q    Type
REMARK                         _______ _______ _______ _____ _____    ______ ____
ROOT
ATOM      1  O   UNL     1     -36.123  27.429   2.162  0.00  0.00    -0.450 OA
ATOM      2  O   UNL     1     -37.768  24.251   4.122  0.00  0.00    -0.286 OA
ATOM      3  C   UNL     1     -37.974  25.873   2.391  0.00  0.00    +0.080 C 
ATOM      4  C   UNL     1     -35.991  25.784   3.942  0.00  0.00    +0.107 C 
ATOM      5  C   UNL     1     -37.291  25.217   3.541  0.00  0.00    +0.205 C 
ATOM      6  C   UNL     1     -35.472  26.865   3.228  0.00  0.00    +0.154 C 
ATOM      7  C   UNL     1     -37.344  26.906   1.811  0.00  0.00    +0.183 C 
ATOM      8  C   UNL     1     -35.282  25.249   5.021  0.00  0.00    +0.143 C 
ATOM      9  C   UNL     1     -34.241  27.414   3.589  0.00  0.00    +0.074 C 
ATOM     10  C   UNL     1     -34.052  25.801   5.379  0.00  0.00    +0.073 C 
ATOM     11  C   UNL     1     -33.532  26.880   4.665  0.00  0.00    +0.140 C 
ENDROOT
BRANCH   3  12
ATOM     12  C   UNL     1     -39.295  25.432   1.914  0.00  0.00    +0.043 C 
ATOM     13  C   UNL     1     -40.472  25.901   2.502  0.00  0.00    +0.137 C 
ATOM     14  C   UNL     1     -39.366  24.526   0.852  0.00  0.00    +0.043 C 
ATOM     15  C   UNL     1     -40.606  24.093   0.382  0.00  0.00    +0.173 C 
ATOM     16  C   UNL     1     -41.779  24.565   0.972  0.00  0.00    +0.175 C 
ATOM     17  C   UNL     1     -41.712  25.469   2.033  0.00  0.00    +0.077 C 
BRANCH  15  18
ATOM     18  O   UNL     1     -40.658  23.210  -0.654  0.00  0.00    -0.468 OA
ATOM     19  C   UNL     1     -40.517  21.827  -0.334  0.00  0.00    +0.253 C 
ENDBRANCH  15  18
BRANCH  16  20
ATOM     20  O   UNL     1     -42.996  24.150   0.522  0.00  0.00    -0.468 OA
ATOM     21  C   UNL     1     -44.138  24.869   0.982  0.00  0.00    +0.253 C 
ENDBRANCH  16  20
BRANCH  13  22
ATOM     22  O   UNL     1     -40.434  26.785   3.540  0.00  0.00    -0.505 OA
ATOM     23  H   UNL     1     -39.753  26.727   4.181  0.00  0.00    +0.292 HD
ENDBRANCH  13  22
ENDBRANCH   3  12
BRANCH   8  24
ATOM     24  O   UNL     1     -35.742  24.195   5.752  0.00  0.00    -0.505 OA
ATOM     25  H   UNL     1     -35.206  23.821   6.422  0.00  0.00    +0.292 HD
ENDBRANCH   8  24
BRANCH  11  26
ATOM     26  O   UNL     1     -32.331  27.415   5.019  0.00  0.00    -0.505 OA
ATOM     27  H   UNL     1     -32.076  28.255   4.690  0.00  0.00    +0.292 HD
ENDBRANCH  11  26
TORSDOF 6
ENDMDL
MODEL 9
REMARK VINA RESULT:      -5.5      1.767      7.389
REMARK  Name = 5492434
REMARK  6 active torsions:
REMARK  status: ('A' for Active; 'I' for Inactive)
REMARK    1  A    between atoms: C_3  and  C_12
REMARK    2  A    between atoms: C_8  and  O_24
REMARK    3  A    between atoms: C_11  and  O_26
REMARK    4  A    between atoms: C_13  and  O_22
REMARK    5  A    between atoms: C_15  and  O_18
REMARK    6  A    between atoms: C_16  and  O_20
REMARK                            x       y       z     vdW  Elec       q    Type
REMARK                         _______ _______ _______ _____ _____    ______ ____
ROOT
ATOM      1  O   UNL     1     -34.335  18.930   0.678  0.00  0.00    -0.450 OA
ATOM      2  O   UNL     1     -37.691  21.164   1.306  0.00  0.00    -0.286 OA
ATOM      3  C   UNL     1     -35.373  20.849   1.746  0.00  0.00    +0.080 C 
ATOM      4  C   UNL     1     -36.709  19.272   0.306  0.00  0.00    +0.107 C 
ATOM      5  C   UNL     1     -36.684  20.488   1.139  0.00  0.00    +0.205 C 
ATOM      6  C   UNL     1     -35.528  18.554   0.118  0.00  0.00    +0.154 C 
ATOM      7  C   UNL     1     -34.328  20.053   1.470  0.00  0.00    +0.183 C 
ATOM      8  C   UNL     1     -37.897  18.842  -0.291  0.00  0.00    +0.143 C 
ATOM      9  C   UNL     1     -35.529  17.403  -0.670  0.00  0.00    +0.074 C 
ATOM     10  C   UNL     1     -37.894  17.690  -1.078  0.00  0.00    +0.073 C 
ATOM     11  C   UNL     1     -36.713  16.972  -1.267  0.00  0.00    +0.140 C 
ENDROOT
BRANCH   3  12
ATOM     12  C   UNL     1     -35.217  22.016   2.630  0.00  0.00    +0.043 C 
ATOM     13  C   UNL     1     -35.354  21.898   4.016  0.00  0.00    +0.137 C 
ATOM     14  C   UNL     1     -34.928  23.262   2.067  0.00  0.00    +0.043 C 
ATOM     15  C   UNL     1     -34.777  24.382   2.884  0.00  0.00    +0.173 C 
ATOM     16  C   UNL     1     -34.913  24.260   4.268  0.00  0.00    +0.175 C 
ATOM     17  C   UNL     1     -35.202  23.018   4.833  0.00  0.00    +0.077 C 
BRANCH  15  18
ATOM     18  O   UNL     1     -34.495  25.590   2.320  0.00  0.00    -0.468 OA
ATOM     19  C   UNL     1     -35.401  26.068   1.327  0.00  0.00    +0.253 C 
ENDBRANCH  15  18
BRANCH  16  20
ATOM     20  O   UNL     1     -34.767  25.347   5.076  0.00  0.00    -0.468 OA
ATOM     21  C   UNL     1     -35.960  25.986   5.525  0.00  0.00    +0.253 C 
ENDBRANCH  16  20
BRANCH  13  22
ATOM     22  O   UNL     1     -35.635  20.696   4.594  0.00  0.00    -0.505 OA
ATOM     23  H   UNL     1     -36.495  20.525   4.926  0.00  0.00    +0.292 HD
ENDBRANCH  13  22
ENDBRANCH   3  12
BRANCH   8  24
ATOM     24  O   UNL     1     -39.077  19.505  -0.140  0.00  0.00    -0.505 OA
ATOM     25  H   UNL     1     -39.854  19.032   0.086  0.00  0.00    +0.292 HD
ENDBRANCH   8  24
BRANCH  11  26
ATOM     26  O   UNL     1     -36.716  15.848  -2.036  0.00  0.00    -0.505 OA
ATOM     27  H   UNL     1     -36.100  15.162  -1.867  0.00  0.00    +0.292 HD
ENDBRANCH  11  26
TORSDOF 6
ENDMDL
