MODEL 1
REMARK VINA RESULT:      -8.2      0.000      0.000
REMARK  Name = 59448236
REMARK  6 active torsions:
REMARK  status: ('A' for Active; 'I' for Inactive)
REMARK    1  A    between atoms: C_1  and  C_21
REMARK    2  A    between atoms: C_2  and  N_7
REMARK    3  A    between atoms: N_20  and  C_23
REMARK    4  A    between atoms: C_23  and  C_24
REMARK    5  A    between atoms: C_25  and  C_33
REMARK    6  A    between atoms: C_29  and  C_35
REMARK                            x       y       z     vdW  Elec       q    Type
REMARK                         _______ _______ _______ _____ _____    ______ ____
ROOT
ATOM      1  C   UNL     1     -40.333  23.938   1.827  0.00  0.00    +0.078 C 
ATOM      2  C   UNL     1     -41.432  26.185   2.209  0.00  0.00    +0.081 C 
ATOM      3  C   UNL     1     -40.444  25.151   2.753  0.00  0.00    +0.029 C 
ATOM      4  C   UNL     1     -39.985  24.356   0.397  0.00  0.00    +0.009 C 
ATOM      5  C   UNL     1     -41.074  26.602   0.782  0.00  0.00    +0.020 C 
ATOM      6  C   UNL     1     -40.967  25.393  -0.143  0.00  0.00    +0.002 C 
ENDROOT
BRANCH   2   7
ATOM      7  N   UNL     1     -41.438  27.352   3.064  0.00  0.00    -0.259 N 
ATOM      8  N   UNL     1     -42.379  28.847   4.571  0.00  0.00    -0.265 NA
ATOM      9  N   UNL     1     -43.625  26.970   3.744  0.00  0.00    -0.247 NA
ATOM     10  N   UNL     1     -44.637  28.490   5.299  0.00  0.00    -0.265 NA
ATOM     11  N   UNL     1     -45.829  26.646   4.476  0.00  0.00    -0.256 N 
ATOM     12  C   UNL     1     -42.527  27.740   3.825  0.00  0.00    +0.220 C 
ATOM     13  C   UNL     1     -43.474  29.162   5.280  0.00  0.00    +0.141 C 
ATOM     14  C   UNL     1     -44.639  27.406   4.508  0.00  0.00    +0.220 C 
ATOM     15  C   UNL     1     -43.392  30.380   6.135  0.00  0.00    +0.145 C 
ATOM     16  C   UNL     1     -45.975  25.469   3.679  0.00  0.00    +0.121 C 
ATOM     17  H   UNL     1     -40.621  27.902   3.107  0.00  0.00    +0.160 HD
ATOM     18  H   UNL     1     -46.590  26.941   5.025  0.00  0.00    +0.160 HD
ENDBRANCH   2   7
BRANCH   1  21
ATOM     19  O   UNL     1     -39.433  21.770   2.272  0.00  0.00    -0.275 OA
ATOM     20  N   UNL     1     -38.222  23.649   2.923  0.00  0.00    -0.300 N 
ATOM     21  C   UNL     1     -39.295  22.988   2.349  0.00  0.00    +0.222 C 
ATOM     22  H   UNL     1     -38.225  24.633   2.924  0.00  0.00    +0.150 HD
BRANCH  20  23
ATOM     23  C   UNL     1     -37.099  22.963   3.519  0.00  0.00    +0.116 C 
BRANCH  23  24
ATOM     24  C   UNL     1     -36.132  23.918   4.157  0.00  0.00    +0.001 C 
ATOM     25  C   UNL     1     -35.233  23.484   5.132  0.00  0.00    +0.070 C 
ATOM     26  C   UNL     1     -36.140  25.255   3.763  0.00  0.00    -0.002 C 
ATOM     27  C   UNL     1     -34.342  24.388   5.711  0.00  0.00    +0.014 C 
ATOM     28  C   UNL     1     -35.249  26.160   4.341  0.00  0.00    +0.010 C 
ATOM     29  C   UNL     1     -34.351  25.725   5.316  0.00  0.00    +0.068 C 
BRANCH  25  33
ATOM     30  F   UNL     1     -34.029  21.715   6.169  0.00  0.00    -0.166 F 
ATOM     31  F   UNL     1     -36.182  21.745   6.473  0.00  0.00    -0.166 F 
ATOM     32  F   UNL     1     -35.370  21.168   4.547  0.00  0.00    -0.166 F 
ATOM     33  C   UNL     1     -35.207  22.057   5.571  0.00  0.00    +0.418 C 
ENDBRANCH  25  33
BRANCH  29  35
ATOM     34  N   UNL     1     -32.695  27.402   6.390  0.00  0.00    -0.191 NA
ATOM     35  C   UNL     1     -33.438  26.651   5.909  0.00  0.00    +0.100 C 
ENDBRANCH  29  35
ENDBRANCH  23  24
ENDBRANCH  20  23
ENDBRANCH   1  21
TORSDOF 6
ENDMDL
MODEL 2
REMARK VINA RESULT:      -7.4      2.036      2.318
REMARK  Name = 59448236
REMARK  6 active torsions:
REMARK  status: ('A' for Active; 'I' for Inactive)
REMARK    1  A    between atoms: C_1  and  C_21
REMARK    2  A    between atoms: C_2  and  N_7
REMARK    3  A    between atoms: N_20  and  C_23
REMARK    4  A    between atoms: C_23  and  C_24
REMARK    5  A    between atoms: C_25  and  C_33
REMARK    6  A    between atoms: C_29  and  C_35
REMARK                            x       y       z     vdW  Elec       q    Type
REMARK                         _______ _______ _______ _____ _____    ______ ____
ROOT
ATOM      1  C   UNL     1     -39.788  23.802   2.333  0.00  0.00    +0.078 C 
ATOM      2  C   UNL     1     -41.198  25.847   2.817  0.00  0.00    +0.081 C 
ATOM      3  C   UNL     1     -39.916  25.084   3.159  0.00  0.00    +0.029 C 
ATOM      4  C   UNL     1     -39.893  24.090   0.833  0.00  0.00    +0.009 C 
ATOM      5  C   UNL     1     -41.293  26.136   1.319  0.00  0.00    +0.020 C 
ATOM      6  C   UNL     1     -41.169  24.858   0.494  0.00  0.00    +0.002 C 
ENDROOT
BRANCH   2   7
ATOM      7  N   UNL     1     -41.235  27.093   3.551  0.00  0.00    -0.259 N 
ATOM      8  N   UNL     1     -42.260  28.788   4.763  0.00  0.00    -0.265 NA
ATOM      9  N   UNL     1     -43.516  26.913   3.944  0.00  0.00    -0.247 NA
ATOM     10  N   UNL     1     -44.616  28.642   5.191  0.00  0.00    -0.265 NA
ATOM     11  N   UNL     1     -45.816  26.798   4.381  0.00  0.00    -0.256 N 
ATOM     12  C   UNL     1     -42.386  27.621   4.110  0.00  0.00    +0.220 C 
ATOM     13  C   UNL     1     -43.416  29.238   5.277  0.00  0.00    +0.141 C 
ATOM     14  C   UNL     1     -44.590  27.485   4.512  0.00  0.00    +0.220 C 
ATOM     15  C   UNL     1     -43.361  30.530   6.017  0.00  0.00    +0.145 C 
ATOM     16  C   UNL     1     -45.939  25.556   3.684  0.00  0.00    +0.121 C 
ATOM     17  H   UNL     1     -40.393  27.595   3.659  0.00  0.00    +0.160 HD
ATOM     18  H   UNL     1     -46.622  27.192   4.787  0.00  0.00    +0.160 HD
ENDBRANCH   2   7
BRANCH   1  21
ATOM     19  O   UNL     1     -38.177  22.051   2.128  0.00  0.00    -0.275 OA
ATOM     20  N   UNL     1     -37.716  23.848   3.535  0.00  0.00    -0.300 N 
ATOM     21  C   UNL     1     -38.481  23.128   2.633  0.00  0.00    +0.222 C 
ATOM     22  H   UNL     1     -38.069  24.702   3.871  0.00  0.00    +0.150 HD
BRANCH  20  23
ATOM     23  C   UNL     1     -36.424  23.404   4.005  0.00  0.00    +0.116 C 
BRANCH  23  24
ATOM     24  C   UNL     1     -35.301  24.182   3.382  0.00  0.00    +0.001 C 
ATOM     25  C   UNL     1     -34.570  25.108   4.127  0.00  0.00    +0.070 C 
ATOM     26  C   UNL     1     -34.992  23.969   2.039  0.00  0.00    -0.002 C 
ATOM     27  C   UNL     1     -33.530  25.820   3.529  0.00  0.00    +0.014 C 
ATOM     28  C   UNL     1     -33.952  24.679   1.440  0.00  0.00    +0.010 C 
ATOM     29  C   UNL     1     -33.222  25.606   2.186  0.00  0.00    +0.068 C 
BRANCH  25  33
ATOM     30  F   UNL     1     -36.125  25.891   5.746  0.00  0.00    -0.166 F 
ATOM     31  F   UNL     1     -34.857  24.226   6.332  0.00  0.00    -0.166 F 
ATOM     32  F   UNL     1     -34.019  26.220   6.172  0.00  0.00    -0.166 F 
ATOM     33  C   UNL     1     -34.884  25.355   5.566  0.00  0.00    +0.418 C 
ENDBRANCH  25  33
BRANCH  29  35
ATOM     34  N   UNL     1     -31.289  26.923   1.073  0.00  0.00    -0.191 NA
ATOM     35  C   UNL     1     -32.156  26.333   1.572  0.00  0.00    +0.100 C 
ENDBRANCH  29  35
ENDBRANCH  23  24
ENDBRANCH  20  23
ENDBRANCH   1  21
TORSDOF 6
ENDMDL
MODEL 3
REMARK VINA RESULT:      -7.4      4.162      9.746
REMARK  Name = 59448236
REMARK  6 active torsions:
REMARK  status: ('A' for Active; 'I' for Inactive)
REMARK    1  A    between atoms: C_1  and  C_21
REMARK    2  A    between atoms: C_2  and  N_7
REMARK    3  A    between atoms: N_20  and  C_23
REMARK    4  A    between atoms: C_23  and  C_24
REMARK    5  A    between atoms: C_25  and  C_33
REMARK    6  A    between atoms: C_29  and  C_35
REMARK                            x       y       z     vdW  Elec       q    Type
REMARK                         _______ _______ _______ _____ _____    ______ ____
ROOT
ATOM      1  C   UNL     1     -40.784  26.255   2.219  0.00  0.00    +0.078 C 
ATOM      2  C   UNL     1     -38.861  24.614   2.343  0.00  0.00    +0.081 C 
ATOM      3  C   UNL     1     -40.011  25.277   3.107  0.00  0.00    +0.029 C 
ATOM      4  C   UNL     1     -41.272  25.580   0.936  0.00  0.00    +0.009 C 
ATOM      5  C   UNL     1     -39.357  23.937   1.066  0.00  0.00    +0.020 C 
ATOM      6  C   UNL     1     -40.126  24.913   0.178  0.00  0.00    +0.002 C 
ENDROOT
BRANCH   2   7
ATOM      7  N   UNL     1     -38.216  23.633   3.189  0.00  0.00    -0.259 N 
ATOM      8  N   UNL     1     -36.519  22.830   4.555  0.00  0.00    -0.265 NA
ATOM      9  N   UNL     1     -36.390  25.015   3.572  0.00  0.00    -0.247 NA
ATOM     10  N   UNL     1     -34.613  24.224   4.976  0.00  0.00    -0.265 NA
ATOM     11  N   UNL     1     -34.515  26.355   4.004  0.00  0.00    -0.256 N 
ATOM     12  C   UNL     1     -36.989  23.834   3.798  0.00  0.00    +0.220 C 
ATOM     13  C   UNL     1     -35.327  23.095   5.112  0.00  0.00    +0.141 C 
ATOM     14  C   UNL     1     -35.206  25.139   4.194  0.00  0.00    +0.220 C 
ATOM     15  C   UNL     1     -34.735  22.028   5.968  0.00  0.00    +0.145 C 
ATOM     16  C   UNL     1     -35.025  27.419   3.197  0.00  0.00    +0.121 C 
ATOM     17  H   UNL     1     -38.674  22.775   3.339  0.00  0.00    +0.160 HD
ATOM     18  H   UNL     1     -33.644  26.476   4.447  0.00  0.00    +0.160 HD
ENDBRANCH   2   7
BRANCH   1  21
ATOM     19  O   UNL     1     -41.801  27.580   3.927  0.00  0.00    -0.275 OA
ATOM     20  N   UNL     1     -43.163  26.363   2.483  0.00  0.00    -0.300 N 
ATOM     21  C   UNL     1     -41.952  26.819   2.975  0.00  0.00    +0.222 C 
ATOM     22  H   UNL     1     -43.155  25.753   1.711  0.00  0.00    +0.150 HD
BRANCH  20  23
ATOM     23  C   UNL     1     -44.437  26.739   3.050  0.00  0.00    +0.116 C 
BRANCH  23  24
ATOM     24  C   UNL     1     -45.419  25.603   3.031  0.00  0.00    +0.001 C 
ATOM     25  C   UNL     1     -46.279  25.380   4.107  0.00  0.00    +0.070 C 
ATOM     26  C   UNL     1     -45.464  24.765   1.918  0.00  0.00    -0.002 C 
ATOM     27  C   UNL     1     -47.183  24.319   4.068  0.00  0.00    +0.014 C 
ATOM     28  C   UNL     1     -46.368  23.704   1.878  0.00  0.00    +0.010 C 
ATOM     29  C   UNL     1     -47.228  23.481   2.954  0.00  0.00    +0.068 C 
BRANCH  25  33
ATOM     30  F   UNL     1     -47.110  25.851   6.283  0.00  0.00    -0.166 F 
ATOM     31  F   UNL     1     -45.023  26.329   5.908  0.00  0.00    -0.166 F 
ATOM     32  F   UNL     1     -46.586  27.559   5.044  0.00  0.00    -0.166 F 
ATOM     33  C   UNL     1     -46.248  26.263   5.310  0.00  0.00    +0.418 C 
ENDBRANCH  25  33
BRANCH  29  35
ATOM     34  N   UNL     1     -48.910  21.513   2.880  0.00  0.00    -0.191 NA
ATOM     35  C   UNL     1     -48.155  22.394   2.913  0.00  0.00    +0.100 C 
ENDBRANCH  29  35
ENDBRANCH  23  24
ENDBRANCH  20  23
ENDBRANCH   1  21
TORSDOF 6
ENDMDL
MODEL 4
REMARK VINA RESULT:      -7.3      5.674      8.151
REMARK  Name = 59448236
REMARK  6 active torsions:
REMARK  status: ('A' for Active; 'I' for Inactive)
REMARK    1  A    between atoms: C_1  and  C_21
REMARK    2  A    between atoms: C_2  and  N_7
REMARK    3  A    between atoms: N_20  and  C_23
REMARK    4  A    between atoms: C_23  and  C_24
REMARK    5  A    between atoms: C_25  and  C_33
REMARK    6  A    between atoms: C_29  and  C_35
REMARK                            x       y       z     vdW  Elec       q    Type
REMARK                         _______ _______ _______ _____ _____    ______ ____
ROOT
ATOM      1  C   UNL     1     -35.001  23.874   3.428  0.00  0.00    +0.078 C 
ATOM      2  C   UNL     1     -35.202  26.389   3.619  0.00  0.00    +0.081 C 
ATOM      3  C   UNL     1     -35.366  25.172   2.705  0.00  0.00    +0.029 C 
ATOM      4  C   UNL     1     -35.793  23.716   4.728  0.00  0.00    +0.009 C 
ATOM      5  C   UNL     1     -36.001  26.227   4.913  0.00  0.00    +0.020 C 
ATOM      6  C   UNL     1     -35.635  24.934   5.637  0.00  0.00    +0.002 C 
ENDROOT
BRANCH   2   7
ATOM      7  N   UNL     1     -35.644  27.581   2.928  0.00  0.00    -0.259 N 
ATOM      8  N   UNL     1     -35.486  29.797   2.253  0.00  0.00    -0.265 NA
ATOM      9  N   UNL     1     -33.808  28.804   3.652  0.00  0.00    -0.247 NA
ATOM     10  N   UNL     1     -33.606  31.099   2.980  0.00  0.00    -0.265 NA
ATOM     11  N   UNL     1     -31.981  30.101   4.344  0.00  0.00    -0.256 N 
ATOM     12  C   UNL     1     -34.950  28.779   2.945  0.00  0.00    +0.220 C 
ATOM     13  C   UNL     1     -34.761  30.925   2.316  0.00  0.00    +0.141 C 
ATOM     14  C   UNL     1     -33.190  29.996   3.623  0.00  0.00    +0.220 C 
ATOM     15  C   UNL     1     -35.290  32.104   1.574  0.00  0.00    +0.145 C 
ATOM     16  C   UNL     1     -31.418  29.010   5.076  0.00  0.00    +0.121 C 
ATOM     17  H   UNL     1     -36.485  27.538   2.417  0.00  0.00    +0.160 HD
ATOM     18  H   UNL     1     -31.505  30.962   4.342  0.00  0.00    +0.160 HD
ENDBRANCH   2   7
BRANCH   1  21
ATOM     19  O   UNL     1     -36.093  21.844   2.802  0.00  0.00    -0.275 OA
ATOM     20  N   UNL     1     -34.432  22.704   1.416  0.00  0.00    -0.300 N 
ATOM     21  C   UNL     1     -35.254  22.699   2.530  0.00  0.00    +0.222 C 
ATOM     22  H   UNL     1     -33.796  23.447   1.307  0.00  0.00    +0.150 HD
BRANCH  20  23
ATOM     23  C   UNL     1     -34.462  21.670   0.407  0.00  0.00    +0.116 C 
BRANCH  23  24
ATOM     24  C   UNL     1     -33.088  21.158   0.086  0.00  0.00    +0.001 C 
ATOM     25  C   UNL     1     -32.677  19.893   0.506  0.00  0.00    +0.070 C 
ATOM     26  C   UNL     1     -32.217  21.966  -0.645  0.00  0.00    -0.002 C 
ATOM     27  C   UNL     1     -31.396  19.437   0.196  0.00  0.00    +0.014 C 
ATOM     28  C   UNL     1     -30.937  21.511  -0.956  0.00  0.00    +0.010 C 
ATOM     29  C   UNL     1     -30.526  20.246  -0.535  0.00  0.00    +0.068 C 
BRANCH  25  33
ATOM     30  F   UNL     1     -32.986  17.856   1.693  0.00  0.00    -0.166 F 
ATOM     31  F   UNL     1     -34.066  19.593   2.431  0.00  0.00    -0.166 F 
ATOM     32  F   UNL     1     -34.701  18.622   0.599  0.00  0.00    -0.166 F 
ATOM     33  C   UNL     1     -33.591  19.011   1.292  0.00  0.00    +0.418 C 
ENDBRANCH  25  33
BRANCH  29  35
ATOM     34  N   UNL     1     -28.148  19.397  -1.113  0.00  0.00    -0.191 NA
ATOM     35  C   UNL     1     -29.214  19.778  -0.854  0.00  0.00    +0.100 C 
ENDBRANCH  29  35
ENDBRANCH  23  24
ENDBRANCH  20  23
ENDBRANCH   1  21
TORSDOF 6
ENDMDL
MODEL 5
REMARK VINA RESULT:      -7.3      4.854      6.481
REMARK  Name = 59448236
REMARK  6 active torsions:
REMARK  status: ('A' for Active; 'I' for Inactive)
REMARK    1  A    between atoms: C_1  and  C_21
REMARK    2  A    between atoms: C_2  and  N_7
REMARK    3  A    between atoms: N_20  and  C_23
REMARK    4  A    between atoms: C_23  and  C_24
REMARK    5  A    between atoms: C_25  and  C_33
REMARK    6  A    between atoms: C_29  and  C_35
REMARK                            x       y       z     vdW  Elec       q    Type
REMARK                         _______ _______ _______ _____ _____    ______ ____
ROOT
ATOM      1  C   UNL     1     -35.450  23.306   3.107  0.00  0.00    +0.078 C 
ATOM      2  C   UNL     1     -37.227  24.970   3.800  0.00  0.00    +0.081 C 
ATOM      3  C   UNL     1     -36.951  23.587   3.205  0.00  0.00    +0.029 C 
ATOM      4  C   UNL     1     -34.758  23.488   4.460  0.00  0.00    +0.009 C 
ATOM      5  C   UNL     1     -36.537  25.141   5.155  0.00  0.00    +0.020 C 
ATOM      6  C   UNL     1     -35.039  24.865   5.057  0.00  0.00    +0.002 C 
ENDROOT
BRANCH   2   7
ATOM      7  N   UNL     1     -38.652  25.157   3.960  0.00  0.00    -0.259 N 
ATOM      8  N   UNL     1     -40.753  25.921   3.332  0.00  0.00    -0.265 NA
ATOM      9  N   UNL     1     -38.825  26.325   1.961  0.00  0.00    -0.247 NA
ATOM     10  N   UNL     1     -40.977  27.134   1.274  0.00  0.00    -0.265 NA
ATOM     11  N   UNL     1     -39.076  27.512  -0.046  0.00  0.00    -0.256 N 
ATOM     12  C   UNL     1     -39.444  25.830   3.045  0.00  0.00    +0.220 C 
ATOM     13  C   UNL     1     -41.457  26.587   2.402  0.00  0.00    +0.141 C 
ATOM     14  C   UNL     1     -39.654  26.963   1.119  0.00  0.00    +0.220 C 
ATOM     15  C   UNL     1     -42.920  26.732   2.647  0.00  0.00    +0.145 C 
ATOM     16  C   UNL     1     -37.682  27.408  -0.342  0.00  0.00    +0.121 C 
ATOM     17  H   UNL     1     -39.084  24.785   4.764  0.00  0.00    +0.160 HD
ATOM     18  H   UNL     1     -39.659  27.986  -0.682  0.00  0.00    +0.160 HD
ENDBRANCH   2   7
BRANCH   1  21
ATOM     19  O   UNL     1     -35.442  20.925   3.295  0.00  0.00    -0.275 OA
ATOM     20  N   UNL     1     -34.729  21.901   1.305  0.00  0.00    -0.300 N 
ATOM     21  C   UNL     1     -35.221  21.912   2.599  0.00  0.00    +0.222 C 
ATOM     22  H   UNL     1     -34.593  22.762   0.848  0.00  0.00    +0.150 HD
BRANCH  20  23
ATOM     23  C   UNL     1     -34.404  20.686   0.594  0.00  0.00    +0.116 C 
BRANCH  23  24
ATOM     24  C   UNL     1     -32.972  20.662   0.147  0.00  0.00    +0.001 C 
ATOM     25  C   UNL     1     -32.144  19.580   0.446  0.00  0.00    +0.070 C 
ATOM     26  C   UNL     1     -32.471  21.742  -0.580  0.00  0.00    -0.002 C 
ATOM     27  C   UNL     1     -30.816  19.578   0.020  0.00  0.00    +0.014 C 
ATOM     28  C   UNL     1     -31.143  21.741  -1.007  0.00  0.00    +0.010 C 
ATOM     29  C   UNL     1     -30.315  20.658  -0.706  0.00  0.00    +0.068 C 
BRANCH  25  33
ATOM     30  F   UNL     1     -31.656  17.681   1.791  0.00  0.00    -0.166 F 
ATOM     31  F   UNL     1     -33.484  18.763   2.252  0.00  0.00    -0.166 F 
ATOM     32  F   UNL     1     -33.377  17.530   0.471  0.00  0.00    -0.166 F 
ATOM     33  C   UNL     1     -32.657  18.413   1.224  0.00  0.00    +0.418 C 
ENDBRANCH  25  33
BRANCH  29  35
ATOM     34  N   UNL     1     -27.850  20.655  -1.500  0.00  0.00    -0.191 NA
ATOM     35  C   UNL     1     -28.956  20.657  -1.145  0.00  0.00    +0.100 C 
ENDBRANCH  29  35
ENDBRANCH  23  24
ENDBRANCH  20  23
ENDBRANCH   1  21
TORSDOF 6
ENDMDL
MODEL 6
REMARK VINA RESULT:      -7.2      5.990      8.537
REMARK  Name = 59448236
REMARK  6 active torsions:
REMARK  status: ('A' for Active; 'I' for Inactive)
REMARK    1  A    between atoms: C_1  and  C_21
REMARK    2  A    between atoms: C_2  and  N_7
REMARK    3  A    between atoms: N_20  and  C_23
REMARK    4  A    between atoms: C_23  and  C_24
REMARK    5  A    between atoms: C_25  and  C_33
REMARK    6  A    between atoms: C_29  and  C_35
REMARK                            x       y       z     vdW  Elec       q    Type
REMARK                         _______ _______ _______ _____ _____    ______ ____
ROOT
ATOM      1  C   UNL     1     -35.031  23.836   3.626  0.00  0.00    +0.078 C 
ATOM      2  C   UNL     1     -35.043  26.352   3.902  0.00  0.00    +0.081 C 
ATOM      3  C   UNL     1     -35.338  25.180   2.962  0.00  0.00    +0.029 C 
ATOM      4  C   UNL     1     -35.766  23.690   4.961  0.00  0.00    +0.009 C 
ATOM      5  C   UNL     1     -35.787  26.202   5.230  0.00  0.00    +0.020 C 
ATOM      6  C   UNL     1     -35.477  24.863   5.895  0.00  0.00    +0.002 C 
ENDROOT
BRANCH   2   7
ATOM      7  N   UNL     1     -35.433  27.593   3.270  0.00  0.00    -0.259 N 
ATOM      8  N   UNL     1     -35.134  29.801   2.617  0.00  0.00    -0.265 NA
ATOM      9  N   UNL     1     -33.438  28.631   3.848  0.00  0.00    -0.247 NA
ATOM     10  N   UNL     1     -33.088  30.913   3.195  0.00  0.00    -0.265 NA
ATOM     11  N   UNL     1     -31.448  29.744   4.395  0.00  0.00    -0.256 N 
ATOM     12  C   UNL     1     -34.635  28.724   3.244  0.00  0.00    +0.220 C 
ATOM     13  C   UNL     1     -34.307  30.859   2.633  0.00  0.00    +0.141 C 
ATOM     14  C   UNL     1     -32.720  29.764   3.782  0.00  0.00    +0.220 C 
ATOM     15  C   UNL     1     -34.789  32.097   1.958  0.00  0.00    +0.145 C 
ATOM     16  C   UNL     1     -30.926  28.591   5.059  0.00  0.00    +0.121 C 
ATOM     17  H   UNL     1     -36.315  27.637   2.834  0.00  0.00    +0.160 HD
ATOM     18  H   UNL     1     -30.898  30.559   4.364  0.00  0.00    +0.160 HD
ENDBRANCH   2   7
BRANCH   1  21
ATOM     19  O   UNL     1     -36.320  21.931   2.981  0.00  0.00    -0.275 OA
ATOM     20  N   UNL     1     -34.617  22.669   1.576  0.00  0.00    -0.300 N 
ATOM     21  C   UNL     1     -35.412  22.712   2.708  0.00  0.00    +0.222 C 
ATOM     22  H   UNL     1     -33.917  23.353   1.468  0.00  0.00    +0.150 HD
BRANCH  20  23
ATOM     23  C   UNL     1     -34.764  21.668   0.544  0.00  0.00    +0.116 C 
BRANCH  23  24
ATOM     24  C   UNL     1     -33.673  20.638   0.600  0.00  0.00    +0.001 C 
ATOM     25  C   UNL     1     -32.456  20.846  -0.049  0.00  0.00    +0.070 C 
ATOM     26  C   UNL     1     -33.889  19.460   1.315  0.00  0.00    -0.002 C 
ATOM     27  C   UNL     1     -31.455  19.877   0.017  0.00  0.00    +0.014 C 
ATOM     28  C   UNL     1     -32.889  18.490   1.382  0.00  0.00    +0.010 C 
ATOM     29  C   UNL     1     -31.672  18.699   0.732  0.00  0.00    +0.068 C 
BRANCH  25  33
ATOM     30  F   UNL     1     -31.025  22.060  -1.509  0.00  0.00    -0.166 F 
ATOM     31  F   UNL     1     -33.163  22.370  -1.752  0.00  0.00    -0.166 F 
ATOM     32  F   UNL     1     -32.135  23.217  -0.041  0.00  0.00    -0.166 F 
ATOM     33  C   UNL     1     -32.203  22.099  -0.822  0.00  0.00    +0.418 C 
ENDBRANCH  25  33
BRANCH  29  35
ATOM     34  N   UNL     1     -29.813  16.899   0.855  0.00  0.00    -0.191 NA
ATOM     35  C   UNL     1     -30.647  17.706   0.801  0.00  0.00    +0.100 C 
ENDBRANCH  29  35
ENDBRANCH  23  24
ENDBRANCH  20  23
ENDBRANCH   1  21
TORSDOF 6
ENDMDL
MODEL 7
REMARK VINA RESULT:      -7.2      6.101     10.861
REMARK  Name = 59448236
REMARK  6 active torsions:
REMARK  status: ('A' for Active; 'I' for Inactive)
REMARK    1  A    between atoms: C_1  and  C_21
REMARK    2  A    between atoms: C_2  and  N_7
REMARK    3  A    between atoms: N_20  and  C_23
REMARK    4  A    between atoms: C_23  and  C_24
REMARK    5  A    between atoms: C_25  and  C_33
REMARK    6  A    between atoms: C_29  and  C_35
REMARK                            x       y       z     vdW  Elec       q    Type
REMARK                         _______ _______ _______ _____ _____    ______ ____
ROOT
ATOM      1  C   UNL     1     -35.033  20.160   0.960  0.00  0.00    +0.078 C 
ATOM      2  C   UNL     1     -33.011  18.768   0.346  0.00  0.00    +0.081 C 
ATOM      3  C   UNL     1     -33.849  19.348   1.489  0.00  0.00    +0.029 C 
ATOM      4  C   UNL     1     -35.888  19.339  -0.008  0.00  0.00    +0.009 C 
ATOM      5  C   UNL     1     -33.871  17.943  -0.613  0.00  0.00    +0.020 C 
ATOM      6  C   UNL     1     -35.051  18.754  -1.143  0.00  0.00    +0.002 C 
ENDROOT
BRANCH   2   7
ATOM      7  N   UNL     1     -31.960  17.934   0.887  0.00  0.00    -0.259 N 
ATOM      8  N   UNL     1     -29.753  17.315   1.260  0.00  0.00    -0.265 NA
ATOM      9  N   UNL     1     -30.293  19.257  -0.042  0.00  0.00    -0.247 NA
ATOM     10  N   UNL     1     -27.999  18.654   0.316  0.00  0.00    -0.265 NA
ATOM     11  N   UNL     1     -28.558  20.546  -0.949  0.00  0.00    -0.256 N 
ATOM     12  C   UNL     1     -30.611  18.179   0.693  0.00  0.00    +0.220 C 
ATOM     13  C   UNL     1     -28.465  17.614   1.029  0.00  0.00    +0.141 C 
ATOM     14  C   UNL     1     -28.970  19.432  -0.188  0.00  0.00    +0.220 C 
ATOM     15  C   UNL     1     -27.448  16.702   1.624  0.00  0.00    +0.145 C 
ATOM     16  C   UNL     1     -29.480  21.460  -1.548  0.00  0.00    +0.121 C 
ATOM     17  H   UNL     1     -32.218  17.149   1.423  0.00  0.00    +0.160 HD
ATOM     18  H   UNL     1     -27.594  20.701  -1.074  0.00  0.00    +0.160 HD
ENDBRANCH   2   7
BRANCH   1  21
ATOM     19  O   UNL     1     -36.581  19.874   2.757  0.00  0.00    -0.275 OA
ATOM     20  N   UNL     1     -35.769  22.007   2.297  0.00  0.00    -0.300 N 
ATOM     21  C   UNL     1     -35.877  20.640   2.105  0.00  0.00    +0.222 C 
ATOM     22  H   UNL     1     -35.169  22.517   1.708  0.00  0.00    +0.150 HD
BRANCH  20  23
ATOM     23  C   UNL     1     -36.497  22.720   3.322  0.00  0.00    +0.116 C 
BRANCH  23  24
ATOM     24  C   UNL     1     -35.649  23.763   3.991  0.00  0.00    +0.001 C 
ATOM     25  C   UNL     1     -35.039  23.511   5.220  0.00  0.00    +0.070 C 
ATOM     26  C   UNL     1     -35.474  24.997   3.366  0.00  0.00    -0.002 C 
ATOM     27  C   UNL     1     -34.255  24.494   5.824  0.00  0.00    +0.014 C 
ATOM     28  C   UNL     1     -34.689  25.980   3.969  0.00  0.00    +0.010 C 
ATOM     29  C   UNL     1     -34.080  25.728   5.199  0.00  0.00    +0.068 C 
BRANCH  25  33
ATOM     30  F   UNL     1     -34.468  22.101   7.047  0.00  0.00    -0.166 F 
ATOM     31  F   UNL     1     -36.500  21.948   6.290  0.00  0.00    -0.166 F 
ATOM     32  F   UNL     1     -34.854  21.128   5.142  0.00  0.00    -0.166 F 
ATOM     33  C   UNL     1     -35.214  22.198   5.909  0.00  0.00    +0.418 C 
ENDBRANCH  25  33
BRANCH  29  35
ATOM     34  N   UNL     1     -32.622  27.554   6.316  0.00  0.00    -0.191 NA
ATOM     35  C   UNL     1     -33.276  26.735   5.816  0.00  0.00    +0.100 C 
ENDBRANCH  29  35
ENDBRANCH  23  24
ENDBRANCH  20  23
ENDBRANCH   1  21
TORSDOF 6
ENDMDL
MODEL 8
REMARK VINA RESULT:      -7.0      6.114     10.859
REMARK  Name = 59448236
REMARK  6 active torsions:
REMARK  status: ('A' for Active; 'I' for Inactive)
REMARK    1  A    between atoms: C_1  and  C_21
REMARK    2  A    between atoms: C_2  and  N_7
REMARK    3  A    between atoms: N_20  and  C_23
REMARK    4  A    between atoms: C_23  and  C_24
REMARK    5  A    between atoms: C_25  and  C_33
REMARK    6  A    between atoms: C_29  and  C_35
REMARK                            x       y       z     vdW  Elec       q    Type
REMARK                         _______ _______ _______ _____ _____    ______ ____
ROOT
ATOM      1  C   UNL     1     -35.199  20.390   1.394  0.00  0.00    +0.078 C 
ATOM      2  C   UNL     1     -33.454  18.774   0.531  0.00  0.00    +0.081 C 
ATOM      3  C   UNL     1     -33.984  19.532   1.751  0.00  0.00    +0.029 C 
ATOM      4  C   UNL     1     -36.296  19.557   0.726  0.00  0.00    +0.009 C 
ATOM      5  C   UNL     1     -34.554  17.939  -0.127  0.00  0.00    +0.020 C 
ATOM      6  C   UNL     1     -35.765  18.795  -0.486  0.00  0.00    +0.002 C 
ENDROOT
BRANCH   2   7
ATOM      7  N   UNL     1     -32.366  17.908   0.930  0.00  0.00    -0.259 N 
ATOM      8  N   UNL     1     -30.137  17.283   1.110  0.00  0.00    -0.265 NA
ATOM      9  N   UNL     1     -30.769  19.326   0.021  0.00  0.00    -0.247 NA
ATOM     10  N   UNL     1     -28.453  18.719   0.183  0.00  0.00    -0.265 NA
ATOM     11  N   UNL     1     -29.100  20.710  -0.873  0.00  0.00    -0.256 N 
ATOM     12  C   UNL     1     -31.034  18.183   0.676  0.00  0.00    +0.220 C 
ATOM     13  C   UNL     1     -28.868  17.616   0.828  0.00  0.00    +0.141 C 
ATOM     14  C   UNL     1     -29.458  19.527  -0.189  0.00  0.00    +0.220 C 
ATOM     15  C   UNL     1     -27.811  16.666   1.276  0.00  0.00    +0.145 C 
ATOM     16  C   UNL     1     -30.063  21.663  -1.330  0.00  0.00    +0.121 C 
ATOM     17  H   UNL     1     -32.586  17.075   1.408  0.00  0.00    +0.160 HD
ATOM     18  H   UNL     1     -28.147  20.885  -1.042  0.00  0.00    +0.160 HD
ENDBRANCH   2   7
BRANCH   1  21
ATOM     19  O   UNL     1     -35.553  20.583   3.749  0.00  0.00    -0.275 OA
ATOM     20  N   UNL     1     -36.465  22.193   2.337  0.00  0.00    -0.300 N 
ATOM     21  C   UNL     1     -35.740  21.050   2.629  0.00  0.00    +0.222 C 
ATOM     22  H   UNL     1     -36.545  22.469   1.396  0.00  0.00    +0.150 HD
BRANCH  20  23
ATOM     23  C   UNL     1     -37.109  23.001   3.348  0.00  0.00    +0.116 C 
BRANCH  23  24
ATOM     24  C   UNL     1     -36.156  23.972   3.983  0.00  0.00    +0.001 C 
ATOM     25  C   UNL     1     -36.122  25.308   3.584  0.00  0.00    +0.070 C 
ATOM     26  C   UNL     1     -35.297  23.521   4.985  0.00  0.00    -0.002 C 
ATOM     27  C   UNL     1     -35.229  26.194   4.188  0.00  0.00    +0.014 C 
ATOM     28  C   UNL     1     -34.404  24.406   5.589  0.00  0.00    +0.010 C 
ATOM     29  C   UNL     1     -34.370  25.743   5.190  0.00  0.00    +0.068 C 
BRANCH  25  33
ATOM     30  F   UNL     1     -36.868  27.146   2.273  0.00  0.00    -0.166 F 
ATOM     31  F   UNL     1     -36.849  25.198   1.308  0.00  0.00    -0.166 F 
ATOM     32  F   UNL     1     -38.355  25.651   2.800  0.00  0.00    -0.166 F 
ATOM     33  C   UNL     1     -37.031  25.813   2.512  0.00  0.00    +0.418 C 
ENDBRANCH  25  33
BRANCH  29  35
ATOM     34  N   UNL     1     -32.714  27.387   6.312  0.00  0.00    -0.191 NA
ATOM     35  C   UNL     1     -33.456  26.649   5.810  0.00  0.00    +0.100 C 
ENDBRANCH  29  35
ENDBRANCH  23  24
ENDBRANCH  20  23
ENDBRANCH   1  21
TORSDOF 6
ENDMDL
MODEL 9
REMARK VINA RESULT:      -7.0      4.109      9.397
REMARK  Name = 59448236
REMARK  6 active torsions:
REMARK  status: ('A' for Active; 'I' for Inactive)
REMARK    1  A    between atoms: C_1  and  C_21
REMARK    2  A    between atoms: C_2  and  N_7
REMARK    3  A    between atoms: N_20  and  C_23
REMARK    4  A    between atoms: C_23  and  C_24
REMARK    5  A    between atoms: C_25  and  C_33
REMARK    6  A    between atoms: C_29  and  C_35
REMARK                            x       y       z     vdW  Elec       q    Type
REMARK                         _______ _______ _______ _____ _____    ______ ____
ROOT
ATOM      1  C   UNL     1     -40.445  25.741   1.131  0.00  0.00    +0.078 C 
ATOM      2  C   UNL     1     -38.716  24.249   2.220  0.00  0.00    +0.081 C 
ATOM      3  C   UNL     1     -39.547  25.528   2.351  0.00  0.00    +0.029 C 
ATOM      4  C   UNL     1     -41.327  24.519   0.864  0.00  0.00    +0.009 C 
ATOM      5  C   UNL     1     -39.604  23.031   1.960  0.00  0.00    +0.020 C 
ATOM      6  C   UNL     1     -40.498  23.242   0.740  0.00  0.00    +0.002 C 
ENDROOT
BRANCH   2   7
ATOM      7  N   UNL     1     -37.953  24.037   3.431  0.00  0.00    -0.259 N 
ATOM      8  N   UNL     1     -36.399  22.950   4.770  0.00  0.00    -0.265 NA
ATOM      9  N   UNL     1     -36.857  22.195   2.539  0.00  0.00    -0.247 NA
ATOM     10  N   UNL     1     -35.244  21.041   3.888  0.00  0.00    -0.265 NA
ATOM     11  N   UNL     1     -35.710  20.328   1.704  0.00  0.00    -0.256 N 
ATOM     12  C   UNL     1     -37.030  23.017   3.587  0.00  0.00    +0.220 C 
ATOM     13  C   UNL     1     -35.521  21.938   4.849  0.00  0.00    +0.141 C 
ATOM     14  C   UNL     1     -35.948  21.232   2.762  0.00  0.00    +0.220 C 
ATOM     15  C   UNL     1     -34.778  21.794   6.133  0.00  0.00    +0.145 C 
ATOM     16  C   UNL     1     -36.388  20.409   0.448  0.00  0.00    +0.121 C 
ATOM     17  H   UNL     1     -38.098  24.653   4.186  0.00  0.00    +0.160 HD
ATOM     18  H   UNL     1     -35.050  19.611   1.838  0.00  0.00    +0.160 HD
ENDBRANCH   2   7
BRANCH   1  21
ATOM     19  O   UNL     1     -40.965  28.064   0.930  0.00  0.00    -0.275 OA
ATOM     20  N   UNL     1     -42.467  26.664   2.027  0.00  0.00    -0.300 N 
ATOM     21  C   UNL     1     -41.304  26.955   1.334  0.00  0.00    +0.222 C 
ATOM     22  H   UNL     1     -42.629  25.732   2.299  0.00  0.00    +0.150 HD
BRANCH  20  23
ATOM     23  C   UNL     1     -43.453  27.663   2.370  0.00  0.00    +0.116 C 
BRANCH  23  24
ATOM     24  C   UNL     1     -44.414  27.169   3.412  0.00  0.00    +0.001 C 
ATOM     25  C   UNL     1     -44.547  27.827   4.635  0.00  0.00    +0.070 C 
ATOM     26  C   UNL     1     -45.181  26.035   3.145  0.00  0.00    -0.002 C 
ATOM     27  C   UNL     1     -45.446  27.352   5.590  0.00  0.00    +0.014 C 
ATOM     28  C   UNL     1     -46.080  25.559   4.098  0.00  0.00    +0.010 C 
ATOM     29  C   UNL     1     -46.212  26.218   5.321  0.00  0.00    +0.068 C 
BRANCH  25  33
ATOM     30  F   UNL     1     -42.396  28.826   4.805  0.00  0.00    -0.166 F 
ATOM     31  F   UNL     1     -44.022  30.109   4.143  0.00  0.00    -0.166 F 
ATOM     32  F   UNL     1     -43.902  29.499   6.221  0.00  0.00    -0.166 F 
ATOM     33  C   UNL     1     -43.736  29.042   4.945  0.00  0.00    +0.418 C 
ENDBRANCH  25  33
BRANCH  29  35
ATOM     34  N   UNL     1     -47.884  25.334   7.091  0.00  0.00    -0.191 NA
ATOM     35  C   UNL     1     -47.135  25.731   6.298  0.00  0.00    +0.100 C 
ENDBRANCH  29  35
ENDBRANCH  23  24
ENDBRANCH  20  23
ENDBRANCH   1  21
TORSDOF 6
ENDMDL
