MODEL 1
REMARK VINA RESULT:      -5.4      0.000      0.000
REMARK  Name = 5479265
REMARK  10 active torsions:
REMARK  status: ('A' for Active; 'I' for Inactive)
REMARK    1  A    between atoms: N_1  and  O_21
REMARK    2  A    between atoms: C_2  and  C_6
REMARK    3  A    between atoms: C_2  and  C_13
REMARK    4  A    between atoms: N_12  and  C_15
REMARK    5  A    between atoms: C_15  and  C_16
REMARK    6  A    between atoms: C_16  and  O_17
REMARK    7  A    between atoms: C_16  and  O_19
REMARK    8  A    between atoms: O_21  and  C_22
REMARK    9  A    between atoms: C_22  and  C_26
REMARK   10  A    between atoms: C_26  and  O_27
REMARK                            x       y       z     vdW  Elec       q    Type
REMARK                         _______ _______ _______ _____ _____    ______ ____
ROOT
ATOM      1  N   UNL     1     -37.580  24.401   3.895  0.00  0.00    -0.076 NA
ATOM      2  C   UNL     1     -38.328  24.045   2.895  0.00  0.00    +0.198 C 
ENDROOT
BRANCH   2   6
ATOM      3  S   UNL     1     -40.703  26.506   0.952  0.00  0.00    -0.060 S 
ATOM      4  N   UNL     1     -40.292  25.449   3.275  0.00  0.00    -0.383 NA
ATOM      5  N   UNL     1     -42.138  26.921   3.153  0.00  0.00    -0.328 N 
ATOM      6  C   UNL     1     -39.342  24.987   2.409  0.00  0.00    +0.148 C 
ATOM      7  C   UNL     1     -39.381  25.426   1.120  0.00  0.00    +0.127 C 
ATOM      8  C   UNL     1     -41.075  26.269   2.610  0.00  0.00    +0.204 C 
ATOM      9  H   UNL     1     -42.683  27.521   2.595  0.00  0.00    +0.145 HD
ATOM     10  H   UNL     1     -42.362  26.793   4.103  0.00  0.00    +0.145 HD
ENDBRANCH   2   6
BRANCH   2  13
ATOM     11  O   UNL     1     -39.029  21.867   2.383  0.00  0.00    -0.268 OA
ATOM     12  N   UNL     1     -36.942  22.592   1.586  0.00  0.00    -0.295 N 
ATOM     13  C   UNL     1     -38.142  22.695   2.252  0.00  0.00    +0.269 C 
ATOM     14  H   UNL     1     -36.338  23.370   1.582  0.00  0.00    +0.150 HD
BRANCH  12  15
ATOM     15  C   UNL     1     -36.530  21.396   0.890  0.00  0.00    +0.151 C 
BRANCH  15  16
ATOM     16  C   UNL     1     -35.898  20.374   1.828  0.00  0.00    +0.249 C 
BRANCH  16  17
ATOM     17  O   UNL     1     -36.905  19.531   2.375  0.00  0.00    -0.359 OA
ATOM     18  H   UNL     1     -36.491  18.743   2.762  0.00  0.00    +0.213 HD
ENDBRANCH  16  17
BRANCH  16  19
ATOM     19  O   UNL     1     -35.144  21.014   2.848  0.00  0.00    -0.359 OA
ATOM     20  H   UNL     1     -35.571  21.850   3.091  0.00  0.00    +0.213 HD
ENDBRANCH  16  19
ENDBRANCH  15  16
ENDBRANCH  12  15
ENDBRANCH   2  13
BRANCH   1  21
ATOM     21  O   UNL     1     -36.659  23.401   4.238  0.00  0.00    -0.374 OA
BRANCH  21  22
ATOM     22  C   UNL     1     -35.649  23.991   5.043  0.00  0.00    +0.249 C 
ATOM     23  C   UNL     1     -36.212  25.275   5.644  0.00  0.00    +0.058 C 
ATOM     24  C   UNL     1     -35.247  22.977   6.112  0.00  0.00    +0.058 C 
BRANCH  22  26
ATOM     25  O   UNL     1     -33.460  24.858   4.424  0.00  0.00    -0.246 OA
ATOM     26  C   UNL     1     -34.492  24.283   4.098  0.00  0.00    +0.353 C 
BRANCH  26  27
ATOM     27  O   UNL     1     -34.705  23.842   2.832  0.00  0.00    -0.478 OA
ATOM     28  H   UNL     1     -35.447  23.301   2.644  0.00  0.00    +0.295 HD
ENDBRANCH  26  27
ENDBRANCH  22  26
ENDBRANCH  21  22
ENDBRANCH   1  21
TORSDOF 10
ENDMDL
MODEL 2
REMARK VINA RESULT:      -5.4      2.886      5.214
REMARK  Name = 5479265
REMARK  10 active torsions:
REMARK  status: ('A' for Active; 'I' for Inactive)
REMARK    1  A    between atoms: N_1  and  O_21
REMARK    2  A    between atoms: C_2  and  C_6
REMARK    3  A    between atoms: C_2  and  C_13
REMARK    4  A    between atoms: N_12  and  C_15
REMARK    5  A    between atoms: C_15  and  C_16
REMARK    6  A    between atoms: C_16  and  O_17
REMARK    7  A    between atoms: C_16  and  O_19
REMARK    8  A    between atoms: O_21  and  C_22
REMARK    9  A    between atoms: C_22  and  C_26
REMARK   10  A    between atoms: C_26  and  O_27
REMARK                            x       y       z     vdW  Elec       q    Type
REMARK                         _______ _______ _______ _____ _____    ______ ____
ROOT
ATOM      1  N   UNL     1     -37.063  25.285   4.108  0.00  0.00    -0.076 NA
ATOM      2  C   UNL     1     -35.939  24.808   4.550  0.00  0.00    +0.198 C 
ENDROOT
BRANCH   2   6
ATOM      3  S   UNL     1     -33.006  27.427   4.461  0.00  0.00    -0.060 S 
ATOM      4  N   UNL     1     -34.335  25.881   6.050  0.00  0.00    -0.383 NA
ATOM      5  N   UNL     1     -32.630  27.154   7.080  0.00  0.00    -0.328 N 
ATOM      6  C   UNL     1     -34.828  25.737   4.784  0.00  0.00    +0.148 C 
ATOM      7  C   UNL     1     -34.260  26.471   3.787  0.00  0.00    +0.127 C 
ATOM      8  C   UNL     1     -33.358  26.758   6.002  0.00  0.00    +0.204 C 
ATOM      9  H   UNL     1     -31.910  27.816   6.971  0.00  0.00    +0.145 HD
ATOM     10  H   UNL     1     -32.822  26.778   7.969  0.00  0.00    +0.145 HD
ENDBRANCH   2   6
BRANCH   2  13
ATOM     11  O   UNL     1     -35.946  22.938   5.965  0.00  0.00    -0.268 OA
ATOM     12  N   UNL     1     -35.500  22.618   3.681  0.00  0.00    -0.295 N 
ATOM     13  C   UNL     1     -35.795  23.332   4.820  0.00  0.00    +0.269 C 
ATOM     14  H   UNL     1     -35.413  23.104   2.829  0.00  0.00    +0.150 HD
BRANCH  12  15
ATOM     15  C   UNL     1     -35.311  21.186   3.680  0.00  0.00    +0.151 C 
BRANCH  15  16
ATOM     16  C   UNL     1     -35.696  20.556   2.346  0.00  0.00    +0.249 C 
BRANCH  16  17
ATOM     17  O   UNL     1     -35.960  21.574   1.389  0.00  0.00    -0.359 OA
ATOM     18  H   UNL     1     -36.823  21.978   1.576  0.00  0.00    +0.213 HD
ENDBRANCH  16  17
BRANCH  16  19
ATOM     19  O   UNL     1     -36.806  19.680   2.495  0.00  0.00    -0.359 OA
ATOM     20  H   UNL     1     -36.536  18.901   3.004  0.00  0.00    +0.213 HD
ENDBRANCH  16  19
ENDBRANCH  15  16
ENDBRANCH  12  15
ENDBRANCH   2  13
BRANCH   1  21
ATOM     21  O   UNL     1     -38.025  24.279   3.941  0.00  0.00    -0.374 OA
BRANCH  21  22
ATOM     22  C   UNL     1     -38.703  24.516   2.717  0.00  0.00    +0.249 C 
ATOM     23  C   UNL     1     -39.770  25.578   2.964  0.00  0.00    +0.058 C 
ATOM     24  C   UNL     1     -37.669  24.960   1.684  0.00  0.00    +0.058 C 
BRANCH  22  26
ATOM     25  O   UNL     1     -40.428  23.060   1.805  0.00  0.00    -0.246 OA
ATOM     26  C   UNL     1     -39.329  23.183   2.331  0.00  0.00    +0.353 C 
BRANCH  26  27
ATOM     27  O   UNL     1     -38.546  22.114   2.626  0.00  0.00    -0.478 OA
ATOM     28  H   UNL     1     -38.327  21.926   3.518  0.00  0.00    +0.295 HD
ENDBRANCH  26  27
ENDBRANCH  22  26
ENDBRANCH  21  22
ENDBRANCH   1  21
TORSDOF 10
ENDMDL
MODEL 3
REMARK VINA RESULT:      -5.4      1.410      1.801
REMARK  Name = 5479265
REMARK  10 active torsions:
REMARK  status: ('A' for Active; 'I' for Inactive)
REMARK    1  A    between atoms: N_1  and  O_21
REMARK    2  A    between atoms: C_2  and  C_6
REMARK    3  A    between atoms: C_2  and  C_13
REMARK    4  A    between atoms: N_12  and  C_15
REMARK    5  A    between atoms: C_15  and  C_16
REMARK    6  A    between atoms: C_16  and  O_17
REMARK    7  A    between atoms: C_16  and  O_19
REMARK    8  A    between atoms: O_21  and  C_22
REMARK    9  A    between atoms: C_22  and  C_26
REMARK   10  A    between atoms: C_26  and  O_27
REMARK                            x       y       z     vdW  Elec       q    Type
REMARK                         _______ _______ _______ _____ _____    ______ ____
ROOT
ATOM      1  N   UNL     1     -38.064  23.848   3.455  0.00  0.00    -0.076 NA
ATOM      2  C   UNL     1     -39.007  23.544   2.615  0.00  0.00    +0.198 C 
ENDROOT
BRANCH   2   6
ATOM      3  S   UNL     1     -41.591  26.032   1.002  0.00  0.00    -0.060 S 
ATOM      4  N   UNL     1     -40.455  25.411   3.239  0.00  0.00    -0.383 NA
ATOM      5  N   UNL     1     -41.983  27.212   3.353  0.00  0.00    -0.328 N 
ATOM      6  C   UNL     1     -39.991  24.574   2.264  0.00  0.00    +0.148 C 
ATOM      7  C   UNL     1     -40.469  24.735   0.999  0.00  0.00    +0.127 C 
ATOM      8  C   UNL     1     -41.316  26.234   2.683  0.00  0.00    +0.204 C 
ATOM      9  H   UNL     1     -42.615  27.794   2.872  0.00  0.00    +0.145 HD
ATOM     10  H   UNL     1     -41.833  27.338   4.318  0.00  0.00    +0.145 HD
ENDBRANCH   2   6
BRANCH   2  13
ATOM     11  O   UNL     1     -40.028  21.458   2.291  0.00  0.00    -0.268 OA
ATOM     12  N   UNL     1     -37.988  21.890   1.210  0.00  0.00    -0.295 N 
ATOM     13  C   UNL     1     -39.071  22.163   2.015  0.00  0.00    +0.269 C 
ATOM     14  H   UNL     1     -37.299  22.584   1.096  0.00  0.00    +0.150 HD
BRANCH  12  15
ATOM     15  C   UNL     1     -37.819  20.631   0.523  0.00  0.00    +0.151 C 
BRANCH  15  16
ATOM     16  C   UNL     1     -36.736  19.769   1.161  0.00  0.00    +0.249 C 
BRANCH  16  17
ATOM     17  O   UNL     1     -36.870  18.422   0.726  0.00  0.00    -0.359 OA
ATOM     18  H   UNL     1     -36.225  17.866   1.191  0.00  0.00    +0.213 HD
ENDBRANCH  16  17
BRANCH  16  19
ATOM     19  O   UNL     1     -36.774  19.866   2.578  0.00  0.00    -0.359 OA
ATOM     20  H   UNL     1     -36.142  19.239   2.962  0.00  0.00    +0.213 HD
ENDBRANCH  16  19
ENDBRANCH  15  16
ENDBRANCH  12  15
ENDBRANCH   2  13
BRANCH   1  21
ATOM     21  O   UNL     1     -37.202  22.767   3.683  0.00  0.00    -0.374 OA
BRANCH  21  22
ATOM     22  C   UNL     1     -35.982  23.278   4.197  0.00  0.00    +0.249 C 
ATOM     23  C   UNL     1     -35.001  23.419   3.037  0.00  0.00    +0.058 C 
ATOM     24  C   UNL     1     -36.277  24.614   4.874  0.00  0.00    +0.058 C 
BRANCH  22  26
ATOM     25  O   UNL     1     -35.223  22.493   6.374  0.00  0.00    -0.246 OA
ATOM     26  C   UNL     1     -35.499  22.245   5.207  0.00  0.00    +0.353 C 
BRANCH  26  27
ATOM     27  O   UNL     1     -35.399  20.993   4.690  0.00  0.00    -0.478 OA
ATOM     28  H   UNL     1     -34.674  20.447   4.925  0.00  0.00    +0.295 HD
ENDBRANCH  26  27
ENDBRANCH  22  26
ENDBRANCH  21  22
ENDBRANCH   1  21
TORSDOF 10
ENDMDL
MODEL 4
REMARK VINA RESULT:      -5.1      2.610      3.384
REMARK  Name = 5479265
REMARK  10 active torsions:
REMARK  status: ('A' for Active; 'I' for Inactive)
REMARK    1  A    between atoms: N_1  and  O_21
REMARK    2  A    between atoms: C_2  and  C_6
REMARK    3  A    between atoms: C_2  and  C_13
REMARK    4  A    between atoms: N_12  and  C_15
REMARK    5  A    between atoms: C_15  and  C_16
REMARK    6  A    between atoms: C_16  and  O_17
REMARK    7  A    between atoms: C_16  and  O_19
REMARK    8  A    between atoms: O_21  and  C_22
REMARK    9  A    between atoms: C_22  and  C_26
REMARK   10  A    between atoms: C_26  and  O_27
REMARK                            x       y       z     vdW  Elec       q    Type
REMARK                         _______ _______ _______ _____ _____    ______ ____
ROOT
ATOM      1  N   UNL     1     -36.180  24.924   4.068  0.00  0.00    -0.076 NA
ATOM      2  C   UNL     1     -37.032  25.377   3.199  0.00  0.00    +0.198 C 
ENDROOT
BRANCH   2   6
ATOM      3  S   UNL     1     -35.573  28.708   1.700  0.00  0.00    -0.060 S 
ATOM      4  N   UNL     1     -37.573  27.079   1.531  0.00  0.00    -0.383 NA
ATOM      5  N   UNL     1     -37.659  28.932   0.065  0.00  0.00    -0.328 N 
ATOM      6  C   UNL     1     -36.711  26.618   2.485  0.00  0.00    +0.148 C 
ATOM      7  C   UNL     1     -35.582  27.338   2.732  0.00  0.00    +0.127 C 
ATOM      8  C   UNL     1     -37.070  28.190   1.042  0.00  0.00    +0.204 C 
ATOM      9  H   UNL     1     -37.226  29.756  -0.255  0.00  0.00    +0.145 HD
ATOM     10  H   UNL     1     -38.518  28.645  -0.321  0.00  0.00    +0.145 HD
ENDBRANCH   2   6
BRANCH   2  13
ATOM     11  O   UNL     1     -39.257  24.821   3.688  0.00  0.00    -0.268 OA
ATOM     12  N   UNL     1     -38.227  23.807   1.837  0.00  0.00    -0.295 N 
ATOM     13  C   UNL     1     -38.315  24.631   2.936  0.00  0.00    +0.269 C 
ATOM     14  H   UNL     1     -37.378  23.777   1.339  0.00  0.00    +0.150 HD
BRANCH  12  15
ATOM     15  C   UNL     1     -39.324  22.986   1.382  0.00  0.00    +0.151 C 
BRANCH  15  16
ATOM     16  C   UNL     1     -39.440  21.690   2.175  0.00  0.00    +0.249 C 
BRANCH  16  17
ATOM     17  O   UNL     1     -38.162  21.076   2.289  0.00  0.00    -0.359 OA
ATOM     18  H   UNL     1     -38.130  20.545   3.101  0.00  0.00    +0.213 HD
ENDBRANCH  16  17
BRANCH  16  19
ATOM     19  O   UNL     1     -40.389  20.812   1.585  0.00  0.00    -0.359 OA
ATOM     20  H   UNL     1     -40.480  21.020   0.643  0.00  0.00    +0.213 HD
ENDBRANCH  16  19
ENDBRANCH  15  16
ENDBRANCH  12  15
ENDBRANCH   2  13
BRANCH   1  21
ATOM     21  O   UNL     1     -36.623  23.732   4.659  0.00  0.00    -0.374 OA
BRANCH  21  22
ATOM     22  C   UNL     1     -35.489  22.916   4.909  0.00  0.00    +0.249 C 
ATOM     23  C   UNL     1     -34.253  23.810   4.908  0.00  0.00    +0.058 C 
ATOM     24  C   UNL     1     -35.698  22.216   6.250  0.00  0.00    +0.058 C 
BRANCH  22  26
ATOM     25  O   UNL     1     -35.373  20.699   3.910  0.00  0.00    -0.246 OA
ATOM     26  C   UNL     1     -35.447  21.913   3.765  0.00  0.00    +0.353 C 
BRANCH  26  27
ATOM     27  O   UNL     1     -35.499  22.492   2.538  0.00  0.00    -0.478 OA
ATOM     28  H   UNL     1     -34.971  23.244   2.352  0.00  0.00    +0.295 HD
ENDBRANCH  26  27
ENDBRANCH  22  26
ENDBRANCH  21  22
ENDBRANCH   1  21
TORSDOF 10
ENDMDL
MODEL 5
REMARK VINA RESULT:      -5.1      4.163      6.335
REMARK  Name = 5479265
REMARK  10 active torsions:
REMARK  status: ('A' for Active; 'I' for Inactive)
REMARK    1  A    between atoms: N_1  and  O_21
REMARK    2  A    between atoms: C_2  and  C_6
REMARK    3  A    between atoms: C_2  and  C_13
REMARK    4  A    between atoms: N_12  and  C_15
REMARK    5  A    between atoms: C_15  and  C_16
REMARK    6  A    between atoms: C_16  and  O_17
REMARK    7  A    between atoms: C_16  and  O_19
REMARK    8  A    between atoms: O_21  and  C_22
REMARK    9  A    between atoms: C_22  and  C_26
REMARK   10  A    between atoms: C_26  and  O_27
REMARK                            x       y       z     vdW  Elec       q    Type
REMARK                         _______ _______ _______ _____ _____    ______ ____
ROOT
ATOM      1  N   UNL     1     -33.833  25.187   4.141  0.00  0.00    -0.076 NA
ATOM      2  C   UNL     1     -33.759  26.385   3.644  0.00  0.00    +0.198 C 
ENDROOT
BRANCH   2   6
ATOM      3  S   UNL     1     -31.388  29.289   4.832  0.00  0.00    -0.060 S 
ATOM      4  N   UNL     1     -32.888  27.373   5.703  0.00  0.00    -0.383 NA
ATOM      5  N   UNL     1     -31.807  28.643   7.378  0.00  0.00    -0.328 N 
ATOM      6  C   UNL     1     -32.934  27.381   4.338  0.00  0.00    +0.148 C 
ATOM      7  C   UNL     1     -32.206  28.322   3.676  0.00  0.00    +0.127 C 
ATOM      8  C   UNL     1     -32.092  28.348   6.081  0.00  0.00    +0.204 C 
ATOM      9  H   UNL     1     -31.201  29.389   7.590  0.00  0.00    +0.145 HD
ATOM     10  H   UNL     1     -32.205  28.111   8.104  0.00  0.00    +0.145 HD
ENDBRANCH   2   6
BRANCH   2  13
ATOM     11  O   UNL     1     -33.936  26.551   1.312  0.00  0.00    -0.268 OA
ATOM     12  N   UNL     1     -35.765  27.214   2.627  0.00  0.00    -0.295 N 
ATOM     13  C   UNL     1     -34.501  26.727   2.379  0.00  0.00    +0.269 C 
ATOM     14  H   UNL     1     -36.064  27.291   3.562  0.00  0.00    +0.150 HD
BRANCH  12  15
ATOM     15  C   UNL     1     -36.672  27.615   1.578  0.00  0.00    +0.151 C 
BRANCH  15  16
ATOM     16  C   UNL     1     -37.882  26.693   1.481  0.00  0.00    +0.249 C 
BRANCH  16  17
ATOM     17  O   UNL     1     -38.561  26.652   2.730  0.00  0.00    -0.359 OA
ATOM     18  H   UNL     1     -38.771  25.730   2.953  0.00  0.00    +0.213 HD
ENDBRANCH  16  17
BRANCH  16  19
ATOM     19  O   UNL     1     -37.502  25.393   1.050  0.00  0.00    -0.359 OA
ATOM     20  H   UNL     1     -38.276  24.809   1.061  0.00  0.00    +0.213 HD
ENDBRANCH  16  19
ENDBRANCH  15  16
ENDBRANCH  12  15
ENDBRANCH   2  13
BRANCH   1  21
ATOM     21  O   UNL     1     -34.650  24.352   3.366  0.00  0.00    -0.374 OA
BRANCH  21  22
ATOM     22  C   UNL     1     -35.475  23.604   4.245  0.00  0.00    +0.249 C 
ATOM     23  C   UNL     1     -35.586  22.184   3.698  0.00  0.00    +0.058 C 
ATOM     24  C   UNL     1     -34.843  23.643   5.635  0.00  0.00    +0.058 C 
BRANCH  22  26
ATOM     25  O   UNL     1     -37.827  23.876   3.676  0.00  0.00    -0.246 OA
ATOM     26  C   UNL     1     -36.826  24.307   4.235  0.00  0.00    +0.353 C 
BRANCH  26  27
ATOM     27  O   UNL     1     -36.827  25.481   4.917  0.00  0.00    -0.478 OA
ATOM     28  H   UNL     1     -36.614  25.493   5.830  0.00  0.00    +0.295 HD
ENDBRANCH  26  27
ENDBRANCH  22  26
ENDBRANCH  21  22
ENDBRANCH   1  21
TORSDOF 10
ENDMDL
MODEL 6
REMARK VINA RESULT:      -5.1      2.944      5.835
REMARK  Name = 5479265
REMARK  10 active torsions:
REMARK  status: ('A' for Active; 'I' for Inactive)
REMARK    1  A    between atoms: N_1  and  O_21
REMARK    2  A    between atoms: C_2  and  C_6
REMARK    3  A    between atoms: C_2  and  C_13
REMARK    4  A    between atoms: N_12  and  C_15
REMARK    5  A    between atoms: C_15  and  C_16
REMARK    6  A    between atoms: C_16  and  O_17
REMARK    7  A    between atoms: C_16  and  O_19
REMARK    8  A    between atoms: O_21  and  C_22
REMARK    9  A    between atoms: C_22  and  C_26
REMARK   10  A    between atoms: C_26  and  O_27
REMARK                            x       y       z     vdW  Elec       q    Type
REMARK                         _______ _______ _______ _____ _____    ______ ____
ROOT
ATOM      1  N   UNL     1     -38.275  23.172   2.659  0.00  0.00    -0.076 NA
ATOM      2  C   UNL     1     -37.111  22.690   2.976  0.00  0.00    +0.198 C 
ENDROOT
BRANCH   2   6
ATOM      3  S   UNL     1     -36.444  19.550   0.704  0.00  0.00    -0.060 S 
ATOM      4  N   UNL     1     -35.363  21.048   2.511  0.00  0.00    -0.383 NA
ATOM      5  N   UNL     1     -34.007  19.274   1.734  0.00  0.00    -0.328 N 
ATOM      6  C   UNL     1     -36.619  21.514   2.250  0.00  0.00    +0.148 C 
ATOM      7  C   UNL     1     -37.366  20.859   1.318  0.00  0.00    +0.127 C 
ATOM      8  C   UNL     1     -35.157  20.001   1.745  0.00  0.00    +0.204 C 
ATOM      9  H   UNL     1     -33.921  18.499   1.132  0.00  0.00    +0.145 HD
ATOM     10  H   UNL     1     -33.261  19.523   2.326  0.00  0.00    +0.145 HD
ENDBRANCH   2   6
BRANCH   2  13
ATOM     11  O   UNL     1     -36.387  22.902   5.196  0.00  0.00    -0.268 OA
ATOM     12  N   UNL     1     -35.527  24.382   3.587  0.00  0.00    -0.295 N 
ATOM     13  C   UNL     1     -36.292  23.341   4.061  0.00  0.00    +0.269 C 
ATOM     14  H   UNL     1     -35.573  24.602   2.629  0.00  0.00    +0.150 HD
BRANCH  12  15
ATOM     15  C   UNL     1     -34.657  25.165   4.433  0.00  0.00    +0.151 C 
BRANCH  15  16
ATOM     16  C   UNL     1     -35.359  26.393   5.000  0.00  0.00    +0.249 C 
BRANCH  16  17
ATOM     17  O   UNL     1     -36.724  26.094   5.260  0.00  0.00    -0.359 OA
ATOM     18  H   UNL     1     -36.792  25.591   6.088  0.00  0.00    +0.213 HD
ENDBRANCH  16  17
BRANCH  16  19
ATOM     19  O   UNL     1     -35.227  27.506   4.125  0.00  0.00    -0.359 OA
ATOM     20  H   UNL     1     -34.509  28.079   4.437  0.00  0.00    +0.213 HD
ENDBRANCH  16  19
ENDBRANCH  15  16
ENDBRANCH  12  15
ENDBRANCH   2  13
BRANCH   1  21
ATOM     21  O   UNL     1     -38.602  24.295   3.432  0.00  0.00    -0.374 OA
BRANCH  21  22
ATOM     22  C   UNL     1     -39.470  25.118   2.668  0.00  0.00    +0.249 C 
ATOM     23  C   UNL     1     -40.075  24.265   1.557  0.00  0.00    +0.058 C 
ATOM     24  C   UNL     1     -40.531  25.686   3.608  0.00  0.00    +0.058 C 
BRANCH  22  26
ATOM     25  O   UNL     1     -37.409  26.382   2.382  0.00  0.00    -0.246 OA
ATOM     26  C   UNL     1     -38.590  26.223   2.099  0.00  0.00    +0.353 C 
BRANCH  26  27
ATOM     27  O   UNL     1     -39.241  27.037   1.230  0.00  0.00    -0.478 OA
ATOM     28  H   UNL     1     -39.355  27.945   1.434  0.00  0.00    +0.295 HD
ENDBRANCH  26  27
ENDBRANCH  22  26
ENDBRANCH  21  22
ENDBRANCH   1  21
TORSDOF 10
ENDMDL
MODEL 7
REMARK VINA RESULT:      -5.1      3.839      5.990
REMARK  Name = 5479265
REMARK  10 active torsions:
REMARK  status: ('A' for Active; 'I' for Inactive)
REMARK    1  A    between atoms: N_1  and  O_21
REMARK    2  A    between atoms: C_2  and  C_6
REMARK    3  A    between atoms: C_2  and  C_13
REMARK    4  A    between atoms: N_12  and  C_15
REMARK    5  A    between atoms: C_15  and  C_16
REMARK    6  A    between atoms: C_16  and  O_17
REMARK    7  A    between atoms: C_16  and  O_19
REMARK    8  A    between atoms: O_21  and  C_22
REMARK    9  A    between atoms: C_22  and  C_26
REMARK   10  A    between atoms: C_26  and  O_27
REMARK                            x       y       z     vdW  Elec       q    Type
REMARK                         _______ _______ _______ _____ _____    ______ ____
ROOT
ATOM      1  N   UNL     1     -34.972  25.897   2.945  0.00  0.00    -0.076 NA
ATOM      2  C   UNL     1     -34.575  26.050   4.172  0.00  0.00    +0.198 C 
ENDROOT
BRANCH   2   6
ATOM      3  S   UNL     1     -32.047  29.061   4.272  0.00  0.00    -0.060 S 
ATOM      4  N   UNL     1     -32.976  27.108   5.687  0.00  0.00    -0.383 NA
ATOM      5  N   UNL     1     -31.354  28.448   6.765  0.00  0.00    -0.328 N 
ATOM      6  C   UNL     1     -33.580  27.088   4.462  0.00  0.00    +0.148 C 
ATOM      7  C   UNL     1     -33.228  28.044   3.557  0.00  0.00    +0.127 C 
ATOM      8  C   UNL     1     -32.136  28.118   5.702  0.00  0.00    +0.204 C 
ATOM      9  H   UNL     1     -30.746  29.220   6.707  0.00  0.00    +0.145 HD
ATOM     10  H   UNL     1     -31.396  27.915   7.592  0.00  0.00    +0.145 HD
ENDBRANCH   2   6
BRANCH   2  13
ATOM     11  O   UNL     1     -36.007  25.646   5.985  0.00  0.00    -0.268 OA
ATOM     12  N   UNL     1     -34.563  23.929   5.289  0.00  0.00    -0.295 N 
ATOM     13  C   UNL     1     -35.139  25.179   5.265  0.00  0.00    +0.269 C 
ATOM     14  H   UNL     1     -33.869  23.718   4.624  0.00  0.00    +0.150 HD
BRANCH  12  15
ATOM     15  C   UNL     1     -34.933  22.913   6.246  0.00  0.00    +0.151 C 
BRANCH  15  16
ATOM     16  C   UNL     1     -35.871  21.872   5.646  0.00  0.00    +0.249 C 
BRANCH  16  17
ATOM     17  O   UNL     1     -35.201  20.622   5.538  0.00  0.00    -0.359 OA
ATOM     18  H   UNL     1     -34.376  20.652   6.049  0.00  0.00    +0.213 HD
ENDBRANCH  16  17
BRANCH  16  19
ATOM     19  O   UNL     1     -36.376  22.302   4.389  0.00  0.00    -0.359 OA
ATOM     20  H   UNL     1     -36.420  21.548   3.782  0.00  0.00    +0.213 HD
ENDBRANCH  16  19
ENDBRANCH  15  16
ENDBRANCH  12  15
ENDBRANCH   2  13
BRANCH   1  21
ATOM     21  O   UNL     1     -35.925  24.875   2.830  0.00  0.00    -0.374 OA
BRANCH  21  22
ATOM     22  C   UNL     1     -36.993  25.358   2.029  0.00  0.00    +0.249 C 
ATOM     23  C   UNL     1     -36.543  26.661   1.375  0.00  0.00    +0.058 C 
ATOM     24  C   UNL     1     -37.338  24.282   1.003  0.00  0.00    +0.058 C 
BRANCH  22  26
ATOM     25  O   UNL     1     -39.009  26.454   2.843  0.00  0.00    -0.246 OA
ATOM     26  C   UNL     1     -38.150  25.594   2.991  0.00  0.00    +0.353 C 
BRANCH  26  27
ATOM     27  O   UNL     1     -38.149  24.747   4.052  0.00  0.00    -0.478 OA
ATOM     28  H   UNL     1     -37.882  23.856   3.940  0.00  0.00    +0.295 HD
ENDBRANCH  26  27
ENDBRANCH  22  26
ENDBRANCH  21  22
ENDBRANCH   1  21
TORSDOF 10
ENDMDL
MODEL 8
REMARK VINA RESULT:      -5.0      3.251      6.416
REMARK  Name = 5479265
REMARK  10 active torsions:
REMARK  status: ('A' for Active; 'I' for Inactive)
REMARK    1  A    between atoms: N_1  and  O_21
REMARK    2  A    between atoms: C_2  and  C_6
REMARK    3  A    between atoms: C_2  and  C_13
REMARK    4  A    between atoms: N_12  and  C_15
REMARK    5  A    between atoms: C_15  and  C_16
REMARK    6  A    between atoms: C_16  and  O_17
REMARK    7  A    between atoms: C_16  and  O_19
REMARK    8  A    between atoms: O_21  and  C_22
REMARK    9  A    between atoms: C_22  and  C_26
REMARK   10  A    between atoms: C_26  and  O_27
REMARK                            x       y       z     vdW  Elec       q    Type
REMARK                         _______ _______ _______ _____ _____    ______ ____
ROOT
ATOM      1  N   UNL     1     -37.100  22.160   2.225  0.00  0.00    -0.076 NA
ATOM      2  C   UNL     1     -35.924  21.925   2.725  0.00  0.00    +0.198 C 
ENDROOT
BRANCH   2   6
ATOM      3  S   UNL     1     -33.273  20.527   0.178  0.00  0.00    -0.060 S 
ATOM      4  N   UNL     1     -34.690  19.873   2.239  0.00  0.00    -0.383 NA
ATOM      5  N   UNL     1     -33.299  18.159   1.391  0.00  0.00    -0.328 N 
ATOM      6  C   UNL     1     -34.958  21.173   1.917  0.00  0.00    +0.148 C 
ATOM      7  C   UNL     1     -34.308  21.717   0.851  0.00  0.00    +0.127 C 
ATOM      8  C   UNL     1     -33.804  19.422   1.379  0.00  0.00    +0.204 C 
ATOM      9  H   UNL     1     -32.636  17.889   0.715  0.00  0.00    +0.145 HD
ATOM     10  H   UNL     1     -33.595  17.517   2.075  0.00  0.00    +0.145 HD
ENDBRANCH   2   6
BRANCH   2  13
ATOM     11  O   UNL     1     -35.434  21.608   4.996  0.00  0.00    -0.268 OA
ATOM     12  N   UNL     1     -35.456  23.798   4.146  0.00  0.00    -0.295 N 
ATOM     13  C   UNL     1     -35.572  22.427   4.101  0.00  0.00    +0.269 C 
ATOM     14  H   UNL     1     -35.602  24.310   3.318  0.00  0.00    +0.150 HD
BRANCH  12  15
ATOM     15  C   UNL     1     -35.127  24.519   5.353  0.00  0.00    +0.151 C 
BRANCH  15  16
ATOM     16  C   UNL     1     -35.089  26.026   5.131  0.00  0.00    +0.249 C 
BRANCH  16  17
ATOM     17  O   UNL     1     -34.065  26.607   5.929  0.00  0.00    -0.359 OA
ATOM     18  H   UNL     1     -33.199  26.288   5.627  0.00  0.00    +0.213 HD
ENDBRANCH  16  17
BRANCH  16  19
ATOM     19  O   UNL     1     -36.355  26.615   5.396  0.00  0.00    -0.359 OA
ATOM     20  H   UNL     1     -36.790  26.837   4.559  0.00  0.00    +0.213 HD
ENDBRANCH  16  19
ENDBRANCH  15  16
ENDBRANCH  12  15
ENDBRANCH   2  13
BRANCH   1  21
ATOM     21  O   UNL     1     -37.905  22.892   3.110  0.00  0.00    -0.374 OA
BRANCH  21  22
ATOM     22  C   UNL     1     -38.764  23.719   2.341  0.00  0.00    +0.249 C 
ATOM     23  C   UNL     1     -37.945  24.330   1.208  0.00  0.00    +0.058 C 
ATOM     24  C   UNL     1     -39.914  22.856   1.826  0.00  0.00    +0.058 C 
BRANCH  22  26
ATOM     25  O   UNL     1     -40.361  25.334   3.219  0.00  0.00    -0.246 OA
ATOM     26  C   UNL     1     -39.267  24.790   3.300  0.00  0.00    +0.353 C 
BRANCH  26  27
ATOM     27  O   UNL     1     -38.377  25.098   4.278  0.00  0.00    -0.478 OA
ATOM     28  H   UNL     1     -38.507  24.773   5.148  0.00  0.00    +0.295 HD
ENDBRANCH  26  27
ENDBRANCH  22  26
ENDBRANCH  21  22
ENDBRANCH   1  21
TORSDOF 10
ENDMDL
MODEL 9
REMARK VINA RESULT:      -5.0      2.839      5.263
REMARK  Name = 5479265
REMARK  10 active torsions:
REMARK  status: ('A' for Active; 'I' for Inactive)
REMARK    1  A    between atoms: N_1  and  O_21
REMARK    2  A    between atoms: C_2  and  C_6
REMARK    3  A    between atoms: C_2  and  C_13
REMARK    4  A    between atoms: N_12  and  C_15
REMARK    5  A    between atoms: C_15  and  C_16
REMARK    6  A    between atoms: C_16  and  O_17
REMARK    7  A    between atoms: C_16  and  O_19
REMARK    8  A    between atoms: O_21  and  C_22
REMARK    9  A    between atoms: C_22  and  C_26
REMARK   10  A    between atoms: C_26  and  O_27
REMARK                            x       y       z     vdW  Elec       q    Type
REMARK                         _______ _______ _______ _____ _____    ______ ____
ROOT
ATOM      1  N   UNL     1     -36.709  22.362   3.405  0.00  0.00    -0.076 NA
ATOM      2  C   UNL     1     -37.254  22.287   2.229  0.00  0.00    +0.198 C 
ENDROOT
BRANCH   2   6
ATOM      3  S   UNL     1     -37.218  19.240  -0.258  0.00  0.00    -0.060 S 
ATOM      4  N   UNL     1     -35.843  20.393   1.602  0.00  0.00    -0.383 NA
ATOM      5  N   UNL     1     -34.849  18.462   0.668  0.00  0.00    -0.328 N 
ATOM      6  C   UNL     1     -37.000  21.093   1.414  0.00  0.00    +0.148 C 
ATOM      7  C   UNL     1     -37.873  20.648   0.469  0.00  0.00    +0.127 C 
ATOM      8  C   UNL     1     -35.847  19.380   0.765  0.00  0.00    +0.204 C 
ATOM      9  H   UNL     1     -34.918  17.727   0.016  0.00  0.00    +0.145 HD
ATOM     10  H   UNL     1     -34.057  18.532   1.249  0.00  0.00    +0.145 HD
ENDBRANCH   2   6
BRANCH   2  13
ATOM     11  O   UNL     1     -37.646  24.222   0.964  0.00  0.00    -0.268 OA
ATOM     12  N   UNL     1     -39.411  23.333   2.234  0.00  0.00    -0.295 N 
ATOM     13  C   UNL     1     -38.132  23.404   1.728  0.00  0.00    +0.269 C 
ATOM     14  H   UNL     1     -39.635  22.595   2.846  0.00  0.00    +0.150 HD
BRANCH  12  15
ATOM     15  C   UNL     1     -40.439  24.291   1.904  0.00  0.00    +0.151 C 
BRANCH  15  16
ATOM     16  C   UNL     1     -40.424  25.495   2.839  0.00  0.00    +0.249 C 
BRANCH  16  17
ATOM     17  O   UNL     1     -39.579  26.509   2.310  0.00  0.00    -0.359 OA
ATOM     18  H   UNL     1     -39.985  27.378   2.459  0.00  0.00    +0.213 HD
ENDBRANCH  16  17
BRANCH  16  19
ATOM     19  O   UNL     1     -40.029  25.119   4.151  0.00  0.00    -0.359 OA
ATOM     20  H   UNL     1     -40.795  24.774   4.634  0.00  0.00    +0.213 HD
ENDBRANCH  16  19
ENDBRANCH  15  16
ENDBRANCH  12  15
ENDBRANCH   2  13
BRANCH   1  21
ATOM     21  O   UNL     1     -37.049  23.553   4.062  0.00  0.00    -0.374 OA
BRANCH  21  22
ATOM     22  C   UNL     1     -35.860  24.119   4.592  0.00  0.00    +0.249 C 
ATOM     23  C   UNL     1     -35.457  23.307   5.819  0.00  0.00    +0.058 C 
ATOM     24  C   UNL     1     -34.795  24.088   3.499  0.00  0.00    +0.058 C 
BRANCH  22  26
ATOM     25  O   UNL     1     -35.582  26.242   5.751  0.00  0.00    -0.246 OA
ATOM     26  C   UNL     1     -36.221  25.549   4.969  0.00  0.00    +0.353 C 
BRANCH  26  27
ATOM     27  O   UNL     1     -37.340  26.004   4.348  0.00  0.00    -0.478 OA
ATOM     28  H   UNL     1     -37.544  25.715   3.481  0.00  0.00    +0.295 HD
ENDBRANCH  26  27
ENDBRANCH  22  26
ENDBRANCH  21  22
ENDBRANCH   1  21
TORSDOF 10
ENDMDL
