MODEL 1
REMARK VINA RESULT:      -5.4      0.000      0.000
REMARK  Name = 197244
REMARK  10 active torsions:
REMARK  status: ('A' for Active; 'I' for Inactive)
REMARK    1  A    between atoms: C_1  and  N_2
REMARK    2  A    between atoms: C_1  and  C_7
REMARK    3  A    between atoms: C_1  and  C_17
REMARK    4  A    between atoms: C_7  and  O_8
REMARK    5  A    between atoms: O_8  and  C_10
REMARK    6  A    between atoms: C_10  and  C_11
REMARK    7  A    between atoms: C_11  and  N_13
REMARK    8  A    between atoms: C_17  and  N_19
REMARK    9  A    between atoms: C_20  and  C_23
REMARK   10  A    between atoms: C_24  and  C_27
REMARK                            x       y       z     vdW  Elec       q    Type
REMARK                         _______ _______ _______ _____ _____    ______ ____
ROOT
ATOM      1  C   UNL     1     -34.529  26.561   3.645  0.00  0.00    +0.056 C 
ENDROOT
BRANCH   1   2
ATOM      2  N   UNL     1     -35.901  27.012   3.408  0.00  0.00    +0.390 N 
ATOM      3  H   UNL     1     -36.240  26.620   2.530  0.00  0.00    -0.088 HD
ATOM      4  H   UNL     1     -35.919  28.030   3.355  0.00  0.00    -0.088 HD
ATOM      5  H   UNL     1     -36.498  26.700   4.174  0.00  0.00    -0.088 HD
ENDBRANCH   1   2
BRANCH   1   7
ATOM      6  O   UNL     1     -34.582  26.431   6.079  0.00  0.00    -0.252 OA
ATOM      7  C   UNL     1     -34.511  25.861   4.997  0.00  0.00    +0.304 C 
BRANCH   7   8
ATOM      8  O   UNL     1     -34.427  24.510   4.787  0.00  0.00    -0.395 OA
BRANCH   8  10
ATOM      9  O   UNL     1     -36.722  24.179   4.767  0.00  0.00    -0.252 OA
ATOM     10  C   UNL     1     -35.575  23.770   4.892  0.00  0.00    +0.303 C 
BRANCH  10  11
ATOM     11  C   UNL     1     -35.195  22.329   5.185  0.00  0.00    +0.036 C 
ATOM     12  C   UNL     1     -35.449  21.444   3.972  0.00  0.00    -0.013 C 
BRANCH  11  13
ATOM     13  N   UNL     1     -35.992  21.854   6.316  0.00  0.00    +0.389 N 
ATOM     14  H   UNL     1     -36.876  22.362   6.346  0.00  0.00    -0.088 HD
ATOM     15  H   UNL     1     -35.478  22.013   7.183  0.00  0.00    -0.088 HD
ATOM     16  H   UNL     1     -36.175  20.857   6.207  0.00  0.00    -0.088 HD
ENDBRANCH  11  13
ENDBRANCH  10  11
ENDBRANCH   8  10
ENDBRANCH   7   8
ENDBRANCH   1   7
BRANCH   1  17
ATOM     17  C   UNL     1     -33.588  27.764   3.643  0.00  0.00    +0.079 C 
BRANCH  17  19
ATOM     18  O   UNL     1     -32.505  29.817   5.394  0.00  0.00    -0.272 OA
ATOM     19  N   UNL     1     -32.530  27.625   4.608  0.00  0.00    -0.304 N 
ATOM     20  C   UNL     1     -32.081  28.668   5.401  0.00  0.00    +0.253 C 
ATOM     21  H   UNL     1     -32.103  26.743   4.710  0.00  0.00    +0.149 HD
BRANCH  20  23
ATOM     22  O   UNL     1     -30.173  29.406   6.760  0.00  0.00    -0.335 OA
ATOM     23  C   UNL     1     -30.975  28.297   6.334  0.00  0.00    +0.227 C 
ATOM     24  C   UNL     1     -29.539  28.432   5.922  0.00  0.00    +0.227 C 
BRANCH  24  27
ATOM     25  O   UNL     1     -28.044  26.640   6.079  0.00  0.00    -0.273 OA
ATOM     26  N   UNL     1     -28.069  28.185   7.792  0.00  0.00    -0.327 N 
ATOM     27  C   UNL     1     -28.486  27.661   6.590  0.00  0.00    +0.250 C 
ATOM     28  H   UNL     1     -27.364  27.731   8.308  0.00  0.00    +0.145 HD
ATOM     29  H   UNL     1     -28.475  29.013   8.134  0.00  0.00    +0.145 HD
ENDBRANCH  24  27
ENDBRANCH  20  23
ENDBRANCH  17  19
ENDBRANCH   1  17
TORSDOF 10
ENDMDL
MODEL 2
REMARK VINA RESULT:      -5.4      2.609      3.693
REMARK  Name = 197244
REMARK  10 active torsions:
REMARK  status: ('A' for Active; 'I' for Inactive)
REMARK    1  A    between atoms: C_1  and  N_2
REMARK    2  A    between atoms: C_1  and  C_7
REMARK    3  A    between atoms: C_1  and  C_17
REMARK    4  A    between atoms: C_7  and  O_8
REMARK    5  A    between atoms: O_8  and  C_10
REMARK    6  A    between atoms: C_10  and  C_11
REMARK    7  A    between atoms: C_11  and  N_13
REMARK    8  A    between atoms: C_17  and  N_19
REMARK    9  A    between atoms: C_20  and  C_23
REMARK   10  A    between atoms: C_24  and  C_27
REMARK                            x       y       z     vdW  Elec       q    Type
REMARK                         _______ _______ _______ _____ _____    ______ ____
ROOT
ATOM      1  C   UNL     1     -36.682  24.717   4.149  0.00  0.00    +0.056 C 
ENDROOT
BRANCH   1   2
ATOM      2  N   UNL     1     -38.134  24.868   4.047  0.00  0.00    +0.390 N 
ATOM      3  H   UNL     1     -38.535  24.026   3.634  0.00  0.00    -0.088 HD
ATOM      4  H   UNL     1     -38.352  25.672   3.458  0.00  0.00    -0.088 HD
ATOM      5  H   UNL     1     -38.527  25.011   4.978  0.00  0.00    -0.088 HD
ENDBRANCH   1   2
BRANCH   1   7
ATOM      6  O   UNL     1     -36.029  22.758   5.443  0.00  0.00    -0.252 OA
ATOM      7  C   UNL     1     -36.396  23.240   4.379  0.00  0.00    +0.304 C 
BRANCH   7   8
ATOM      8  O   UNL     1     -36.640  22.563   3.214  0.00  0.00    -0.395 OA
BRANCH   8  10
ATOM      9  O   UNL     1     -34.766  22.739   1.858  0.00  0.00    -0.252 OA
ATOM     10  C   UNL     1     -35.565  22.082   2.513  0.00  0.00    +0.303 C 
BRANCH  10  11
ATOM     11  C   UNL     1     -35.512  20.574   2.685  0.00  0.00    +0.036 C 
ATOM     12  C   UNL     1     -34.486  19.956   1.745  0.00  0.00    -0.013 C 
BRANCH  11  13
ATOM     13  N   UNL     1     -36.836  20.023   2.401  0.00  0.00    +0.389 N 
ATOM     14  H   UNL     1     -37.374  19.967   3.266  0.00  0.00    -0.088 HD
ATOM     15  H   UNL     1     -36.737  19.090   2.001  0.00  0.00    -0.088 HD
ATOM     16  H   UNL     1     -37.321  20.628   1.738  0.00  0.00    -0.088 HD
ENDBRANCH  11  13
ENDBRANCH  10  11
ENDBRANCH   8  10
ENDBRANCH   7   8
ENDBRANCH   1   7
BRANCH   1  17
ATOM     17  C   UNL     1     -36.162  25.560   5.312  0.00  0.00    +0.079 C 
BRANCH  17  19
ATOM     18  O   UNL     1     -33.373  25.177   4.583  0.00  0.00    -0.272 OA
ATOM     19  N   UNL     1     -35.223  26.561   4.878  0.00  0.00    -0.304 N 
ATOM     20  C   UNL     1     -33.907  26.279   4.551  0.00  0.00    +0.253 C 
ATOM     21  H   UNL     1     -35.532  27.493   4.810  0.00  0.00    +0.149 HD
BRANCH  20  23
ATOM     22  O   UNL     1     -31.699  27.244   4.080  0.00  0.00    -0.335 OA
ATOM     23  C   UNL     1     -33.114  27.470   4.124  0.00  0.00    +0.227 C 
ATOM     24  C   UNL     1     -32.178  28.156   5.075  0.00  0.00    +0.227 C 
BRANCH  24  27
ATOM     25  O   UNL     1     -30.798  29.807   4.159  0.00  0.00    -0.273 OA
ATOM     26  N   UNL     1     -32.553  30.480   5.498  0.00  0.00    -0.327 N 
ATOM     27  C   UNL     1     -31.768  29.547   4.860  0.00  0.00    +0.250 C 
ATOM     28  H   UNL     1     -32.348  31.439   5.407  0.00  0.00    +0.145 HD
ATOM     29  H   UNL     1     -33.317  30.189   6.045  0.00  0.00    +0.145 HD
ENDBRANCH  24  27
ENDBRANCH  20  23
ENDBRANCH  17  19
ENDBRANCH   1  17
TORSDOF 10
ENDMDL
MODEL 3
REMARK VINA RESULT:      -5.4      4.706      8.733
REMARK  Name = 197244
REMARK  10 active torsions:
REMARK  status: ('A' for Active; 'I' for Inactive)
REMARK    1  A    between atoms: C_1  and  N_2
REMARK    2  A    between atoms: C_1  and  C_7
REMARK    3  A    between atoms: C_1  and  C_17
REMARK    4  A    between atoms: C_7  and  O_8
REMARK    5  A    between atoms: O_8  and  C_10
REMARK    6  A    between atoms: C_10  and  C_11
REMARK    7  A    between atoms: C_11  and  N_13
REMARK    8  A    between atoms: C_17  and  N_19
REMARK    9  A    between atoms: C_20  and  C_23
REMARK   10  A    between atoms: C_24  and  C_27
REMARK                            x       y       z     vdW  Elec       q    Type
REMARK                         _______ _______ _______ _____ _____    ______ ____
ROOT
ATOM      1  C   UNL     1     -35.414  21.430   2.929  0.00  0.00    +0.056 C 
ENDROOT
BRANCH   1   2
ATOM      2  N   UNL     1     -35.434  21.099   4.354  0.00  0.00    +0.390 N 
ATOM      3  H   UNL     1     -34.662  20.468   4.567  0.00  0.00    -0.088 HD
ATOM      4  H   UNL     1     -36.318  20.646   4.586  0.00  0.00    -0.088 HD
ATOM      5  H   UNL     1     -35.336  21.954   4.903  0.00  0.00    -0.088 HD
ENDBRANCH   1   2
BRANCH   1   7
ATOM      6  O   UNL     1     -35.182  23.560   1.766  0.00  0.00    -0.252 OA
ATOM      7  C   UNL     1     -35.299  22.945   2.818  0.00  0.00    +0.304 C 
BRANCH   7   8
ATOM      8  O   UNL     1     -35.369  23.479   4.078  0.00  0.00    -0.395 OA
BRANCH   8  10
ATOM      9  O   UNL     1     -37.535  24.287   4.258  0.00  0.00    -0.252 OA
ATOM     10  C   UNL     1     -36.322  24.434   4.318  0.00  0.00    +0.303 C 
BRANCH  10  11
ATOM     11  C   UNL     1     -35.622  25.731   4.688  0.00  0.00    +0.036 C 
ATOM     12  C   UNL     1     -34.418  25.462   5.581  0.00  0.00    -0.013 C 
BRANCH  11  13
ATOM     13  N   UNL     1     -36.573  26.593   5.389  0.00  0.00    +0.389 N 
ATOM     14  H   UNL     1     -36.353  26.602   6.385  0.00  0.00    -0.088 HD
ATOM     15  H   UNL     1     -37.519  26.237   5.253  0.00  0.00    -0.088 HD
ATOM     16  H   UNL     1     -36.509  27.540   5.018  0.00  0.00    -0.088 HD
ENDBRANCH  11  13
ENDBRANCH  10  11
ENDBRANCH   8  10
ENDBRANCH   7   8
ENDBRANCH   1   7
BRANCH   1  17
ATOM     17  C   UNL     1     -36.699  20.933   2.271  0.00  0.00    +0.079 C 
BRANCH  17  19
ATOM     18  O   UNL     1     -39.063  21.317   0.620  0.00  0.00    -0.272 OA
ATOM     19  N   UNL     1     -37.810  21.813   2.520  0.00  0.00    -0.304 N 
ATOM     20  C   UNL     1     -38.897  21.927   1.669  0.00  0.00    +0.253 C 
ATOM     21  H   UNL     1     -37.797  22.363   3.336  0.00  0.00    +0.149 HD
BRANCH  20  23
ATOM     22  O   UNL     1     -40.838  23.318   1.095  0.00  0.00    -0.335 OA
ATOM     23  C   UNL     1     -39.934  22.900   2.126  0.00  0.00    +0.227 C 
ATOM     24  C   UNL     1     -39.947  24.311   1.617  0.00  0.00    +0.227 C 
BRANCH  24  27
ATOM     25  O   UNL     1     -41.747  25.734   2.068  0.00  0.00    -0.273 OA
ATOM     26  N   UNL     1     -39.867  25.910   3.394  0.00  0.00    -0.327 N 
ATOM     27  C   UNL     1     -40.615  25.379   2.368  0.00  0.00    +0.250 C 
ATOM     28  H   UNL     1     -40.239  26.632   3.950  0.00  0.00    +0.145 HD
ATOM     29  H   UNL     1     -38.962  25.568   3.571  0.00  0.00    +0.145 HD
ENDBRANCH  24  27
ENDBRANCH  20  23
ENDBRANCH  17  19
ENDBRANCH   1  17
TORSDOF 10
ENDMDL
MODEL 4
REMARK VINA RESULT:      -5.4      2.901      8.393
REMARK  Name = 197244
REMARK  10 active torsions:
REMARK  status: ('A' for Active; 'I' for Inactive)
REMARK    1  A    between atoms: C_1  and  N_2
REMARK    2  A    between atoms: C_1  and  C_7
REMARK    3  A    between atoms: C_1  and  C_17
REMARK    4  A    between atoms: C_7  and  O_8
REMARK    5  A    between atoms: O_8  and  C_10
REMARK    6  A    between atoms: C_10  and  C_11
REMARK    7  A    between atoms: C_11  and  N_13
REMARK    8  A    between atoms: C_17  and  N_19
REMARK    9  A    between atoms: C_20  and  C_23
REMARK   10  A    between atoms: C_24  and  C_27
REMARK                            x       y       z     vdW  Elec       q    Type
REMARK                         _______ _______ _______ _____ _____    ______ ____
ROOT
ATOM      1  C   UNL     1     -35.258  25.691   5.687  0.00  0.00    +0.056 C 
ENDROOT
BRANCH   1   2
ATOM      2  N   UNL     1     -36.360  26.528   5.209  0.00  0.00    +0.390 N 
ATOM      3  H   UNL     1     -36.249  27.474   5.570  0.00  0.00    -0.088 HD
ATOM      4  H   UNL     1     -37.246  26.141   5.534  0.00  0.00    -0.088 HD
ATOM      5  H   UNL     1     -36.352  26.549   4.189  0.00  0.00    -0.088 HD
ENDBRANCH   1   2
BRANCH   1   7
ATOM      6  O   UNL     1     -33.428  25.272   4.133  0.00  0.00    -0.252 OA
ATOM      7  C   UNL     1     -34.029  26.050   4.863  0.00  0.00    +0.304 C 
BRANCH   7   8
ATOM      8  O   UNL     1     -33.740  27.373   5.065  0.00  0.00    -0.395 OA
BRANCH   8  10
ATOM      9  O   UNL     1     -32.050  27.042   6.619  0.00  0.00    -0.252 OA
ATOM     10  C   UNL     1     -32.577  27.684   5.720  0.00  0.00    +0.303 C 
BRANCH  10  11
ATOM     11  C   UNL     1     -32.026  28.974   5.137  0.00  0.00    +0.036 C 
ATOM     12  C   UNL     1     -31.780  30.002   6.233  0.00  0.00    -0.013 C 
BRANCH  11  13
ATOM     13  N   UNL     1     -32.989  29.502   4.173  0.00  0.00    +0.389 N 
ATOM     14  H   UNL     1     -32.975  30.522   4.202  0.00  0.00    -0.088 HD
ATOM     15  H   UNL     1     -33.923  29.167   4.408  0.00  0.00    -0.088 HD
ATOM     16  H   UNL     1     -32.740  29.185   3.236  0.00  0.00    -0.088 HD
ENDBRANCH  11  13
ENDBRANCH  10  11
ENDBRANCH   8  10
ENDBRANCH   7   8
ENDBRANCH   1   7
BRANCH   1  17
ATOM     17  C   UNL     1     -35.621  24.218   5.510  0.00  0.00    +0.079 C 
BRANCH  17  19
ATOM     18  O   UNL     1     -35.304  22.623   3.100  0.00  0.00    -0.272 OA
ATOM     19  N   UNL     1     -36.581  24.020   4.456  0.00  0.00    -0.304 N 
ATOM     20  C   UNL     1     -36.336  23.237   3.341  0.00  0.00    +0.253 C 
ATOM     21  H   UNL     1     -37.456  24.464   4.532  0.00  0.00    +0.149 HD
BRANCH  20  23
ATOM     22  O   UNL     1     -38.751  23.463   2.958  0.00  0.00    -0.335 OA
ATOM     23  C   UNL     1     -37.474  23.171   2.376  0.00  0.00    +0.227 C 
ATOM     24  C   UNL     1     -38.537  22.121   2.507  0.00  0.00    +0.227 C 
BRANCH  24  27
ATOM     25  O   UNL     1     -40.380  22.364   1.087  0.00  0.00    -0.273 OA
ATOM     26  N   UNL     1     -38.898  20.649   0.655  0.00  0.00    -0.327 N 
ATOM     27  C   UNL     1     -39.364  21.736   1.358  0.00  0.00    +0.250 C 
ATOM     28  H   UNL     1     -39.392  20.324  -0.131  0.00  0.00    +0.145 HD
ATOM     29  H   UNL     1     -38.071  20.199   0.939  0.00  0.00    +0.145 HD
ENDBRANCH  24  27
ENDBRANCH  20  23
ENDBRANCH  17  19
ENDBRANCH   1  17
TORSDOF 10
ENDMDL
MODEL 5
REMARK VINA RESULT:      -5.3      4.173      7.101
REMARK  Name = 197244
REMARK  10 active torsions:
REMARK  status: ('A' for Active; 'I' for Inactive)
REMARK    1  A    between atoms: C_1  and  N_2
REMARK    2  A    between atoms: C_1  and  C_7
REMARK    3  A    between atoms: C_1  and  C_17
REMARK    4  A    between atoms: C_7  and  O_8
REMARK    5  A    between atoms: O_8  and  C_10
REMARK    6  A    between atoms: C_10  and  C_11
REMARK    7  A    between atoms: C_11  and  N_13
REMARK    8  A    between atoms: C_17  and  N_19
REMARK    9  A    between atoms: C_20  and  C_23
REMARK   10  A    between atoms: C_24  and  C_27
REMARK                            x       y       z     vdW  Elec       q    Type
REMARK                         _______ _______ _______ _____ _____    ______ ____
ROOT
ATOM      1  C   UNL     1     -36.628  20.268   1.827  0.00  0.00    +0.056 C 
ENDROOT
BRANCH   1   2
ATOM      2  N   UNL     1     -36.085  19.645   0.619  0.00  0.00    +0.390 N 
ATOM      3  H   UNL     1     -36.065  20.330  -0.136  0.00  0.00    -0.088 HD
ATOM      4  H   UNL     1     -36.673  18.857   0.349  0.00  0.00    -0.088 HD
ATOM      5  H   UNL     1     -35.137  19.315   0.804  0.00  0.00    -0.088 HD
ENDBRANCH   1   2
BRANCH   1   7
ATOM      6  O   UNL     1     -37.002  22.243   0.449  0.00  0.00    -0.252 OA
ATOM      7  C   UNL     1     -37.338  21.544   1.397  0.00  0.00    +0.304 C 
BRANCH   7   8
ATOM      8  O   UNL     1     -38.405  21.751   2.231  0.00  0.00    -0.395 OA
BRANCH   8  10
ATOM      9  O   UNL     1     -40.428  21.020   1.363  0.00  0.00    -0.252 OA
ATOM     10  C   UNL     1     -39.642  21.909   1.663  0.00  0.00    +0.303 C 
BRANCH  10  11
ATOM     11  C   UNL     1     -39.897  23.394   1.467  0.00  0.00    +0.036 C 
ATOM     12  C   UNL     1     -39.712  24.153   2.775  0.00  0.00    -0.013 C 
BRANCH  11  13
ATOM     13  N   UNL     1     -41.263  23.575   0.980  0.00  0.00    +0.389 N 
ATOM     14  H   UNL     1     -41.240  23.896   0.012  0.00  0.00    -0.088 HD
ATOM     15  H   UNL     1     -41.740  24.268   1.558  0.00  0.00    -0.088 HD
ATOM     16  H   UNL     1     -41.763  22.687   1.032  0.00  0.00    -0.088 HD
ENDBRANCH  11  13
ENDBRANCH  10  11
ENDBRANCH   8  10
ENDBRANCH   7   8
ENDBRANCH   1   7
BRANCH   1  17
ATOM     17  C   UNL     1     -35.491  20.577   2.798  0.00  0.00    +0.079 C 
BRANCH  17  19
ATOM     18  O   UNL     1     -34.951  21.039   5.618  0.00  0.00    -0.272 OA
ATOM     19  N   UNL     1     -35.736  21.778   3.553  0.00  0.00    -0.304 N 
ATOM     20  C   UNL     1     -35.443  21.902   4.901  0.00  0.00    +0.253 C 
ATOM     21  H   UNL     1     -36.132  22.549   3.088  0.00  0.00    +0.149 HD
BRANCH  20  23
ATOM     22  O   UNL     1     -36.723  23.989   4.707  0.00  0.00    -0.335 OA
ATOM     23  C   UNL     1     -35.779  23.237   5.480  0.00  0.00    +0.227 C 
ATOM     24  C   UNL     1     -35.387  24.504   4.777  0.00  0.00    +0.227 C 
BRANCH  24  27
ATOM     25  O   UNL     1     -34.222  26.073   6.062  0.00  0.00    -0.273 OA
ATOM     26  N   UNL     1     -36.412  26.538   5.507  0.00  0.00    -0.327 N 
ATOM     27  C   UNL     1     -35.272  25.769   5.510  0.00  0.00    +0.250 C 
ATOM     28  H   UNL     1     -36.422  27.404   5.975  0.00  0.00    +0.145 HD
ATOM     29  H   UNL     1     -37.217  26.222   5.038  0.00  0.00    +0.145 HD
ENDBRANCH  24  27
ENDBRANCH  20  23
ENDBRANCH  17  19
ENDBRANCH   1  17
TORSDOF 10
ENDMDL
MODEL 6
REMARK VINA RESULT:      -5.3      3.255      8.387
REMARK  Name = 197244
REMARK  10 active torsions:
REMARK  status: ('A' for Active; 'I' for Inactive)
REMARK    1  A    between atoms: C_1  and  N_2
REMARK    2  A    between atoms: C_1  and  C_7
REMARK    3  A    between atoms: C_1  and  C_17
REMARK    4  A    between atoms: C_7  and  O_8
REMARK    5  A    between atoms: O_8  and  C_10
REMARK    6  A    between atoms: C_10  and  C_11
REMARK    7  A    between atoms: C_11  and  N_13
REMARK    8  A    between atoms: C_17  and  N_19
REMARK    9  A    between atoms: C_20  and  C_23
REMARK   10  A    between atoms: C_24  and  C_27
REMARK                            x       y       z     vdW  Elec       q    Type
REMARK                         _______ _______ _______ _____ _____    ______ ____
ROOT
ATOM      1  C   UNL     1     -35.235  22.599   5.121  0.00  0.00    +0.056 C 
ENDROOT
BRANCH   1   2
ATOM      2  N   UNL     1     -35.974  22.012   6.240  0.00  0.00    +0.390 N 
ATOM      3  H   UNL     1     -35.328  21.799   6.999  0.00  0.00    -0.088 HD
ATOM      4  H   UNL     1     -36.432  21.155   5.933  0.00  0.00    -0.088 HD
ATOM      5  H   UNL     1     -36.677  22.675   6.568  0.00  0.00    -0.088 HD
ENDBRANCH   1   2
BRANCH   1   7
ATOM      6  O   UNL     1     -36.422  24.703   5.451  0.00  0.00    -0.252 OA
ATOM      7  C   UNL     1     -35.372  24.111   5.234  0.00  0.00    +0.304 C 
BRANCH   7   8
ATOM      8  O   UNL     1     -34.132  24.673   5.075  0.00  0.00    -0.395 OA
BRANCH   8  10
ATOM      9  O   UNL     1     -33.792  26.558   6.384  0.00  0.00    -0.252 OA
ATOM     10  C   UNL     1     -34.003  26.018   5.306  0.00  0.00    +0.303 C 
BRANCH  10  11
ATOM     11  C   UNL     1     -34.155  26.751   3.984  0.00  0.00    +0.036 C 
ATOM     12  C   UNL     1     -33.042  27.773   3.799  0.00  0.00    -0.013 C 
BRANCH  11  13
ATOM     13  N   UNL     1     -35.452  27.427   3.970  0.00  0.00    +0.389 N 
ATOM     14  H   UNL     1     -35.448  28.155   3.257  0.00  0.00    -0.088 HD
ATOM     15  H   UNL     1     -35.627  27.845   4.884  0.00  0.00    -0.088 HD
ATOM     16  H   UNL     1     -36.185  26.749   3.760  0.00  0.00    -0.088 HD
ENDBRANCH  11  13
ENDBRANCH  10  11
ENDBRANCH   8  10
ENDBRANCH   7   8
ENDBRANCH   1   7
BRANCH   1  17
ATOM     17  C   UNL     1     -35.820  22.096   3.803  0.00  0.00    +0.079 C 
BRANCH  17  19
ATOM     18  O   UNL     1     -37.416  21.841   1.385  0.00  0.00    -0.272 OA
ATOM     19  N   UNL     1     -37.141  22.616   3.564  0.00  0.00    -0.304 N 
ATOM     20  C   UNL     1     -37.824  22.441   2.372  0.00  0.00    +0.253 C 
ATOM     21  H   UNL     1     -37.581  23.122   4.285  0.00  0.00    +0.149 HD
BRANCH  20  23
ATOM     22  O   UNL     1     -39.633  23.427   1.035  0.00  0.00    -0.335 OA
ATOM     23  C   UNL     1     -39.181  23.064   2.346  0.00  0.00    +0.227 C 
ATOM     24  C   UNL     1     -39.364  24.499   1.947  0.00  0.00    +0.227 C 
BRANCH  24  27
ATOM     25  O   UNL     1     -41.581  25.199   1.687  0.00  0.00    -0.273 OA
ATOM     26  N   UNL     1     -40.405  25.979   3.512  0.00  0.00    -0.327 N 
ATOM     27  C   UNL     1     -40.556  25.250   2.355  0.00  0.00    +0.250 C 
ATOM     28  H   UNL     1     -41.156  26.513   3.858  0.00  0.00    +0.145 HD
ATOM     29  H   UNL     1     -39.546  25.966   3.992  0.00  0.00    +0.145 HD
ENDBRANCH  24  27
ENDBRANCH  20  23
ENDBRANCH  17  19
ENDBRANCH   1  17
TORSDOF 10
ENDMDL
MODEL 7
REMARK VINA RESULT:      -5.3      4.761      8.587
REMARK  Name = 197244
REMARK  10 active torsions:
REMARK  status: ('A' for Active; 'I' for Inactive)
REMARK    1  A    between atoms: C_1  and  N_2
REMARK    2  A    between atoms: C_1  and  C_7
REMARK    3  A    between atoms: C_1  and  C_17
REMARK    4  A    between atoms: C_7  and  O_8
REMARK    5  A    between atoms: O_8  and  C_10
REMARK    6  A    between atoms: C_10  and  C_11
REMARK    7  A    between atoms: C_11  and  N_13
REMARK    8  A    between atoms: C_17  and  N_19
REMARK    9  A    between atoms: C_20  and  C_23
REMARK   10  A    between atoms: C_24  and  C_27
REMARK                            x       y       z     vdW  Elec       q    Type
REMARK                         _______ _______ _______ _____ _____    ______ ____
ROOT
ATOM      1  C   UNL     1     -35.071  22.199   5.231  0.00  0.00    +0.056 C 
ENDROOT
BRANCH   1   2
ATOM      2  N   UNL     1     -36.043  21.939   6.294  0.00  0.00    +0.390 N 
ATOM      3  H   UNL     1     -35.765  22.439   7.138  0.00  0.00    -0.088 HD
ATOM      4  H   UNL     1     -36.076  20.938   6.487  0.00  0.00    -0.088 HD
ATOM      5  H   UNL     1     -36.965  22.259   5.996  0.00  0.00    -0.088 HD
ENDBRANCH   1   2
BRANCH   1   7
ATOM      6  O   UNL     1     -33.858  24.279   4.857  0.00  0.00    -0.252 OA
ATOM      7  C   UNL     1     -34.907  23.709   5.128  0.00  0.00    +0.304 C 
BRANCH   7   8
ATOM      8  O   UNL     1     -36.122  24.296   5.366  0.00  0.00    -0.395 OA
BRANCH   8  10
ATOM      9  O   UNL     1     -35.979  26.607   5.503  0.00  0.00    -0.252 OA
ATOM     10  C   UNL     1     -36.312  25.579   4.926  0.00  0.00    +0.303 C 
BRANCH  10  11
ATOM     11  C   UNL     1     -37.008  25.528   3.577  0.00  0.00    +0.036 C 
ATOM     12  C   UNL     1     -36.233  26.326   2.536  0.00  0.00    -0.013 C 
BRANCH  11  13
ATOM     13  N   UNL     1     -38.353  26.082   3.722  0.00  0.00    +0.389 N 
ATOM     14  H   UNL     1     -38.372  26.727   4.512  0.00  0.00    -0.088 HD
ATOM     15  H   UNL     1     -39.017  25.325   3.884  0.00  0.00    -0.088 HD
ATOM     16  H   UNL     1     -38.608  26.581   2.869  0.00  0.00    -0.088 HD
ENDBRANCH  11  13
ENDBRANCH  10  11
ENDBRANCH   8  10
ENDBRANCH   7   8
ENDBRANCH   1   7
BRANCH   1  17
ATOM     17  C   UNL     1     -35.584  21.615   3.916  0.00  0.00    +0.079 C 
BRANCH  17  19
ATOM     18  O   UNL     1     -37.117  21.075   1.504  0.00  0.00    -0.272 OA
ATOM     19  N   UNL     1     -36.888  22.119   3.573  0.00  0.00    -0.304 N 
ATOM     20  C   UNL     1     -37.541  21.803   2.393  0.00  0.00    +0.253 C 
ATOM     21  H   UNL     1     -37.339  22.720   4.210  0.00  0.00    +0.149 HD
BRANCH  20  23
ATOM     22  O   UNL     1     -39.639  21.957   1.126  0.00  0.00    -0.335 OA
ATOM     23  C   UNL     1     -38.885  22.437   2.248  0.00  0.00    +0.227 C 
ATOM     24  C   UNL     1     -39.199  23.320   1.076  0.00  0.00    +0.227 C 
BRANCH  24  27
ATOM     25  O   UNL     1     -40.056  25.462   1.462  0.00  0.00    -0.273 OA
ATOM     26  N   UNL     1     -41.527  23.805   0.816  0.00  0.00    -0.327 N 
ATOM     27  C   UNL     1     -40.286  24.303   1.141  0.00  0.00    +0.250 C 
ATOM     28  H   UNL     1     -42.313  24.397   0.834  0.00  0.00    +0.145 HD
ATOM     29  H   UNL     1     -41.627  22.858   0.568  0.00  0.00    +0.145 HD
ENDBRANCH  24  27
ENDBRANCH  20  23
ENDBRANCH  17  19
ENDBRANCH   1  17
TORSDOF 10
ENDMDL
MODEL 8
REMARK VINA RESULT:      -5.2      4.220      6.187
REMARK  Name = 197244
REMARK  10 active torsions:
REMARK  status: ('A' for Active; 'I' for Inactive)
REMARK    1  A    between atoms: C_1  and  N_2
REMARK    2  A    between atoms: C_1  and  C_7
REMARK    3  A    between atoms: C_1  and  C_17
REMARK    4  A    between atoms: C_7  and  O_8
REMARK    5  A    between atoms: O_8  and  C_10
REMARK    6  A    between atoms: C_10  and  C_11
REMARK    7  A    between atoms: C_11  and  N_13
REMARK    8  A    between atoms: C_17  and  N_19
REMARK    9  A    between atoms: C_20  and  C_23
REMARK   10  A    between atoms: C_24  and  C_27
REMARK                            x       y       z     vdW  Elec       q    Type
REMARK                         _______ _______ _______ _____ _____    ______ ____
ROOT
ATOM      1  C   UNL     1     -39.942  23.977   1.681  0.00  0.00    +0.056 C 
ENDROOT
BRANCH   1   2
ATOM      2  N   UNL     1     -41.269  23.795   1.092  0.00  0.00    +0.390 N 
ATOM      3  H   UNL     1     -41.718  22.981   1.511  0.00  0.00    -0.088 HD
ATOM      4  H   UNL     1     -41.178  23.653   0.086  0.00  0.00    -0.088 HD
ATOM      5  H   UNL     1     -41.836  24.625   1.268  0.00  0.00    -0.088 HD
ENDBRANCH   1   2
BRANCH   1   7
ATOM      6  O   UNL     1     -39.998  21.616   2.280  0.00  0.00    -0.252 OA
ATOM      7  C   UNL     1     -39.356  22.591   1.913  0.00  0.00    +0.304 C 
BRANCH   7   8
ATOM      8  O   UNL     1     -38.018  22.630   1.622  0.00  0.00    -0.395 OA
BRANCH   8  10
ATOM      9  O   UNL     1     -37.033  22.490   3.717  0.00  0.00    -0.252 OA
ATOM     10  C   UNL     1     -37.144  22.132   2.552  0.00  0.00    +0.303 C 
BRANCH  10  11
ATOM     11  C   UNL     1     -36.320  21.034   1.900  0.00  0.00    +0.036 C 
ATOM     12  C   UNL     1     -36.247  21.234   0.392  0.00  0.00    -0.013 C 
BRANCH  11  13
ATOM     13  N   UNL     1     -36.940  19.743   2.196  0.00  0.00    +0.389 N 
ATOM     14  H   UNL     1     -36.241  19.114   2.590  0.00  0.00    -0.088 HD
ATOM     15  H   UNL     1     -37.316  19.342   1.338  0.00  0.00    -0.088 HD
ATOM     16  H   UNL     1     -37.695  19.876   2.869  0.00  0.00    -0.088 HD
ENDBRANCH  11  13
ENDBRANCH  10  11
ENDBRANCH   8  10
ENDBRANCH   7   8
ENDBRANCH   1   7
BRANCH   1  17
ATOM     17  C   UNL     1     -40.068  24.743   2.997  0.00  0.00    +0.079 C 
BRANCH  17  19
ATOM     18  O   UNL     1     -38.027  26.700   2.317  0.00  0.00    -0.272 OA
ATOM     19  N   UNL     1     -38.792  24.938   3.634  0.00  0.00    -0.304 N 
ATOM     20  C   UNL     1     -37.882  25.902   3.236  0.00  0.00    +0.253 C 
ATOM     21  H   UNL     1     -38.554  24.355   4.391  0.00  0.00    +0.149 HD
BRANCH  20  23
ATOM     22  O   UNL     1     -35.582  26.732   3.471  0.00  0.00    -0.335 OA
ATOM     23  C   UNL     1     -36.624  25.927   4.040  0.00  0.00    +0.227 C 
ATOM     24  C   UNL     1     -35.359  25.317   3.513  0.00  0.00    +0.227 C 
BRANCH  24  27
ATOM     25  O   UNL     1     -33.331  25.649   4.629  0.00  0.00    -0.273 OA
ATOM     26  N   UNL     1     -34.451  23.664   4.984  0.00  0.00    -0.327 N 
ATOM     27  C   UNL     1     -34.282  24.907   4.421  0.00  0.00    +0.250 C 
ATOM     28  H   UNL     1     -33.775  23.310   5.606  0.00  0.00    +0.145 HD
ATOM     29  H   UNL     1     -35.246  23.128   4.764  0.00  0.00    +0.145 HD
ENDBRANCH  24  27
ENDBRANCH  20  23
ENDBRANCH  17  19
ENDBRANCH   1  17
TORSDOF 10
ENDMDL
MODEL 9
REMARK VINA RESULT:      -5.2      3.629      5.895
REMARK  Name = 197244
REMARK  10 active torsions:
REMARK  status: ('A' for Active; 'I' for Inactive)
REMARK    1  A    between atoms: C_1  and  N_2
REMARK    2  A    between atoms: C_1  and  C_7
REMARK    3  A    between atoms: C_1  and  C_17
REMARK    4  A    between atoms: C_7  and  O_8
REMARK    5  A    between atoms: O_8  and  C_10
REMARK    6  A    between atoms: C_10  and  C_11
REMARK    7  A    between atoms: C_11  and  N_13
REMARK    8  A    between atoms: C_17  and  N_19
REMARK    9  A    between atoms: C_20  and  C_23
REMARK   10  A    between atoms: C_24  and  C_27
REMARK                            x       y       z     vdW  Elec       q    Type
REMARK                         _______ _______ _______ _____ _____    ______ ____
ROOT
ATOM      1  C   UNL     1     -36.702  21.736   2.210  0.00  0.00    +0.056 C 
ENDROOT
BRANCH   1   2
ATOM      2  N   UNL     1     -37.804  20.779   2.099  0.00  0.00    +0.390 N 
ATOM      3  H   UNL     1     -37.608  19.966   2.682  0.00  0.00    -0.088 HD
ATOM      4  H   UNL     1     -37.902  20.485   1.127  0.00  0.00    -0.088 HD
ATOM      5  H   UNL     1     -38.670  21.220   2.410  0.00  0.00    -0.088 HD
ENDBRANCH   1   2
BRANCH   1   7
ATOM      6  O   UNL     1     -35.283  20.595   3.830  0.00  0.00    -0.252 OA
ATOM      7  C   UNL     1     -35.478  20.962   2.678  0.00  0.00    +0.304 C 
BRANCH   7   8
ATOM      8  O   UNL     1     -34.665  20.738   1.598  0.00  0.00    -0.395 OA
BRANCH   8  10
ATOM      9  O   UNL     1     -35.639  19.051   0.339  0.00  0.00    -0.252 OA
ATOM     10  C   UNL     1     -34.716  19.506   1.001  0.00  0.00    +0.303 C 
BRANCH  10  11
ATOM     11  C   UNL     1     -33.413  18.778   1.287  0.00  0.00    +0.036 C 
ATOM     12  C   UNL     1     -32.240  19.483   0.621  0.00  0.00    -0.013 C 
BRANCH  11  13
ATOM     13  N   UNL     1     -33.519  17.410   0.781  0.00  0.00    +0.389 N 
ATOM     14  H   UNL     1     -33.436  17.417  -0.236  0.00  0.00    -0.088 HD
ATOM     15  H   UNL     1     -34.423  17.019   1.046  0.00  0.00    -0.088 HD
ATOM     16  H   UNL     1     -32.772  16.842   1.180  0.00  0.00    -0.088 HD
ENDBRANCH  11  13
ENDBRANCH  10  11
ENDBRANCH   8  10
ENDBRANCH   7   8
ENDBRANCH   1   7
BRANCH   1  17
ATOM     17  C   UNL     1     -37.073  22.828   3.211  0.00  0.00    +0.079 C 
BRANCH  17  19
ATOM     18  O   UNL     1     -35.945  23.440   5.821  0.00  0.00    -0.272 OA
ATOM     19  N   UNL     1     -35.960  23.692   3.506  0.00  0.00    -0.304 N 
ATOM     20  C   UNL     1     -35.493  23.922   4.789  0.00  0.00    +0.253 C 
ATOM     21  H   UNL     1     -35.508  24.143   2.756  0.00  0.00    +0.149 HD
BRANCH  20  23
ATOM     22  O   UNL     1     -34.377  25.770   5.960  0.00  0.00    -0.335 OA
ATOM     23  C   UNL     1     -34.327  24.852   4.860  0.00  0.00    +0.227 C 
ATOM     24  C   UNL     1     -34.503  26.327   4.646  0.00  0.00    +0.227 C 
BRANCH  24  27
ATOM     25  O   UNL     1     -33.022  27.221   3.072  0.00  0.00    -0.273 OA
ATOM     26  N   UNL     1     -32.782  27.865   5.275  0.00  0.00    -0.327 N 
ATOM     27  C   UNL     1     -33.373  27.171   4.244  0.00  0.00    +0.250 C 
ATOM     28  H   UNL     1     -32.017  28.457   5.094  0.00  0.00    +0.145 HD
ATOM     29  H   UNL     1     -33.126  27.770   6.192  0.00  0.00    +0.145 HD
ENDBRANCH  24  27
ENDBRANCH  20  23
ENDBRANCH  17  19
ENDBRANCH   1  17
TORSDOF 10
ENDMDL
