MODEL 1
REMARK VINA RESULT:      -6.2      0.000      0.000
REMARK  Name = 192749
REMARK  3 active torsions:
REMARK  status: ('A' for Active; 'I' for Inactive)
REMARK    1  A    between atoms: C_1  and  S_14
REMARK    2  A    between atoms: C_2  and  N_9
REMARK    3  A    between atoms: S_14  and  N_18
REMARK                            x       y       z     vdW  Elec       q    Type
REMARK                         _______ _______ _______ _____ _____    ______ ____
ROOT
ATOM      1  C   UNL     1     -33.779  26.691   5.084  0.00  0.00    +0.125 C 
ATOM      2  C   UNL     1     -31.456  28.167   5.546  0.00  0.00    +0.061 C 
ATOM      3  C   UNL     1     -33.104  27.283   4.016  0.00  0.00    +0.021 C 
ATOM      4  C   UNL     1     -33.293  26.838   6.383  0.00  0.00    +0.021 C 
ATOM      5  C   UNL     1     -31.943  28.020   4.247  0.00  0.00    +0.017 C 
ATOM      6  C   UNL     1     -32.132  27.576   6.614  0.00  0.00    +0.017 C 
ENDROOT
BRANCH   2   9
ATOM      7  O   UNL     1     -30.939  31.137   5.252  0.00  0.00    -0.269 OA
ATOM      8  O   UNL     1     -28.721  27.261   6.486  0.00  0.00    -0.269 OA
ATOM      9  N   UNL     1     -30.265  28.924   5.783  0.00  0.00    -0.201 N 
ATOM     10  C   UNL     1     -30.147  30.291   5.631  0.00  0.00    +0.259 C 
ATOM     11  C   UNL     1     -29.057  28.398   6.197  0.00  0.00    +0.259 C 
ATOM     12  C   UNL     1     -28.763  30.641   5.984  0.00  0.00    +0.063 C 
ATOM     13  C   UNL     1     -28.118  29.525   6.306  0.00  0.00    +0.063 C 
ENDBRANCH   2   9
BRANCH   1  14
ATOM     14  S   UNL     1     -35.233  25.769   4.795  0.00  0.00    +0.076 S 
ATOM     15  O   UNL     1     -36.331  26.372   5.539  0.00  0.00    -0.150 OA
ATOM     16  O   UNL     1     -35.358  25.581   3.356  0.00  0.00    -0.150 OA
BRANCH  14  18
ATOM     17  O   UNL     1     -36.621  22.974   4.691  0.00  0.00    -0.274 OA
ATOM     18  N   UNL     1     -34.839  24.264   5.515  0.00  0.00    -0.185 N 
ATOM     19  C   UNL     1     -35.611  23.066   5.380  0.00  0.00    +0.241 C 
ATOM     20  C   UNL     1     -35.065  21.913   6.172  0.00  0.00    +0.096 C 
ATOM     21  H   UNL     1     -34.022  24.220   6.061  0.00  0.00    +0.177 HD
ENDBRANCH  14  18
ENDBRANCH   1  14
TORSDOF 3
ENDMDL
MODEL 2
REMARK VINA RESULT:      -6.2      0.038      2.000
REMARK  Name = 192749
REMARK  3 active torsions:
REMARK  status: ('A' for Active; 'I' for Inactive)
REMARK    1  A    between atoms: C_1  and  S_14
REMARK    2  A    between atoms: C_2  and  N_9
REMARK    3  A    between atoms: S_14  and  N_18
REMARK                            x       y       z     vdW  Elec       q    Type
REMARK                         _______ _______ _______ _____ _____    ______ ____
ROOT
ATOM      1  C   UNL     1     -33.759  26.701   5.068  0.00  0.00    +0.125 C 
ATOM      2  C   UNL     1     -31.438  28.183   5.520  0.00  0.00    +0.061 C 
ATOM      3  C   UNL     1     -33.273  26.858   6.366  0.00  0.00    +0.021 C 
ATOM      4  C   UNL     1     -33.083  27.285   3.996  0.00  0.00    +0.021 C 
ATOM      5  C   UNL     1     -32.113  27.599   6.592  0.00  0.00    +0.017 C 
ATOM      6  C   UNL     1     -31.923  28.026   4.222  0.00  0.00    +0.017 C 
ENDROOT
BRANCH   2   9
ATOM      7  O   UNL     1     -28.690  27.281   6.423  0.00  0.00    -0.269 OA
ATOM      8  O   UNL     1     -30.936  31.160   5.249  0.00  0.00    -0.269 OA
ATOM      9  N   UNL     1     -30.247  28.942   5.752  0.00  0.00    -0.201 N 
ATOM     10  C   UNL     1     -29.033  28.419   6.149  0.00  0.00    +0.259 C 
ATOM     11  C   UNL     1     -30.137  30.312   5.613  0.00  0.00    +0.259 C 
ATOM     12  C   UNL     1     -28.098  29.547   6.260  0.00  0.00    +0.063 C 
ATOM     13  C   UNL     1     -28.750  30.664   5.955  0.00  0.00    +0.063 C 
ENDBRANCH   2   9
BRANCH   1  14
ATOM     14  S   UNL     1     -35.210  25.774   4.785  0.00  0.00    +0.076 S 
ATOM     15  O   UNL     1     -36.306  26.370   5.537  0.00  0.00    -0.150 OA
ATOM     16  O   UNL     1     -35.344  25.589   3.346  0.00  0.00    -0.150 OA
BRANCH  14  18
ATOM     17  O   UNL     1     -36.609  22.983   4.713  0.00  0.00    -0.274 OA
ATOM     18  N   UNL     1     -34.806  24.268   5.498  0.00  0.00    -0.185 N 
ATOM     19  C   UNL     1     -35.584  23.073   5.381  0.00  0.00    +0.241 C 
ATOM     20  C   UNL     1     -35.024  21.919   6.162  0.00  0.00    +0.096 C 
ATOM     21  H   UNL     1     -33.977  24.223   6.027  0.00  0.00    +0.177 HD
ENDBRANCH  14  18
ENDBRANCH   1  14
TORSDOF 3
ENDMDL
MODEL 3
REMARK VINA RESULT:      -6.2      4.843      7.339
REMARK  Name = 192749
REMARK  3 active torsions:
REMARK  status: ('A' for Active; 'I' for Inactive)
REMARK    1  A    between atoms: C_1  and  S_14
REMARK    2  A    between atoms: C_2  and  N_9
REMARK    3  A    between atoms: S_14  and  N_18
REMARK                            x       y       z     vdW  Elec       q    Type
REMARK                         _______ _______ _______ _____ _____    ______ ____
ROOT
ATOM      1  C   UNL     1     -35.505  21.013   1.402  0.00  0.00    +0.125 C 
ATOM      2  C   UNL     1     -35.493  23.176   3.165  0.00  0.00    +0.061 C 
ATOM      3  C   UNL     1     -35.447  22.316   0.908  0.00  0.00    +0.021 C 
ATOM      4  C   UNL     1     -35.557  20.792   2.778  0.00  0.00    +0.021 C 
ATOM      5  C   UNL     1     -35.441  23.398   1.789  0.00  0.00    +0.017 C 
ATOM      6  C   UNL     1     -35.551  21.873   3.660  0.00  0.00    +0.017 C 
ENDROOT
BRANCH   2   9
ATOM      7  O   UNL     1     -37.800  24.741   4.352  0.00  0.00    -0.269 OA
ATOM      8  O   UNL     1     -33.169  24.640   4.447  0.00  0.00    -0.269 OA
ATOM      9  N   UNL     1     -35.487  24.286   4.070  0.00  0.00    -0.201 N 
ATOM     10  C   UNL     1     -36.611  24.916   4.564  0.00  0.00    +0.259 C 
ATOM     11  C   UNL     1     -34.355  24.890   4.581  0.00  0.00    +0.259 C 
ATOM     12  C   UNL     1     -36.143  25.988   5.453  0.00  0.00    +0.063 C 
ATOM     13  C   UNL     1     -34.814  25.981   5.454  0.00  0.00    +0.063 C 
ENDBRANCH   2   9
BRANCH   1  14
ATOM     14  S   UNL     1     -35.513  19.661   0.299  0.00  0.00    +0.076 S 
ATOM     15  O   UNL     1     -36.765  18.932   0.453  0.00  0.00    -0.150 OA
ATOM     16  O   UNL     1     -35.128  20.160  -1.015  0.00  0.00    -0.150 OA
BRANCH  14  18
ATOM     17  O   UNL     1     -32.436  20.150   0.502  0.00  0.00    -0.274 OA
ATOM     18  N   UNL     1     -34.235  18.699   0.918  0.00  0.00    -0.185 N 
ATOM     19  C   UNL     1     -32.853  19.072   0.911  0.00  0.00    +0.241 C 
ATOM     20  C   UNL     1     -31.947  18.008   1.459  0.00  0.00    +0.096 C 
ATOM     21  H   UNL     1     -34.470  17.825   1.306  0.00  0.00    +0.177 HD
ENDBRANCH  14  18
ENDBRANCH   1  14
TORSDOF 3
ENDMDL
MODEL 4
REMARK VINA RESULT:      -6.0      2.028      3.031
REMARK  Name = 192749
REMARK  3 active torsions:
REMARK  status: ('A' for Active; 'I' for Inactive)
REMARK    1  A    between atoms: C_1  and  S_14
REMARK    2  A    between atoms: C_2  and  N_9
REMARK    3  A    between atoms: S_14  and  N_18
REMARK                            x       y       z     vdW  Elec       q    Type
REMARK                         _______ _______ _______ _____ _____    ______ ____
ROOT
ATOM      1  C   UNL     1     -34.491  25.488   4.696  0.00  0.00    +0.125 C 
ATOM      2  C   UNL     1     -32.693  27.569   5.169  0.00  0.00    +0.061 C 
ATOM      3  C   UNL     1     -33.895  26.152   3.624  0.00  0.00    +0.021 C 
ATOM      4  C   UNL     1     -34.188  25.865   6.004  0.00  0.00    +0.021 C 
ATOM      5  C   UNL     1     -32.996  27.192   3.860  0.00  0.00    +0.017 C 
ATOM      6  C   UNL     1     -33.289  26.905   6.241  0.00  0.00    +0.017 C 
ENDROOT
BRANCH   2   9
ATOM      7  O   UNL     1     -29.838  27.494   6.180  0.00  0.00    -0.269 OA
ATOM      8  O   UNL     1     -33.033  30.560   4.820  0.00  0.00    -0.269 OA
ATOM      9  N   UNL     1     -31.771  28.637   5.412  0.00  0.00    -0.201 N 
ATOM     10  C   UNL     1     -30.475  28.483   5.860  0.00  0.00    +0.259 C 
ATOM     11  C   UNL     1     -32.043  29.979   5.233  0.00  0.00    +0.259 C 
ATOM     12  C   UNL     1     -29.897  29.831   5.962  0.00  0.00    +0.063 C 
ATOM     13  C   UNL     1     -30.824  30.713   5.604  0.00  0.00    +0.063 C 
ENDBRANCH   2   9
BRANCH   1  14
ATOM     14  S   UNL     1     -35.616  24.187   4.399  0.00  0.00    +0.076 S 
ATOM     15  O   UNL     1     -35.120  23.375   3.296  0.00  0.00    -0.150 OA
ATOM     16  O   UNL     1     -35.911  23.557   5.680  0.00  0.00    -0.150 OA
BRANCH  14  18
ATOM     17  O   UNL     1     -38.295  23.233   3.110  0.00  0.00    -0.274 OA
ATOM     18  N   UNL     1     -37.007  25.042   3.875  0.00  0.00    -0.185 N 
ATOM     19  C   UNL     1     -38.158  24.441   3.273  0.00  0.00    +0.241 C 
ATOM     20  C   UNL     1     -39.199  25.437   2.853  0.00  0.00    +0.096 C 
ATOM     21  H   UNL     1     -37.013  26.019   3.996  0.00  0.00    +0.177 HD
ENDBRANCH  14  18
ENDBRANCH   1  14
TORSDOF 3
ENDMDL
MODEL 5
REMARK VINA RESULT:      -6.0      2.040      2.544
REMARK  Name = 192749
REMARK  3 active torsions:
REMARK  status: ('A' for Active; 'I' for Inactive)
REMARK    1  A    between atoms: C_1  and  S_14
REMARK    2  A    between atoms: C_2  and  N_9
REMARK    3  A    between atoms: S_14  and  N_18
REMARK                            x       y       z     vdW  Elec       q    Type
REMARK                         _______ _______ _______ _____ _____    ______ ____
ROOT
ATOM      1  C   UNL     1     -34.501  25.518   4.674  0.00  0.00    +0.125 C 
ATOM      2  C   UNL     1     -32.689  27.578   5.181  0.00  0.00    +0.061 C 
ATOM      3  C   UNL     1     -33.906  26.201   3.613  0.00  0.00    +0.021 C 
ATOM      4  C   UNL     1     -34.191  25.866   5.988  0.00  0.00    +0.021 C 
ATOM      5  C   UNL     1     -33.000  27.231   3.866  0.00  0.00    +0.017 C 
ATOM      6  C   UNL     1     -33.285  26.896   6.242  0.00  0.00    +0.017 C 
ENDROOT
BRANCH   2   9
ATOM      7  O   UNL     1     -32.980  30.571   4.806  0.00  0.00    -0.269 OA
ATOM      8  O   UNL     1     -29.861  27.471   6.265  0.00  0.00    -0.269 OA
ATOM      9  N   UNL     1     -31.760  28.636   5.441  0.00  0.00    -0.201 N 
ATOM     10  C   UNL     1     -32.008  29.980   5.247  0.00  0.00    +0.259 C 
ATOM     11  C   UNL     1     -30.477  28.467   5.923  0.00  0.00    +0.259 C 
ATOM     12  C   UNL     1     -30.790  30.700   5.645  0.00  0.00    +0.063 C 
ATOM     13  C   UNL     1     -29.883  29.808   6.032  0.00  0.00    +0.063 C 
ENDBRANCH   2   9
BRANCH   1  14
ATOM     14  S   UNL     1     -35.635  24.230   4.356  0.00  0.00    +0.076 S 
ATOM     15  O   UNL     1     -35.148  23.437   3.235  0.00  0.00    -0.150 OA
ATOM     16  O   UNL     1     -35.928  23.576   5.625  0.00  0.00    -0.150 OA
BRANCH  14  18
ATOM     17  O   UNL     1     -38.346  23.311   3.107  0.00  0.00    -0.274 OA
ATOM     18  N   UNL     1     -37.023  25.103   3.854  0.00  0.00    -0.185 N 
ATOM     19  C   UNL     1     -38.191  24.517   3.270  0.00  0.00    +0.241 C 
ATOM     20  C   UNL     1     -39.225  25.527   2.867  0.00  0.00    +0.096 C 
ATOM     21  H   UNL     1     -37.015  26.079   3.976  0.00  0.00    +0.177 HD
ENDBRANCH  14  18
ENDBRANCH   1  14
TORSDOF 3
ENDMDL
MODEL 6
REMARK VINA RESULT:      -5.9      2.623      3.373
REMARK  Name = 192749
REMARK  3 active torsions:
REMARK  status: ('A' for Active; 'I' for Inactive)
REMARK    1  A    between atoms: C_1  and  S_14
REMARK    2  A    between atoms: C_2  and  N_9
REMARK    3  A    between atoms: S_14  and  N_18
REMARK                            x       y       z     vdW  Elec       q    Type
REMARK                         _______ _______ _______ _____ _____    ______ ____
ROOT
ATOM      1  C   UNL     1     -34.961  24.343   4.308  0.00  0.00    +0.125 C 
ATOM      2  C   UNL     1     -33.574  26.745   4.613  0.00  0.00    +0.061 C 
ATOM      3  C   UNL     1     -34.206  24.852   3.250  0.00  0.00    +0.021 C 
ATOM      4  C   UNL     1     -35.022  25.035   5.517  0.00  0.00    +0.021 C 
ATOM      5  C   UNL     1     -33.513  26.053   3.403  0.00  0.00    +0.017 C 
ATOM      6  C   UNL     1     -34.329  26.236   5.669  0.00  0.00    +0.017 C 
ENDROOT
BRANCH   2   9
ATOM      7  O   UNL     1     -34.012  29.434   3.287  0.00  0.00    -0.269 OA
ATOM      8  O   UNL     1     -31.195  27.419   6.365  0.00  0.00    -0.269 OA
ATOM      9  N   UNL     1     -32.863  27.978   4.769  0.00  0.00    -0.201 N 
ATOM     10  C   UNL     1     -33.164  29.158   4.120  0.00  0.00    +0.259 C 
ATOM     11  C   UNL     1     -31.770  28.167   5.592  0.00  0.00    +0.259 C 
ATOM     12  C   UNL     1     -32.189  30.157   4.579  0.00  0.00    +0.063 C 
ATOM     13  C   UNL     1     -31.360  29.571   5.437  0.00  0.00    +0.063 C 
ENDBRANCH   2   9
BRANCH   1  14
ATOM     14  S   UNL     1     -35.828  22.840   4.116  0.00  0.00    +0.076 S 
ATOM     15  O   UNL     1     -35.577  21.998   5.278  0.00  0.00    -0.150 OA
ATOM     16  O   UNL     1     -37.200  23.166   3.747  0.00  0.00    -0.150 OA
BRANCH  14  18
ATOM     17  O   UNL     1     -36.203  20.117   2.636  0.00  0.00    -0.274 OA
ATOM     18  N   UNL     1     -35.041  22.154   2.756  0.00  0.00    -0.185 N 
ATOM     19  C   UNL     1     -35.325  20.861   2.213  0.00  0.00    +0.241 C 
ATOM     20  C   UNL     1     -34.438  20.492   1.060  0.00  0.00    +0.096 C 
ATOM     21  H   UNL     1     -34.342  22.690   2.317  0.00  0.00    +0.177 HD
ENDBRANCH  14  18
ENDBRANCH   1  14
TORSDOF 3
ENDMDL
MODEL 7
REMARK VINA RESULT:      -5.9      2.638      3.859
REMARK  Name = 192749
REMARK  3 active torsions:
REMARK  status: ('A' for Active; 'I' for Inactive)
REMARK    1  A    between atoms: C_1  and  S_14
REMARK    2  A    between atoms: C_2  and  N_9
REMARK    3  A    between atoms: S_14  and  N_18
REMARK                            x       y       z     vdW  Elec       q    Type
REMARK                         _______ _______ _______ _____ _____    ______ ____
ROOT
ATOM      1  C   UNL     1     -34.865  24.344   4.294  0.00  0.00    +0.125 C 
ATOM      2  C   UNL     1     -33.514  26.769   4.579  0.00  0.00    +0.061 C 
ATOM      3  C   UNL     1     -34.904  25.026   5.511  0.00  0.00    +0.021 C 
ATOM      4  C   UNL     1     -34.149  24.875   3.221  0.00  0.00    +0.021 C 
ATOM      5  C   UNL     1     -34.229  26.238   5.653  0.00  0.00    +0.017 C 
ATOM      6  C   UNL     1     -33.474  26.087   3.363  0.00  0.00    +0.017 C 
ENDROOT
BRANCH   2   9
ATOM      7  O   UNL     1     -31.109  27.477   6.280  0.00  0.00    -0.269 OA
ATOM      8  O   UNL     1     -34.028  29.457   3.277  0.00  0.00    -0.269 OA
ATOM      9  N   UNL     1     -32.820  28.013   4.726  0.00  0.00    -0.201 N 
ATOM     10  C   UNL     1     -31.714  28.218   5.524  0.00  0.00    +0.259 C 
ATOM     11  C   UNL     1     -33.158  29.192   4.090  0.00  0.00    +0.259 C 
ATOM     12  C   UNL     1     -31.331  29.629   5.368  0.00  0.00    +0.063 C 
ATOM     13  C   UNL     1     -32.189  30.206   4.532  0.00  0.00    +0.063 C 
ENDBRANCH   2   9
BRANCH   1  14
ATOM     14  S   UNL     1     -35.709  22.827   4.117  0.00  0.00    +0.076 S 
ATOM     15  O   UNL     1     -35.323  21.940   5.206  0.00  0.00    -0.150 OA
ATOM     16  O   UNL     1     -37.119  23.128   3.900  0.00  0.00    -0.150 OA
BRANCH  14  18
ATOM     17  O   UNL     1     -36.094  20.127   2.597  0.00  0.00    -0.274 OA
ATOM     18  N   UNL     1     -35.045  22.227   2.655  0.00  0.00    -0.185 N 
ATOM     19  C   UNL     1     -35.315  20.934   2.103  0.00  0.00    +0.241 C 
ATOM     20  C   UNL     1     -34.545  20.651   0.846  0.00  0.00    +0.096 C 
ATOM     21  H   UNL     1     -34.432  22.816   2.158  0.00  0.00    +0.177 HD
ENDBRANCH  14  18
ENDBRANCH   1  14
TORSDOF 3
ENDMDL
MODEL 8
REMARK VINA RESULT:      -5.9      1.954      2.575
REMARK  Name = 192749
REMARK  3 active torsions:
REMARK  status: ('A' for Active; 'I' for Inactive)
REMARK    1  A    between atoms: C_1  and  S_14
REMARK    2  A    between atoms: C_2  and  N_9
REMARK    3  A    between atoms: S_14  and  N_18
REMARK                            x       y       z     vdW  Elec       q    Type
REMARK                         _______ _______ _______ _____ _____    ______ ____
ROOT
ATOM      1  C   UNL     1     -34.285  25.365   4.806  0.00  0.00    +0.125 C 
ATOM      2  C   UNL     1     -32.650  27.607   5.107  0.00  0.00    +0.061 C 
ATOM      3  C   UNL     1     -34.005  25.859   6.081  0.00  0.00    +0.021 C 
ATOM      4  C   UNL     1     -33.747  25.992   3.683  0.00  0.00    +0.021 C 
ATOM      5  C   UNL     1     -33.188  26.979   6.231  0.00  0.00    +0.017 C 
ATOM      6  C   UNL     1     -32.929  27.112   3.833  0.00  0.00    +0.017 C 
ENDROOT
BRANCH   2   9
ATOM      7  O   UNL     1     -33.235  30.536   4.604  0.00  0.00    -0.269 OA
ATOM      8  O   UNL     1     -29.771  27.812   6.032  0.00  0.00    -0.269 OA
ATOM      9  N   UNL     1     -31.810  28.756   5.261  0.00  0.00    -0.201 N 
ATOM     10  C   UNL     1     -32.192  30.059   5.017  0.00  0.00    +0.259 C 
ATOM     11  C   UNL     1     -30.493  28.729   5.678  0.00  0.00    +0.259 C 
ATOM     12  C   UNL     1     -31.026  30.906   5.309  0.00  0.00    +0.063 C 
ATOM     13  C   UNL     1     -30.022  30.122   5.687  0.00  0.00    +0.063 C 
ENDBRANCH   2   9
BRANCH   1  14
ATOM     14  S   UNL     1     -35.308  23.963   4.619  0.00  0.00    +0.076 S 
ATOM     15  O   UNL     1     -34.870  22.931   5.549  0.00  0.00    -0.150 OA
ATOM     16  O   UNL     1     -36.692  24.418   4.649  0.00  0.00    -0.150 OA
BRANCH  14  18
ATOM     17  O   UNL     1     -36.281  21.550   2.892  0.00  0.00    -0.274 OA
ATOM     18  N   UNL     1     -34.927  23.466   3.023  0.00  0.00    -0.185 N 
ATOM     19  C   UNL     1     -35.455  22.300   2.382  0.00  0.00    +0.241 C 
ATOM     20  C   UNL     1     -34.898  22.073   1.006  0.00  0.00    +0.096 C 
ATOM     21  H   UNL     1     -34.298  24.023   2.510  0.00  0.00    +0.177 HD
ENDBRANCH  14  18
ENDBRANCH   1  14
TORSDOF 3
ENDMDL
MODEL 9
REMARK VINA RESULT:      -5.9      5.137      7.835
REMARK  Name = 192749
REMARK  3 active torsions:
REMARK  status: ('A' for Active; 'I' for Inactive)
REMARK    1  A    between atoms: C_1  and  S_14
REMARK    2  A    between atoms: C_2  and  N_9
REMARK    3  A    between atoms: S_14  and  N_18
REMARK                            x       y       z     vdW  Elec       q    Type
REMARK                         _______ _______ _______ _____ _____    ______ ____
ROOT
ATOM      1  C   UNL     1     -34.806  20.788   1.467  0.00  0.00    +0.125 C 
ATOM      2  C   UNL     1     -35.266  23.008   3.094  0.00  0.00    +0.061 C 
ATOM      3  C   UNL     1     -35.289  20.614   2.765  0.00  0.00    +0.021 C 
ATOM      4  C   UNL     1     -34.552  22.071   0.984  0.00  0.00    +0.021 C 
ATOM      5  C   UNL     1     -35.519  21.724   3.577  0.00  0.00    +0.017 C 
ATOM      6  C   UNL     1     -34.782  23.181   1.797  0.00  0.00    +0.017 C 
ENDROOT
BRANCH   2   9
ATOM      7  O   UNL     1     -37.868  24.317   3.925  0.00  0.00    -0.269 OA
ATOM      8  O   UNL     1     -33.303  24.808   4.540  0.00  0.00    -0.269 OA
ATOM      9  N   UNL     1     -35.501  24.147   3.928  0.00  0.00    -0.201 N 
ATOM     10  C   UNL     1     -36.743  24.650   4.257  0.00  0.00    +0.259 C 
ATOM     11  C   UNL     1     -34.518  24.911   4.527  0.00  0.00    +0.259 C 
ATOM     12  C   UNL     1     -36.516  25.810   5.131  0.00  0.00    +0.063 C 
ATOM     13  C   UNL     1     -35.205  25.971   5.281  0.00  0.00    +0.063 C 
ENDBRANCH   2   9
BRANCH   1  14
ATOM     14  S   UNL     1     -34.517  19.398   0.451  0.00  0.00    +0.076 S 
ATOM     15  O   UNL     1     -34.136  19.856  -0.879  0.00  0.00    -0.150 OA
ATOM     16  O   UNL     1     -33.638  18.493   1.179  0.00  0.00    -0.150 OA
BRANCH  14  18
ATOM     17  O   UNL     1     -35.619  16.922  -1.100  0.00  0.00    -0.274 OA
ATOM     18  N   UNL     1     -36.080  18.698   0.367  0.00  0.00    -0.185 N 
ATOM     19  C   UNL     1     -36.423  17.557  -0.426  0.00  0.00    +0.241 C 
ATOM     20  C   UNL     1     -37.880  17.200  -0.357  0.00  0.00    +0.096 C 
ATOM     21  H   UNL     1     -36.794  19.111   0.903  0.00  0.00    +0.177 HD
ENDBRANCH  14  18
ENDBRANCH   1  14
TORSDOF 3
ENDMDL
