MODEL 1
REMARK VINA RESULT:      -6.2      0.000      0.000
REMARK  Name = 6073911
REMARK  15 active torsions:
REMARK  status: ('A' for Active; 'I' for Inactive)
REMARK    1  A    between atoms: C_3  and  C_20
REMARK    2  A    between atoms: C_4  and  O_8
REMARK    3  A    between atoms: C_5  and  C_10
REMARK    4  A    between atoms: C_11  and  C_12
REMARK    5  A    between atoms: C_12  and  O_13
REMARK    6  A    between atoms: C_12  and  C_15
REMARK    7  A    between atoms: C_15  and  C_16
REMARK    8  A    between atoms: C_16  and  C_17
REMARK    9  A    between atoms: C_17  and  C_18
REMARK   10  A    between atoms: C_20  and  C_21
REMARK   11  A    between atoms: C_22  and  C_23
REMARK   12  A    between atoms: C_23  and  C_24
REMARK   13  A    between atoms: C_24  and  C_25
REMARK   14  A    between atoms: C_25  and  C_27
REMARK   15  A    between atoms: C_27  and  O_28
REMARK                            x       y       z     vdW  Elec       q    Type
REMARK                         _______ _______ _______ _____ _____    ______ ____
ROOT
ATOM      1  O   UNL     1     -34.666  24.035   4.787  0.00  0.00    -0.448 OA
ATOM      2  O   UNL     1     -33.414  25.860   5.269  0.00  0.00    -0.250 OA
ATOM      3  C   UNL     1     -36.688  24.409   3.503  0.00  0.00    +0.076 C 
ATOM      4  C   UNL     1     -36.741  25.862   4.018  0.00  0.00    +0.126 C 
ATOM      5  C   UNL     1     -35.995  23.511   4.540  0.00  0.00    +0.193 C 
ATOM      6  C   UNL     1     -35.799  26.129   5.186  0.00  0.00    +0.139 C 
ATOM      7  C   UNL     1     -34.514  25.355   5.070  0.00  0.00    +0.320 C 
ENDROOT
BRANCH   4   8
ATOM      8  O   UNL     1     -36.403  26.752   2.953  0.00  0.00    -0.384 OA
ATOM      9  H   UNL     1     -36.182  27.624   3.317  0.00  0.00    +0.210 HD
ENDBRANCH   4   8
BRANCH   5  10
ATOM     10  C   UNL     1     -35.817  22.094   4.095  0.00  0.00    +0.015 C 
ATOM     11  C   UNL     1     -35.492  21.740   2.843  0.00  0.00    +0.001 C 
BRANCH  11  12
ATOM     12  C   UNL     1     -35.316  20.314   2.400  0.00  0.00    +0.132 C 
BRANCH  12  13
ATOM     13  O   UNL     1     -36.594  19.674   2.428  0.00  0.00    -0.380 OA
ATOM     14  H   UNL     1     -37.273  20.320   2.678  0.00  0.00    +0.211 HD
ENDBRANCH  12  13
BRANCH  12  15
ATOM     15  C   UNL     1     -34.776  20.196   0.968  0.00  0.00    +0.034 C 
BRANCH  15  16
ATOM     16  C   UNL     1     -33.279  19.878   0.913  0.00  0.00    +0.003 C 
BRANCH  16  17
ATOM     17  C   UNL     1     -32.943  18.458   1.384  0.00  0.00    +0.000 C 
BRANCH  17  18
ATOM     18  C   UNL     1     -31.531  18.009   1.005  0.00  0.00    +0.000 C 
ATOM     19  C   UNL     1     -30.826  19.058   0.157  0.00  0.00    +0.000 C 
ENDBRANCH  17  18
ENDBRANCH  16  17
ENDBRANCH  15  16
ENDBRANCH  12  15
ENDBRANCH  11  12
ENDBRANCH   5  10
BRANCH   3  20
ATOM     20  C   UNL     1     -38.097  23.937   3.132  0.00  0.00    +0.032 C 
BRANCH  20  21
ATOM     21  C   UNL     1     -39.188  24.964   3.200  0.00  0.00    -0.030 C 
ATOM     22  C   UNL     1     -40.000  25.359   2.207  0.00  0.00    -0.031 C 
BRANCH  22  23
ATOM     23  C   UNL     1     -41.075  26.393   2.374  0.00  0.00    +0.026 C 
BRANCH  23  24
ATOM     24  C   UNL     1     -41.700  26.410   3.775  0.00  0.00    +0.016 C 
BRANCH  24  25
ATOM     25  C   UNL     1     -43.024  27.176   3.857  0.00  0.00    +0.110 C 
BRANCH  25  27
ATOM     26  O   UNL     1     -43.272  29.418   2.940  0.00  0.00    -0.250 OA
ATOM     27  C   UNL     1     -42.861  28.681   3.826  0.00  0.00    +0.314 C 
BRANCH  27  28
ATOM     28  O   UNL     1     -42.154  29.132   4.894  0.00  0.00    -0.480 OA
ATOM     29  H   UNL     1     -41.964  30.045   4.980  0.00  0.00    +0.295 HD
ENDBRANCH  27  28
ENDBRANCH  25  27
ENDBRANCH  24  25
ENDBRANCH  23  24
ENDBRANCH  22  23
ENDBRANCH  20  21
ENDBRANCH   3  20
TORSDOF 15
ENDMDL
MODEL 2
REMARK VINA RESULT:      -6.0      2.944      5.798
REMARK  Name = 6073911
REMARK  15 active torsions:
REMARK  status: ('A' for Active; 'I' for Inactive)
REMARK    1  A    between atoms: C_3  and  C_20
REMARK    2  A    between atoms: C_4  and  O_8
REMARK    3  A    between atoms: C_5  and  C_10
REMARK    4  A    between atoms: C_11  and  C_12
REMARK    5  A    between atoms: C_12  and  O_13
REMARK    6  A    between atoms: C_12  and  C_15
REMARK    7  A    between atoms: C_15  and  C_16
REMARK    8  A    between atoms: C_16  and  C_17
REMARK    9  A    between atoms: C_17  and  C_18
REMARK   10  A    between atoms: C_20  and  C_21
REMARK   11  A    between atoms: C_22  and  C_23
REMARK   12  A    between atoms: C_23  and  C_24
REMARK   13  A    between atoms: C_24  and  C_25
REMARK   14  A    between atoms: C_25  and  C_27
REMARK   15  A    between atoms: C_27  and  O_28
REMARK                            x       y       z     vdW  Elec       q    Type
REMARK                         _______ _______ _______ _____ _____    ______ ____
ROOT
ATOM      1  O   UNL     1     -36.479  24.532   1.092  0.00  0.00    -0.448 OA
ATOM      2  O   UNL     1     -37.642  25.853  -0.332  0.00  0.00    -0.250 OA
ATOM      3  C   UNL     1     -36.909  24.836   3.458  0.00  0.00    +0.076 C 
ATOM      4  C   UNL     1     -37.364  26.284   3.184  0.00  0.00    +0.126 C 
ATOM      5  C   UNL     1     -35.877  24.403   2.404  0.00  0.00    +0.193 C 
ATOM      6  C   UNL     1     -37.007  26.782   1.790  0.00  0.00    +0.139 C 
ATOM      7  C   UNL     1     -37.099  25.693   0.755  0.00  0.00    +0.320 C 
ENDROOT
BRANCH   4   8
ATOM      8  O   UNL     1     -38.781  26.370   3.346  0.00  0.00    -0.384 OA
ATOM      9  H   UNL     1     -39.067  25.741   4.028  0.00  0.00    +0.210 HD
ENDBRANCH   4   8
BRANCH   5  10
ATOM     10  C   UNL     1     -35.436  22.979   2.533  0.00  0.00    +0.015 C 
ATOM     11  C   UNL     1     -36.221  21.928   2.258  0.00  0.00    +0.001 C 
BRANCH  11  12
ATOM     12  C   UNL     1     -35.774  20.498   2.391  0.00  0.00    +0.132 C 
BRANCH  12  13
ATOM     13  O   UNL     1     -36.924  19.691   2.651  0.00  0.00    -0.380 OA
ATOM     14  H   UNL     1     -37.243  19.305   1.820  0.00  0.00    +0.211 HD
ENDBRANCH  12  13
BRANCH  12  15
ATOM     15  C   UNL     1     -35.113  19.959   1.114  0.00  0.00    +0.034 C 
BRANCH  15  16
ATOM     16  C   UNL     1     -33.604  19.747   1.260  0.00  0.00    +0.003 C 
BRANCH  16  17
ATOM     17  C   UNL     1     -33.182  18.278   1.139  0.00  0.00    +0.000 C 
BRANCH  17  18
ATOM     18  C   UNL     1     -31.668  18.074   1.184  0.00  0.00    +0.000 C 
ATOM     19  C   UNL     1     -30.957  18.974   0.184  0.00  0.00    +0.000 C 
ENDBRANCH  17  18
ENDBRANCH  16  17
ENDBRANCH  15  16
ENDBRANCH  12  15
ENDBRANCH  11  12
ENDBRANCH   5  10
BRANCH   3  20
ATOM     20  C   UNL     1     -36.398  24.713   4.897  0.00  0.00    +0.032 C 
BRANCH  20  21
ATOM     21  C   UNL     1     -35.468  25.790   5.372  0.00  0.00    -0.030 C 
ATOM     22  C   UNL     1     -34.174  25.661   5.705  0.00  0.00    -0.031 C 
BRANCH  22  23
ATOM     23  C   UNL     1     -33.316  26.805   6.162  0.00  0.00    +0.026 C 
BRANCH  23  24
ATOM     24  C   UNL     1     -32.672  27.589   5.010  0.00  0.00    +0.016 C 
BRANCH  24  25
ATOM     25  C   UNL     1     -31.465  28.433   5.431  0.00  0.00    +0.110 C 
BRANCH  25  27
ATOM     26  O   UNL     1     -32.410  30.609   5.981  0.00  0.00    -0.250 OA
ATOM     27  C   UNL     1     -31.818  29.598   6.332  0.00  0.00    +0.314 C 
BRANCH  27  28
ATOM     28  O   UNL     1     -31.356  29.413   7.595  0.00  0.00    -0.480 OA
ATOM     29  H   UNL     1     -31.954  29.399   8.317  0.00  0.00    +0.295 HD
ENDBRANCH  27  28
ENDBRANCH  25  27
ENDBRANCH  24  25
ENDBRANCH  23  24
ENDBRANCH  22  23
ENDBRANCH  20  21
ENDBRANCH   3  20
TORSDOF 15
ENDMDL
MODEL 3
REMARK VINA RESULT:      -5.9      2.597      5.896
REMARK  Name = 6073911
REMARK  15 active torsions:
REMARK  status: ('A' for Active; 'I' for Inactive)
REMARK    1  A    between atoms: C_3  and  C_20
REMARK    2  A    between atoms: C_4  and  O_8
REMARK    3  A    between atoms: C_5  and  C_10
REMARK    4  A    between atoms: C_11  and  C_12
REMARK    5  A    between atoms: C_12  and  O_13
REMARK    6  A    between atoms: C_12  and  C_15
REMARK    7  A    between atoms: C_15  and  C_16
REMARK    8  A    between atoms: C_16  and  C_17
REMARK    9  A    between atoms: C_17  and  C_18
REMARK   10  A    between atoms: C_20  and  C_21
REMARK   11  A    between atoms: C_22  and  C_23
REMARK   12  A    between atoms: C_23  and  C_24
REMARK   13  A    between atoms: C_24  and  C_25
REMARK   14  A    between atoms: C_25  and  C_27
REMARK   15  A    between atoms: C_27  and  O_28
REMARK                            x       y       z     vdW  Elec       q    Type
REMARK                         _______ _______ _______ _____ _____    ______ ____
ROOT
ATOM      1  O   UNL     1     -39.362  23.396   1.359  0.00  0.00    -0.448 OA
ATOM      2  O   UNL     1     -41.513  24.056   1.622  0.00  0.00    -0.250 OA
ATOM      3  C   UNL     1     -37.650  24.931   2.126  0.00  0.00    +0.076 C 
ATOM      4  C   UNL     1     -38.630  26.109   1.939  0.00  0.00    +0.126 C 
ATOM      5  C   UNL     1     -37.990  23.806   1.135  0.00  0.00    +0.193 C 
ATOM      6  C   UNL     1     -39.875  25.746   1.141  0.00  0.00    +0.139 C 
ATOM      7  C   UNL     1     -40.338  24.340   1.416  0.00  0.00    +0.320 C 
ENDROOT
BRANCH   4   8
ATOM      8  O   UNL     1     -39.038  26.588   3.222  0.00  0.00    -0.384 OA
ATOM      9  H   UNL     1     -38.668  26.015   3.914  0.00  0.00    +0.210 HD
ENDBRANCH   4   8
BRANCH   5  10
ATOM     10  C   UNL     1     -37.148  22.580   1.295  0.00  0.00    +0.015 C 
ATOM     11  C   UNL     1     -36.710  22.125   2.478  0.00  0.00    +0.001 C 
BRANCH  11  12
ATOM     12  C   UNL     1     -35.862  20.894   2.633  0.00  0.00    +0.132 C 
BRANCH  12  13
ATOM     13  O   UNL     1     -36.698  19.748   2.461  0.00  0.00    -0.380 OA
ATOM     14  H   UNL     1     -37.158  19.809   1.609  0.00  0.00    +0.211 HD
ENDBRANCH  12  13
BRANCH  12  15
ATOM     15  C   UNL     1     -34.740  20.805   1.588  0.00  0.00    +0.034 C 
BRANCH  15  16
ATOM     16  C   UNL     1     -34.071  19.429   1.537  0.00  0.00    +0.003 C 
BRANCH  16  17
ATOM     17  C   UNL     1     -32.714  19.441   0.822  0.00  0.00    +0.000 C 
BRANCH  17  18
ATOM     18  C   UNL     1     -31.888  18.177   1.065  0.00  0.00    +0.000 C 
ATOM     19  C   UNL     1     -30.464  18.341   0.556  0.00  0.00    +0.000 C 
ENDBRANCH  17  18
ENDBRANCH  16  17
ENDBRANCH  15  16
ENDBRANCH  12  15
ENDBRANCH  11  12
ENDBRANCH   5  10
BRANCH   3  20
ATOM     20  C   UNL     1     -36.207  25.431   2.008  0.00  0.00    +0.032 C 
BRANCH  20  21
ATOM     21  C   UNL     1     -35.499  25.743   3.293  0.00  0.00    -0.030 C 
ATOM     22  C   UNL     1     -35.907  25.456   4.540  0.00  0.00    -0.031 C 
BRANCH  22  23
ATOM     23  C   UNL     1     -35.120  25.801   5.771  0.00  0.00    +0.026 C 
BRANCH  23  24
ATOM     24  C   UNL     1     -33.734  26.386   5.472  0.00  0.00    +0.016 C 
BRANCH  24  25
ATOM     25  C   UNL     1     -32.989  26.887   6.713  0.00  0.00    +0.110 C 
BRANCH  25  27
ATOM     26  O   UNL     1     -32.326  29.117   5.993  0.00  0.00    -0.250 OA
ATOM     27  C   UNL     1     -32.021  28.016   6.430  0.00  0.00    +0.314 C 
BRANCH  27  28
ATOM     28  O   UNL     1     -30.737  27.650   6.680  0.00  0.00    -0.480 OA
ATOM     29  H   UNL     1     -30.106  28.294   6.935  0.00  0.00    +0.295 HD
ENDBRANCH  27  28
ENDBRANCH  25  27
ENDBRANCH  24  25
ENDBRANCH  23  24
ENDBRANCH  22  23
ENDBRANCH  20  21
ENDBRANCH   3  20
TORSDOF 15
ENDMDL
MODEL 4
REMARK VINA RESULT:      -5.9      2.893      4.190
REMARK  Name = 6073911
REMARK  15 active torsions:
REMARK  status: ('A' for Active; 'I' for Inactive)
REMARK    1  A    between atoms: C_3  and  C_20
REMARK    2  A    between atoms: C_4  and  O_8
REMARK    3  A    between atoms: C_5  and  C_10
REMARK    4  A    between atoms: C_11  and  C_12
REMARK    5  A    between atoms: C_12  and  O_13
REMARK    6  A    between atoms: C_12  and  C_15
REMARK    7  A    between atoms: C_15  and  C_16
REMARK    8  A    between atoms: C_16  and  C_17
REMARK    9  A    between atoms: C_17  and  C_18
REMARK   10  A    between atoms: C_20  and  C_21
REMARK   11  A    between atoms: C_22  and  C_23
REMARK   12  A    between atoms: C_23  and  C_24
REMARK   13  A    between atoms: C_24  and  C_25
REMARK   14  A    between atoms: C_25  and  C_27
REMARK   15  A    between atoms: C_27  and  O_28
REMARK                            x       y       z     vdW  Elec       q    Type
REMARK                         _______ _______ _______ _____ _____    ______ ____
ROOT
ATOM      1  O   UNL     1     -34.692  24.036   4.812  0.00  0.00    -0.448 OA
ATOM      2  O   UNL     1     -33.341  25.780   5.327  0.00  0.00    -0.250 OA
ATOM      3  C   UNL     1     -36.686  24.544   3.530  0.00  0.00    +0.076 C 
ATOM      4  C   UNL     1     -36.659  25.989   4.070  0.00  0.00    +0.126 C 
ATOM      5  C   UNL     1     -36.047  23.591   4.554  0.00  0.00    +0.193 C 
ATOM      6  C   UNL     1     -35.708  26.184   5.244  0.00  0.00    +0.139 C 
ATOM      7  C   UNL     1     -34.467  25.341   5.118  0.00  0.00    +0.320 C 
ENDROOT
BRANCH   4   8
ATOM      8  O   UNL     1     -36.269  26.876   3.020  0.00  0.00    -0.384 OA
ATOM      9  H   UNL     1     -35.455  27.341   3.275  0.00  0.00    +0.210 HD
ENDBRANCH   4   8
BRANCH   5  10
ATOM     10  C   UNL     1     -35.948  22.174   4.085  0.00  0.00    +0.015 C 
ATOM     11  C   UNL     1     -35.410  21.812   2.911  0.00  0.00    +0.001 C 
BRANCH  11  12
ATOM     12  C   UNL     1     -35.314  20.387   2.444  0.00  0.00    +0.132 C 
BRANCH  12  13
ATOM     13  O   UNL     1     -36.607  19.790   2.554  0.00  0.00    -0.380 OA
ATOM     14  H   UNL     1     -36.546  18.982   3.088  0.00  0.00    +0.211 HD
ENDBRANCH  12  13
BRANCH  12  15
ATOM     15  C   UNL     1     -34.877  20.268   0.976  0.00  0.00    +0.034 C 
BRANCH  15  16
ATOM     16  C   UNL     1     -34.303  18.892   0.627  0.00  0.00    +0.003 C 
BRANCH  16  17
ATOM     17  C   UNL     1     -33.039  18.543   1.422  0.00  0.00    +0.000 C 
BRANCH  17  18
ATOM     18  C   UNL     1     -31.794  18.390   0.548  0.00  0.00    +0.000 C 
ATOM     19  C   UNL     1     -31.271  19.742   0.086  0.00  0.00    +0.000 C 
ENDBRANCH  17  18
ENDBRANCH  16  17
ENDBRANCH  15  16
ENDBRANCH  12  15
ENDBRANCH  11  12
ENDBRANCH   5  10
BRANCH   3  20
ATOM     20  C   UNL     1     -38.119  24.158   3.149  0.00  0.00    +0.032 C 
BRANCH  20  21
ATOM     21  C   UNL     1     -38.396  23.975   1.687  0.00  0.00    -0.030 C 
ATOM     22  C   UNL     1     -37.522  23.640   0.726  0.00  0.00    -0.031 C 
BRANCH  22  23
ATOM     23  C   UNL     1     -37.898  23.470  -0.717  0.00  0.00    +0.026 C 
BRANCH  23  24
ATOM     24  C   UNL     1     -37.885  22.009  -1.189  0.00  0.00    +0.016 C 
BRANCH  24  25
ATOM     25  C   UNL     1     -39.276  21.376  -1.292  0.00  0.00    +0.110 C 
BRANCH  25  27
ATOM     26  O   UNL     1     -40.944  20.951   0.430  0.00  0.00    -0.250 OA
ATOM     27  C   UNL     1     -39.798  20.830   0.020  0.00  0.00    +0.314 C 
BRANCH  27  28
ATOM     28  O   UNL     1     -38.820  20.213   0.732  0.00  0.00    -0.480 OA
ATOM     29  H   UNL     1     -38.640  19.304   0.592  0.00  0.00    +0.295 HD
ENDBRANCH  27  28
ENDBRANCH  25  27
ENDBRANCH  24  25
ENDBRANCH  23  24
ENDBRANCH  22  23
ENDBRANCH  20  21
ENDBRANCH   3  20
TORSDOF 15
ENDMDL
MODEL 5
REMARK VINA RESULT:      -5.9      2.300      8.040
REMARK  Name = 6073911
REMARK  15 active torsions:
REMARK  status: ('A' for Active; 'I' for Inactive)
REMARK    1  A    between atoms: C_3  and  C_20
REMARK    2  A    between atoms: C_4  and  O_8
REMARK    3  A    between atoms: C_5  and  C_10
REMARK    4  A    between atoms: C_11  and  C_12
REMARK    5  A    between atoms: C_12  and  O_13
REMARK    6  A    between atoms: C_12  and  C_15
REMARK    7  A    between atoms: C_15  and  C_16
REMARK    8  A    between atoms: C_16  and  C_17
REMARK    9  A    between atoms: C_17  and  C_18
REMARK   10  A    between atoms: C_20  and  C_21
REMARK   11  A    between atoms: C_22  and  C_23
REMARK   12  A    between atoms: C_23  and  C_24
REMARK   13  A    between atoms: C_24  and  C_25
REMARK   14  A    between atoms: C_25  and  C_27
REMARK   15  A    between atoms: C_27  and  O_28
REMARK                            x       y       z     vdW  Elec       q    Type
REMARK                         _______ _______ _______ _____ _____    ______ ____
ROOT
ATOM      1  O   UNL     1     -39.359  26.581   2.216  0.00  0.00    -0.448 OA
ATOM      2  O   UNL     1     -40.855  27.530   0.805  0.00  0.00    -0.250 OA
ATOM      3  C   UNL     1     -38.936  24.212   1.924  0.00  0.00    +0.076 C 
ATOM      4  C   UNL     1     -40.330  24.047   1.282  0.00  0.00    +0.126 C 
ATOM      5  C   UNL     1     -38.954  25.381   2.922  0.00  0.00    +0.193 C 
ATOM      6  C   UNL     1     -41.237  25.256   1.477  0.00  0.00    +0.139 C 
ATOM      7  C   UNL     1     -40.474  26.553   1.440  0.00  0.00    +0.320 C 
ENDROOT
BRANCH   4   8
ATOM      8  O   UNL     1     -40.177  23.818  -0.120  0.00  0.00    -0.384 OA
ATOM      9  H   UNL     1     -39.252  23.968  -0.373  0.00  0.00    +0.210 HD
ENDBRANCH   4   8
BRANCH   5  10
ATOM     10  C   UNL     1     -37.623  25.678   3.535  0.00  0.00    +0.015 C 
ATOM     11  C   UNL     1     -36.539  26.035   2.831  0.00  0.00    +0.001 C 
BRANCH  11  12
ATOM     12  C   UNL     1     -35.202  26.329   3.453  0.00  0.00    +0.132 C 
BRANCH  12  13
ATOM     13  O   UNL     1     -35.419  27.055   4.664  0.00  0.00    -0.380 OA
ATOM     14  H   UNL     1     -36.272  26.795   5.048  0.00  0.00    +0.211 HD
ENDBRANCH  12  13
BRANCH  12  15
ATOM     15  C   UNL     1     -34.419  25.059   3.813  0.00  0.00    +0.034 C 
BRANCH  15  16
ATOM     16  C   UNL     1     -34.552  24.666   5.287  0.00  0.00    +0.003 C 
BRANCH  16  17
ATOM     17  C   UNL     1     -35.696  23.679   5.551  0.00  0.00    +0.000 C 
BRANCH  17  18
ATOM     18  C   UNL     1     -35.255  22.425   6.307  0.00  0.00    +0.000 C 
ATOM     19  C   UNL     1     -35.021  21.260   5.356  0.00  0.00    +0.000 C 
ENDBRANCH  17  18
ENDBRANCH  16  17
ENDBRANCH  15  16
ENDBRANCH  12  15
ENDBRANCH  11  12
ENDBRANCH   5  10
BRANCH   3  20
ATOM     20  C   UNL     1     -38.490  22.886   2.547  0.00  0.00    +0.032 C 
BRANCH  20  21
ATOM     21  C   UNL     1     -37.376  22.160   1.853  0.00  0.00    -0.030 C 
ATOM     22  C   UNL     1     -36.057  22.319   2.042  0.00  0.00    -0.031 C 
BRANCH  22  23
ATOM     23  C   UNL     1     -35.011  21.536   1.303  0.00  0.00    +0.026 C 
BRANCH  23  24
ATOM     24  C   UNL     1     -34.980  20.047   1.676  0.00  0.00    +0.016 C 
BRANCH  24  25
ATOM     25  C   UNL     1     -33.594  19.406   1.560  0.00  0.00    +0.110 C 
BRANCH  25  27
ATOM     26  O   UNL     1     -34.467  17.712   0.045  0.00  0.00    -0.250 OA
ATOM     27  C   UNL     1     -33.589  18.093   0.806  0.00  0.00    +0.314 C 
BRANCH  27  28
ATOM     28  O   UNL     1     -32.496  17.346   1.107  0.00  0.00    -0.480 OA
ATOM     29  H   UNL     1     -31.673  17.531   0.698  0.00  0.00    +0.295 HD
ENDBRANCH  27  28
ENDBRANCH  25  27
ENDBRANCH  24  25
ENDBRANCH  23  24
ENDBRANCH  22  23
ENDBRANCH  20  21
ENDBRANCH   3  20
TORSDOF 15
ENDMDL
MODEL 6
REMARK VINA RESULT:      -5.8      2.316      3.205
REMARK  Name = 6073911
REMARK  15 active torsions:
REMARK  status: ('A' for Active; 'I' for Inactive)
REMARK    1  A    between atoms: C_3  and  C_20
REMARK    2  A    between atoms: C_4  and  O_8
REMARK    3  A    between atoms: C_5  and  C_10
REMARK    4  A    between atoms: C_11  and  C_12
REMARK    5  A    between atoms: C_12  and  O_13
REMARK    6  A    between atoms: C_12  and  C_15
REMARK    7  A    between atoms: C_15  and  C_16
REMARK    8  A    between atoms: C_16  and  C_17
REMARK    9  A    between atoms: C_17  and  C_18
REMARK   10  A    between atoms: C_20  and  C_21
REMARK   11  A    between atoms: C_22  and  C_23
REMARK   12  A    between atoms: C_23  and  C_24
REMARK   13  A    between atoms: C_24  and  C_25
REMARK   14  A    between atoms: C_25  and  C_27
REMARK   15  A    between atoms: C_27  and  O_28
REMARK                            x       y       z     vdW  Elec       q    Type
REMARK                         _______ _______ _______ _____ _____    ______ ____
ROOT
ATOM      1  O   UNL     1     -35.501  21.784   4.559  0.00  0.00    -0.448 OA
ATOM      2  O   UNL     1     -35.173  22.181   6.764  0.00  0.00    -0.250 OA
ATOM      3  C   UNL     1     -34.754  23.502   3.020  0.00  0.00    +0.076 C 
ATOM      4  C   UNL     1     -34.896  24.557   4.137  0.00  0.00    +0.126 C 
ATOM      5  C   UNL     1     -35.754  22.357   3.251  0.00  0.00    +0.193 C 
ATOM      6  C   UNL     1     -35.669  24.059   5.352  0.00  0.00    +0.139 C 
ATOM      7  C   UNL     1     -35.404  22.605   5.638  0.00  0.00    +0.320 C 
ENDROOT
BRANCH   4   8
ATOM      8  O   UNL     1     -33.596  24.967   4.564  0.00  0.00    -0.384 OA
ATOM      9  H   UNL     1     -33.421  25.869   4.248  0.00  0.00    +0.210 HD
ENDBRANCH   4   8
BRANCH   5  10
ATOM     10  C   UNL     1     -35.635  21.238   2.266  0.00  0.00    +0.015 C 
ATOM     11  C   UNL     1     -36.684  20.651   1.673  0.00  0.00    +0.001 C 
BRANCH  11  12
ATOM     12  C   UNL     1     -36.559  19.525   0.685  0.00  0.00    +0.132 C 
BRANCH  12  13
ATOM     13  O   UNL     1     -37.874  19.105   0.313  0.00  0.00    -0.380 OA
ATOM     14  H   UNL     1     -38.042  19.351  -0.610  0.00  0.00    +0.211 HD
ENDBRANCH  12  13
BRANCH  12  15
ATOM     15  C   UNL     1     -35.828  19.937  -0.601  0.00  0.00    +0.034 C 
BRANCH  15  16
ATOM     16  C   UNL     1     -34.422  19.341  -0.713  0.00  0.00    +0.003 C 
BRANCH  16  17
ATOM     17  C   UNL     1     -34.124  18.286   0.358  0.00  0.00    +0.000 C 
BRANCH  17  18
ATOM     18  C   UNL     1     -32.879  18.598   1.190  0.00  0.00    +0.000 C 
ATOM     19  C   UNL     1     -32.054  19.708   0.557  0.00  0.00    +0.000 C 
ENDBRANCH  17  18
ENDBRANCH  16  17
ENDBRANCH  15  16
ENDBRANCH  12  15
ENDBRANCH  11  12
ENDBRANCH   5  10
BRANCH   3  20
ATOM     20  C   UNL     1     -34.900  24.171   1.649  0.00  0.00    +0.032 C 
BRANCH  20  21
ATOM     21  C   UNL     1     -36.242  24.760   1.332  0.00  0.00    -0.030 C 
ATOM     22  C   UNL     1     -37.191  24.246   0.534  0.00  0.00    -0.031 C 
BRANCH  22  23
ATOM     23  C   UNL     1     -38.515  24.908   0.284  0.00  0.00    +0.026 C 
BRANCH  23  24
ATOM     24  C   UNL     1     -39.712  24.117   0.828  0.00  0.00    +0.016 C 
BRANCH  24  25
ATOM     25  C   UNL     1     -40.428  24.798   1.998  0.00  0.00    +0.110 C 
BRANCH  25  27
ATOM     26  O   UNL     1     -38.797  24.436   3.769  0.00  0.00    -0.250 OA
ATOM     27  C   UNL     1     -39.505  25.200   3.129  0.00  0.00    +0.314 C 
BRANCH  27  28
ATOM     28  O   UNL     1     -39.583  26.531   3.391  0.00  0.00    -0.480 OA
ATOM     29  H   UNL     1     -40.403  26.977   3.311  0.00  0.00    +0.295 HD
ENDBRANCH  27  28
ENDBRANCH  25  27
ENDBRANCH  24  25
ENDBRANCH  23  24
ENDBRANCH  22  23
ENDBRANCH  20  21
ENDBRANCH   3  20
TORSDOF 15
ENDMDL
MODEL 7
REMARK VINA RESULT:      -5.8      4.742      8.631
REMARK  Name = 6073911
REMARK  15 active torsions:
REMARK  status: ('A' for Active; 'I' for Inactive)
REMARK    1  A    between atoms: C_3  and  C_20
REMARK    2  A    between atoms: C_4  and  O_8
REMARK    3  A    between atoms: C_5  and  C_10
REMARK    4  A    between atoms: C_11  and  C_12
REMARK    5  A    between atoms: C_12  and  O_13
REMARK    6  A    between atoms: C_12  and  C_15
REMARK    7  A    between atoms: C_15  and  C_16
REMARK    8  A    between atoms: C_16  and  C_17
REMARK    9  A    between atoms: C_17  and  C_18
REMARK   10  A    between atoms: C_20  and  C_21
REMARK   11  A    between atoms: C_22  and  C_23
REMARK   12  A    between atoms: C_23  and  C_24
REMARK   13  A    between atoms: C_24  and  C_25
REMARK   14  A    between atoms: C_25  and  C_27
REMARK   15  A    between atoms: C_27  and  O_28
REMARK                            x       y       z     vdW  Elec       q    Type
REMARK                         _______ _______ _______ _____ _____    ______ ____
ROOT
ATOM      1  O   UNL     1     -36.215  27.854   1.436  0.00  0.00    -0.448 OA
ATOM      2  O   UNL     1     -38.341  28.049   0.679  0.00  0.00    -0.250 OA
ATOM      3  C   UNL     1     -35.110  29.900   2.121  0.00  0.00    +0.076 C 
ATOM      4  C   UNL     1     -36.037  30.707   1.188  0.00  0.00    +0.126 C 
ATOM      5  C   UNL     1     -34.914  28.480   1.564  0.00  0.00    +0.193 C 
ATOM      6  C   UNL     1     -36.814  29.842   0.203  0.00  0.00    +0.139 C 
ATOM      7  C   UNL     1     -37.215  28.519   0.801  0.00  0.00    +0.320 C 
ENDROOT
BRANCH   4   8
ATOM      8  O   UNL     1     -36.971  31.445   1.977  0.00  0.00    -0.384 OA
ATOM      9  H   UNL     1     -37.758  30.900   2.140  0.00  0.00    +0.210 HD
ENDBRANCH   4   8
BRANCH   5  10
ATOM     10  C   UNL     1     -34.097  27.589   2.445  0.00  0.00    +0.015 C 
ATOM     11  C   UNL     1     -34.537  27.081   3.605  0.00  0.00    +0.001 C 
BRANCH  11  12
ATOM     12  C   UNL     1     -33.711  26.188   4.489  0.00  0.00    +0.132 C 
BRANCH  12  13
ATOM     13  O   UNL     1     -32.566  26.922   4.926  0.00  0.00    -0.380 OA
ATOM     14  H   UNL     1     -31.980  27.087   4.170  0.00  0.00    +0.211 HD
ENDBRANCH  12  13
BRANCH  12  15
ATOM     15  C   UNL     1     -34.466  25.726   5.743  0.00  0.00    +0.034 C 
BRANCH  15  16
ATOM     16  C   UNL     1     -35.929  25.367   5.468  0.00  0.00    +0.003 C 
BRANCH  16  17
ATOM     17  C   UNL     1     -36.119  23.926   4.979  0.00  0.00    +0.000 C 
BRANCH  17  18
ATOM     18  C   UNL     1     -34.980  22.991   5.386  0.00  0.00    +0.000 C 
ATOM     19  C   UNL     1     -35.425  22.013   6.463  0.00  0.00    +0.000 C 
ENDBRANCH  17  18
ENDBRANCH  16  17
ENDBRANCH  15  16
ENDBRANCH  12  15
ENDBRANCH  11  12
ENDBRANCH   5  10
BRANCH   3  20
ATOM     20  C   UNL     1     -33.796  30.658   2.332  0.00  0.00    +0.032 C 
BRANCH  20  21
ATOM     21  C   UNL     1     -33.406  30.939   3.753  0.00  0.00    -0.030 C 
ATOM     22  C   UNL     1     -32.297  30.533   4.390  0.00  0.00    -0.031 C 
BRANCH  22  23
ATOM     23  C   UNL     1     -31.986  30.875   5.818  0.00  0.00    +0.026 C 
BRANCH  23  24
ATOM     24  C   UNL     1     -31.633  29.655   6.680  0.00  0.00    +0.016 C 
BRANCH  24  25
ATOM     25  C   UNL     1     -30.128  29.407   6.820  0.00  0.00    +0.110 C 
BRANCH  25  27
ATOM     26  O   UNL     1     -29.783  27.896   4.941  0.00  0.00    -0.250 OA
ATOM     27  C   UNL     1     -29.651  28.146   6.131  0.00  0.00    +0.314 C 
BRANCH  27  28
ATOM     28  O   UNL     1     -29.082  27.279   7.010  0.00  0.00    -0.480 OA
ATOM     29  H   UNL     1     -28.561  26.567   6.695  0.00  0.00    +0.295 HD
ENDBRANCH  27  28
ENDBRANCH  25  27
ENDBRANCH  24  25
ENDBRANCH  23  24
ENDBRANCH  22  23
ENDBRANCH  20  21
ENDBRANCH   3  20
TORSDOF 15
ENDMDL
MODEL 8
REMARK VINA RESULT:      -5.8      3.390      5.758
REMARK  Name = 6073911
REMARK  15 active torsions:
REMARK  status: ('A' for Active; 'I' for Inactive)
REMARK    1  A    between atoms: C_3  and  C_20
REMARK    2  A    between atoms: C_4  and  O_8
REMARK    3  A    between atoms: C_5  and  C_10
REMARK    4  A    between atoms: C_11  and  C_12
REMARK    5  A    between atoms: C_12  and  O_13
REMARK    6  A    between atoms: C_12  and  C_15
REMARK    7  A    between atoms: C_15  and  C_16
REMARK    8  A    between atoms: C_16  and  C_17
REMARK    9  A    between atoms: C_17  and  C_18
REMARK   10  A    between atoms: C_20  and  C_21
REMARK   11  A    between atoms: C_22  and  C_23
REMARK   12  A    between atoms: C_23  and  C_24
REMARK   13  A    between atoms: C_24  and  C_25
REMARK   14  A    between atoms: C_25  and  C_27
REMARK   15  A    between atoms: C_27  and  O_28
REMARK                            x       y       z     vdW  Elec       q    Type
REMARK                         _______ _______ _______ _____ _____    ______ ____
ROOT
ATOM      1  O   UNL     1     -36.618  21.683  -0.659  0.00  0.00    -0.448 OA
ATOM      2  O   UNL     1     -38.656  22.425  -1.310  0.00  0.00    -0.250 OA
ATOM      3  C   UNL     1     -36.416  20.925   1.635  0.00  0.00    +0.076 C 
ATOM      4  C   UNL     1     -37.606  21.823   2.031  0.00  0.00    +0.126 C 
ATOM      5  C   UNL     1     -35.676  21.536   0.433  0.00  0.00    +0.193 C 
ATOM      6  C   UNL     1     -37.988  22.837   0.960  0.00  0.00    +0.139 C 
ATOM      7  C   UNL     1     -37.812  22.289  -0.431  0.00  0.00    +0.320 C 
ENDROOT
BRANCH   4   8
ATOM      8  O   UNL     1     -38.743  21.004   2.305  0.00  0.00    -0.384 OA
ATOM      9  H   UNL     1     -38.770  20.792   3.252  0.00  0.00    +0.210 HD
ENDBRANCH   4   8
BRANCH   5  10
ATOM     10  C   UNL     1     -34.554  20.692  -0.083  0.00  0.00    +0.015 C 
ATOM     11  C   UNL     1     -33.270  20.867   0.260  0.00  0.00    +0.001 C 
BRANCH  11  12
ATOM     12  C   UNL     1     -32.145  20.017  -0.263  0.00  0.00    +0.132 C 
BRANCH  12  13
ATOM     13  O   UNL     1     -31.056  20.875  -0.607  0.00  0.00    -0.380 OA
ATOM     14  H   UNL     1     -30.372  20.362  -1.065  0.00  0.00    +0.211 HD
ENDBRANCH  12  13
BRANCH  12  15
ATOM     15  C   UNL     1     -31.626  19.010   0.773  0.00  0.00    +0.034 C 
BRANCH  15  16
ATOM     16  C   UNL     1     -32.695  18.014   1.233  0.00  0.00    +0.003 C 
BRANCH  16  17
ATOM     17  C   UNL     1     -33.035  16.958   0.175  0.00  0.00    +0.000 C 
BRANCH  17  18
ATOM     18  C   UNL     1     -34.503  16.977  -0.253  0.00  0.00    +0.000 C 
ATOM     19  C   UNL     1     -35.126  15.592  -0.157  0.00  0.00    +0.000 C 
ENDBRANCH  17  18
ENDBRANCH  16  17
ENDBRANCH  15  16
ENDBRANCH  12  15
ENDBRANCH  11  12
ENDBRANCH   5  10
BRANCH   3  20
ATOM     20  C   UNL     1     -35.513  20.689   2.850  0.00  0.00    +0.032 C 
BRANCH  20  21
ATOM     21  C   UNL     1     -35.449  21.795   3.861  0.00  0.00    -0.030 C 
ATOM     22  C   UNL     1     -35.325  21.678   5.192  0.00  0.00    -0.031 C 
BRANCH  22  23
ATOM     23  C   UNL     1     -35.258  22.851   6.127  0.00  0.00    +0.026 C 
BRANCH  23  24
ATOM     24  C   UNL     1     -34.848  24.161   5.442  0.00  0.00    +0.016 C 
BRANCH  24  25
ATOM     25  C   UNL     1     -35.937  25.239   5.459  0.00  0.00    +0.110 C 
BRANCH  25  27
ATOM     26  O   UNL     1     -37.865  24.548   4.143  0.00  0.00    -0.250 OA
ATOM     27  C   UNL     1     -36.843  25.212   4.247  0.00  0.00    +0.314 C 
BRANCH  27  28
ATOM     28  O   UNL     1     -36.363  25.992   3.244  0.00  0.00    -0.480 OA
ATOM     29  H   UNL     1     -35.932  25.600   2.510  0.00  0.00    +0.295 HD
ENDBRANCH  27  28
ENDBRANCH  25  27
ENDBRANCH  24  25
ENDBRANCH  23  24
ENDBRANCH  22  23
ENDBRANCH  20  21
ENDBRANCH   3  20
TORSDOF 15
ENDMDL
MODEL 9
REMARK VINA RESULT:      -5.7      3.127      7.237
REMARK  Name = 6073911
REMARK  15 active torsions:
REMARK  status: ('A' for Active; 'I' for Inactive)
REMARK    1  A    between atoms: C_3  and  C_20
REMARK    2  A    between atoms: C_4  and  O_8
REMARK    3  A    between atoms: C_5  and  C_10
REMARK    4  A    between atoms: C_11  and  C_12
REMARK    5  A    between atoms: C_12  and  O_13
REMARK    6  A    between atoms: C_12  and  C_15
REMARK    7  A    between atoms: C_15  and  C_16
REMARK    8  A    between atoms: C_16  and  C_17
REMARK    9  A    between atoms: C_17  and  C_18
REMARK   10  A    between atoms: C_20  and  C_21
REMARK   11  A    between atoms: C_22  and  C_23
REMARK   12  A    between atoms: C_23  and  C_24
REMARK   13  A    between atoms: C_24  and  C_25
REMARK   14  A    between atoms: C_25  and  C_27
REMARK   15  A    between atoms: C_27  and  O_28
REMARK                            x       y       z     vdW  Elec       q    Type
REMARK                         _______ _______ _______ _____ _____    ______ ____
ROOT
ATOM      1  O   UNL     1     -35.697  18.637   0.071  0.00  0.00    -0.448 OA
ATOM      2  O   UNL     1     -34.093  17.136  -0.479  0.00  0.00    -0.250 OA
ATOM      3  C   UNL     1     -34.972  20.921   0.434  0.00  0.00    +0.076 C 
ATOM      4  C   UNL     1     -33.560  20.412   0.791  0.00  0.00    +0.126 C 
ATOM      5  C   UNL     1     -36.019  19.853   0.790  0.00  0.00    +0.193 C 
ATOM      6  C   UNL     1     -33.497  18.908   1.028  0.00  0.00    +0.139 C 
ATOM      7  C   UNL     1     -34.430  18.149   0.124  0.00  0.00    +0.320 C 
ENDROOT
BRANCH   4   8
ATOM      8  O   UNL     1     -32.661  20.741  -0.269  0.00  0.00    -0.384 OA
ATOM      9  H   UNL     1     -33.160  20.853  -1.095  0.00  0.00    +0.210 HD
ENDBRANCH   4   8
BRANCH   5  10
ATOM     10  C   UNL     1     -37.417  20.219   0.402  0.00  0.00    +0.015 C 
ATOM     11  C   UNL     1     -38.250  20.919   1.186  0.00  0.00    +0.001 C 
BRANCH  11  12
ATOM     12  C   UNL     1     -39.655  21.282   0.792  0.00  0.00    +0.132 C 
BRANCH  12  13
ATOM     13  O   UNL     1     -40.529  20.923   1.864  0.00  0.00    -0.380 OA
ATOM     14  H   UNL     1     -40.813  21.725   2.331  0.00  0.00    +0.211 HD
ENDBRANCH  12  13
BRANCH  12  15
ATOM     15  C   UNL     1     -39.833  22.786   0.538  0.00  0.00    +0.034 C 
BRANCH  15  16
ATOM     16  C   UNL     1     -38.794  23.647   1.261  0.00  0.00    +0.003 C 
BRANCH  16  17
ATOM     17  C   UNL     1     -39.227  24.061   2.673  0.00  0.00    +0.000 C 
BRANCH  17  18
ATOM     18  C   UNL     1     -38.195  24.929   3.395  0.00  0.00    +0.000 C 
ATOM     19  C   UNL     1     -37.099  25.392   2.446  0.00  0.00    +0.000 C 
ENDBRANCH  17  18
ENDBRANCH  16  17
ENDBRANCH  15  16
ENDBRANCH  12  15
ENDBRANCH  11  12
ENDBRANCH   5  10
BRANCH   3  20
ATOM     20  C   UNL     1     -35.225  22.272   1.112  0.00  0.00    +0.032 C 
BRANCH  20  21
ATOM     21  C   UNL     1     -34.918  22.354   2.578  0.00  0.00    -0.030 C 
ATOM     22  C   UNL     1     -35.745  22.091   3.601  0.00  0.00    -0.031 C 
BRANCH  22  23
ATOM     23  C   UNL     1     -35.342  22.191   5.043  0.00  0.00    +0.026 C 
BRANCH  23  24
ATOM     24  C   UNL     1     -35.552  23.587   5.645  0.00  0.00    +0.016 C 
BRANCH  24  25
ATOM     25  C   UNL     1     -34.454  24.593   5.283  0.00  0.00    +0.110 C 
BRANCH  25  27
ATOM     26  O   UNL     1     -35.921  26.518   5.542  0.00  0.00    -0.250 OA
ATOM     27  C   UNL     1     -34.804  26.027   5.619  0.00  0.00    +0.314 C 
BRANCH  27  28
ATOM     28  O   UNL     1     -33.707  26.739   5.984  0.00  0.00    -0.480 OA
ATOM     29  H   UNL     1     -33.038  26.926   5.354  0.00  0.00    +0.295 HD
ENDBRANCH  27  28
ENDBRANCH  25  27
ENDBRANCH  24  25
ENDBRANCH  23  24
ENDBRANCH  22  23
ENDBRANCH  20  21
ENDBRANCH   3  20
TORSDOF 15
ENDMDL
