MODEL 1
REMARK VINA RESULT:      -5.8      0.000      0.000
REMARK  Name = 5284340
REMARK  3 active torsions:
REMARK  status: ('A' for Active; 'I' for Inactive)
REMARK    1  A    between atoms: C_1  and  C_12
REMARK    2  A    between atoms: C_2  and  C_7
REMARK    3  A    between atoms: C_14  and  N_18
REMARK                            x       y       z     vdW  Elec       q    Type
REMARK                         _______ _______ _______ _____ _____    ______ ____
ROOT
ATOM      1  C   UNL     1     -34.323  24.926   5.632  0.00  0.00    +0.049 C 
ATOM      2  C   UNL     1     -33.617  25.775   4.809  0.00  0.00    +0.091 C 
ENDROOT
BRANCH   2   7
ATOM      3  O   UNL     1     -32.651  29.142   5.184  0.00  0.00    -0.296 OA
ATOM      4  N   UNL     1     -32.387  27.204   6.276  0.00  0.00    -0.296 NA
ATOM      5  N   UNL     1     -33.332  28.175   4.433  0.00  0.00    -0.005 NA
ATOM      6  N   UNL     1     -31.416  29.239   7.121  0.00  0.00    -0.300 N 
ATOM      7  C   UNL     1     -33.109  27.114   5.155  0.00  0.00    +0.129 C 
ATOM      8  C   UNL     1     -32.123  28.487   6.251  0.00  0.00    +0.373 C 
ATOM      9  H   UNL     1     -31.306  30.205   6.962  0.00  0.00    +0.148 HD
ATOM     10  H   UNL     1     -31.009  28.823   7.915  0.00  0.00    +0.148 HD
ENDBRANCH   2   7
BRANCH   1  12
ATOM     11  O   UNL     1     -35.114  23.302   4.012  0.00  0.00    -0.433 OA
ATOM     12  C   UNL     1     -34.826  23.649   5.294  0.00  0.00    +0.148 C 
ATOM     13  C   UNL     1     -35.095  22.606   6.149  0.00  0.00    +0.043 C 
ATOM     14  C   UNL     1     -35.571  22.022   4.048  0.00  0.00    +0.289 C 
ATOM     15  C   UNL     1     -35.578  21.549   5.340  0.00  0.00    +0.066 C 
BRANCH  14  18
ATOM     16  O   UNL     1     -36.287  22.236   1.870  0.00  0.00    -0.123 OA
ATOM     17  O   UNL     1     -35.875  20.220   2.647  0.00  0.00    -0.123 OA
ATOM     18  N   UNL     1     -35.923  21.475   2.814  0.00  0.00    +0.093 N 
ENDBRANCH  14  18
ENDBRANCH   1  12
TORSDOF 3
ENDMDL
MODEL 2
REMARK VINA RESULT:      -5.7      2.697      7.349
REMARK  Name = 5284340
REMARK  3 active torsions:
REMARK  status: ('A' for Active; 'I' for Inactive)
REMARK    1  A    between atoms: C_1  and  C_12
REMARK    2  A    between atoms: C_2  and  C_7
REMARK    3  A    between atoms: C_14  and  N_18
REMARK                            x       y       z     vdW  Elec       q    Type
REMARK                         _______ _______ _______ _____ _____    ______ ____
ROOT
ATOM      1  C   UNL     1     -33.187  27.313   5.183  0.00  0.00    +0.049 C 
ATOM      2  C   UNL     1     -33.781  26.307   5.911  0.00  0.00    +0.091 C 
ENDROOT
BRANCH   2   7
ATOM      3  O   UNL     1     -36.823  24.813   4.949  0.00  0.00    -0.296 OA
ATOM      4  N   UNL     1     -34.705  24.185   5.317  0.00  0.00    -0.296 NA
ATOM      5  N   UNL     1     -36.130  25.974   5.317  0.00  0.00    -0.005 NA
ATOM      6  N   UNL     1     -36.370  22.579   4.647  0.00  0.00    -0.300 N 
ATOM      7  C   UNL     1     -34.936  25.488   5.500  0.00  0.00    +0.129 C 
ATOM      8  C   UNL     1     -35.911  23.806   4.975  0.00  0.00    +0.373 C 
ATOM      9  H   UNL     1     -37.317  22.454   4.410  0.00  0.00    +0.148 HD
ATOM     10  H   UNL     1     -35.757  21.808   4.646  0.00  0.00    +0.148 HD
ENDBRANCH   2   7
BRANCH   1  12
ATOM     11  O   UNL     1     -30.948  27.570   6.081  0.00  0.00    -0.433 OA
ATOM     12  C   UNL     1     -32.091  28.111   5.585  0.00  0.00    +0.148 C 
ATOM     13  C   UNL     1     -31.999  29.482   5.545  0.00  0.00    +0.043 C 
ATOM     14  C   UNL     1     -30.116  28.608   6.362  0.00  0.00    +0.289 C 
ATOM     15  C   UNL     1     -30.716  29.806   6.049  0.00  0.00    +0.066 C 
BRANCH  14  18
ATOM     16  O   UNL     1     -28.140  29.145   7.414  0.00  0.00    -0.123 OA
ATOM     17  O   UNL     1     -28.487  27.051   6.836  0.00  0.00    -0.123 OA
ATOM     18  N   UNL     1     -28.872  28.256   6.887  0.00  0.00    +0.093 N 
ENDBRANCH  14  18
ENDBRANCH   1  12
TORSDOF 3
ENDMDL
MODEL 3
REMARK VINA RESULT:      -5.6      1.320      1.631
REMARK  Name = 5284340
REMARK  3 active torsions:
REMARK  status: ('A' for Active; 'I' for Inactive)
REMARK    1  A    between atoms: C_1  and  C_12
REMARK    2  A    between atoms: C_2  and  C_7
REMARK    3  A    between atoms: C_14  and  N_18
REMARK                            x       y       z     vdW  Elec       q    Type
REMARK                         _______ _______ _______ _____ _____    ______ ____
ROOT
ATOM      1  C   UNL     1     -34.677  25.879   5.224  0.00  0.00    +0.049 C 
ATOM      2  C   UNL     1     -33.562  26.502   4.709  0.00  0.00    +0.091 C 
ENDROOT
BRANCH   2   7
ATOM      3  O   UNL     1     -32.200  29.638   5.558  0.00  0.00    -0.296 OA
ATOM      4  N   UNL     1     -32.205  27.551   6.373  0.00  0.00    -0.296 NA
ATOM      5  N   UNL     1     -32.974  28.876   4.673  0.00  0.00    -0.005 NA
ATOM      6  N   UNL     1     -31.014  29.313   7.502  0.00  0.00    -0.300 N 
ATOM      7  C   UNL     1     -32.903  27.707   5.243  0.00  0.00    +0.129 C 
ATOM      8  C   UNL     1     -31.785  28.782   6.529  0.00  0.00    +0.373 C 
ATOM      9  H   UNL     1     -30.782  30.270   7.479  0.00  0.00    +0.148 HD
ATOM     10  H   UNL     1     -30.683  28.744   8.234  0.00  0.00    +0.148 HD
ENDBRANCH   2   7
BRANCH   1  12
ATOM     11  O   UNL     1     -34.823  23.482   4.879  0.00  0.00    -0.433 OA
ATOM     12  C   UNL     1     -35.321  24.734   4.701  0.00  0.00    +0.148 C 
ATOM     13  C   UNL     1     -36.484  24.692   3.970  0.00  0.00    +0.043 C 
ATOM     14  C   UNL     1     -35.679  22.631   4.255  0.00  0.00    +0.289 C 
ATOM     15  C   UNL     1     -36.718  23.327   3.680  0.00  0.00    +0.066 C 
BRANCH  14  18
ATOM     16  O   UNL     1     -35.354  20.574   3.272  0.00  0.00    -0.123 OA
ATOM     17  O   UNL     1     -35.020  20.768   5.437  0.00  0.00    -0.123 OA
ATOM     18  N   UNL     1     -35.340  21.279   4.323  0.00  0.00    +0.093 N 
ENDBRANCH  14  18
ENDBRANCH   1  12
TORSDOF 3
ENDMDL
MODEL 4
REMARK VINA RESULT:      -5.6      2.082      7.240
REMARK  Name = 5284340
REMARK  3 active torsions:
REMARK  status: ('A' for Active; 'I' for Inactive)
REMARK    1  A    between atoms: C_1  and  C_12
REMARK    2  A    between atoms: C_2  and  C_7
REMARK    3  A    between atoms: C_14  and  N_18
REMARK                            x       y       z     vdW  Elec       q    Type
REMARK                         _______ _______ _______ _____ _____    ______ ____
ROOT
ATOM      1  C   UNL     1     -33.532  26.313   5.199  0.00  0.00    +0.049 C 
ATOM      2  C   UNL     1     -34.770  25.877   5.614  0.00  0.00    +0.091 C 
ENDROOT
BRANCH   2   7
ATOM      3  O   UNL     1     -36.828  23.244   4.500  0.00  0.00    -0.296 OA
ATOM      4  N   UNL     1     -34.744  23.511   5.275  0.00  0.00    -0.296 NA
ATOM      5  N   UNL     1     -36.680  24.613   4.754  0.00  0.00    -0.005 NA
ATOM      6  N   UNL     1     -35.563  21.331   4.665  0.00  0.00    -0.300 N 
ATOM      7  C   UNL     1     -35.453  24.641   5.191  0.00  0.00    +0.129 C 
ATOM      8  C   UNL     1     -35.644  22.668   4.834  0.00  0.00    +0.373 C 
ATOM      9  H   UNL     1     -36.336  20.830   4.318  0.00  0.00    +0.148 HD
ATOM     10  H   UNL     1     -34.730  20.855   4.888  0.00  0.00    +0.148 HD
ENDBRANCH   2   7
BRANCH   1  12
ATOM     11  O   UNL     1     -32.865  28.612   4.798  0.00  0.00    -0.433 OA
ATOM     12  C   UNL     1     -32.884  27.508   5.590  0.00  0.00    +0.148 C 
ATOM     13  C   UNL     1     -32.206  27.743   6.763  0.00  0.00    +0.043 C 
ATOM     14  C   UNL     1     -32.167  29.563   5.472  0.00  0.00    +0.289 C 
ATOM     15  C   UNL     1     -31.740  29.078   6.687  0.00  0.00    +0.066 C 
BRANCH  14  18
ATOM     16  O   UNL     1     -31.066  31.552   5.109  0.00  0.00    -0.123 OA
ATOM     17  O   UNL     1     -32.877  31.124   3.936  0.00  0.00    -0.123 OA
ATOM     18  N   UNL     1     -32.033  30.787   4.818  0.00  0.00    +0.093 N 
ENDBRANCH  14  18
ENDBRANCH   1  12
TORSDOF 3
ENDMDL
MODEL 5
REMARK VINA RESULT:      -5.5      4.506      8.666
REMARK  Name = 5284340
REMARK  3 active torsions:
REMARK  status: ('A' for Active; 'I' for Inactive)
REMARK    1  A    between atoms: C_1  and  C_12
REMARK    2  A    between atoms: C_2  and  C_7
REMARK    3  A    between atoms: C_14  and  N_18
REMARK                            x       y       z     vdW  Elec       q    Type
REMARK                         _______ _______ _______ _____ _____    ______ ____
ROOT
ATOM      1  C   UNL     1     -34.613  19.693   1.732  0.00  0.00    +0.049 C 
ATOM      2  C   UNL     1     -33.354  19.307   1.332  0.00  0.00    +0.091 C 
ENDROOT
BRANCH   2   7
ATOM      3  O   UNL     1     -31.884  16.192   0.594  0.00  0.00    -0.296 OA
ATOM      4  N   UNL     1     -33.844  17.226   0.266  0.00  0.00    -0.296 NA
ATOM      5  N   UNL     1     -31.758  17.460   1.176  0.00  0.00    -0.005 NA
ATOM      6  N   UNL     1     -33.482  14.984  -0.536  0.00  0.00    -0.300 N 
ATOM      7  C   UNL     1     -32.937  17.953   0.925  0.00  0.00    +0.129 C 
ATOM      8  C   UNL     1     -33.141  16.136   0.081  0.00  0.00    +0.373 C 
ATOM      9  H   UNL     1     -32.833  14.245  -0.594  0.00  0.00    +0.148 HD
ATOM     10  H   UNL     1     -34.379  14.882  -0.928  0.00  0.00    +0.148 HD
ENDBRANCH   2   7
BRANCH   1  12
ATOM     11  O   UNL     1     -35.414  21.251   3.411  0.00  0.00    -0.433 OA
ATOM     12  C   UNL     1     -35.009  20.987   2.141  0.00  0.00    +0.148 C 
ATOM     13  C   UNL     1     -35.051  22.127   1.373  0.00  0.00    +0.043 C 
ATOM     14  C   UNL     1     -35.717  22.575   3.456  0.00  0.00    +0.289 C 
ATOM     15  C   UNL     1     -35.511  23.159   2.227  0.00  0.00    +0.066 C 
BRANCH  14  18
ATOM     16  O   UNL     1     -36.717  24.184   4.765  0.00  0.00    -0.123 OA
ATOM     17  O   UNL     1     -35.996  22.343   5.729  0.00  0.00    -0.123 OA
ATOM     18  N   UNL     1     -36.158  23.050   4.691  0.00  0.00    +0.093 N 
ENDBRANCH  14  18
ENDBRANCH   1  12
TORSDOF 3
ENDMDL
MODEL 6
REMARK VINA RESULT:      -5.4      4.013      5.845
REMARK  Name = 5284340
REMARK  3 active torsions:
REMARK  status: ('A' for Active; 'I' for Inactive)
REMARK    1  A    between atoms: C_1  and  C_12
REMARK    2  A    between atoms: C_2  and  C_7
REMARK    3  A    between atoms: C_14  and  N_18
REMARK                            x       y       z     vdW  Elec       q    Type
REMARK                         _______ _______ _______ _____ _____    ______ ____
ROOT
ATOM      1  C   UNL     1     -35.266  21.291   2.068  0.00  0.00    +0.049 C 
ATOM      2  C   UNL     1     -35.595  21.396   3.401  0.00  0.00    +0.091 C 
ENDROOT
BRANCH   2   7
ATOM      3  O   UNL     1     -36.314  24.076   5.572  0.00  0.00    -0.296 OA
ATOM      4  N   UNL     1     -36.394  23.648   3.375  0.00  0.00    -0.296 NA
ATOM      5  N   UNL     1     -35.865  22.759   5.415  0.00  0.00    -0.005 NA
ATOM      6  N   UNL     1     -37.063  25.794   4.239  0.00  0.00    -0.300 N 
ATOM      7  C   UNL     1     -35.955  22.631   4.122  0.00  0.00    +0.129 C 
ATOM      8  C   UNL     1     -36.606  24.526   4.323  0.00  0.00    +0.373 C 
ATOM      9  H   UNL     1     -37.169  26.335   5.055  0.00  0.00    +0.148 HD
ATOM     10  H   UNL     1     -37.291  26.178   3.362  0.00  0.00    +0.148 HD
ENDBRANCH   2   7
BRANCH   1  12
ATOM     11  O   UNL     1     -33.780  19.408   1.694  0.00  0.00    -0.433 OA
ATOM     12  C   UNL     1     -34.902  20.110   1.380  0.00  0.00    +0.148 C 
ATOM     13  C   UNL     1     -35.574  19.508   0.344  0.00  0.00    +0.043 C 
ATOM     14  C   UNL     1     -33.737  18.346   0.848  0.00  0.00    +0.289 C 
ATOM     15  C   UNL     1     -34.819  18.362  -0.003  0.00  0.00    +0.066 C 
BRANCH  14  18
ATOM     16  O   UNL     1     -31.682  17.840   1.754  0.00  0.00    -0.123 OA
ATOM     17  O   UNL     1     -32.630  16.374   0.417  0.00  0.00    -0.123 OA
ATOM     18  N   UNL     1     -32.646  17.492   1.011  0.00  0.00    +0.093 N 
ENDBRANCH  14  18
ENDBRANCH   1  12
TORSDOF 3
ENDMDL
MODEL 7
REMARK VINA RESULT:      -5.4      2.165      7.439
REMARK  Name = 5284340
REMARK  3 active torsions:
REMARK  status: ('A' for Active; 'I' for Inactive)
REMARK    1  A    between atoms: C_1  and  C_12
REMARK    2  A    between atoms: C_2  and  C_7
REMARK    3  A    between atoms: C_14  and  N_18
REMARK                            x       y       z     vdW  Elec       q    Type
REMARK                         _______ _______ _______ _____ _____    ______ ____
ROOT
ATOM      1  C   UNL     1     -35.199  23.204   3.110  0.00  0.00    +0.049 C 
ATOM      2  C   UNL     1     -35.522  21.888   3.352  0.00  0.00    +0.091 C 
ENDROOT
BRANCH   2   7
ATOM      3  O   UNL     1     -35.031  19.308   1.004  0.00  0.00    -0.296 OA
ATOM      4  N   UNL     1     -36.748  20.339   2.007  0.00  0.00    -0.296 NA
ATOM      5  N   UNL     1     -34.467  20.272   1.849  0.00  0.00    -0.005 NA
ATOM      6  N   UNL     1     -37.129  18.566   0.423  0.00  0.00    -0.300 N 
ATOM      7  C   UNL     1     -35.543  20.793   2.365  0.00  0.00    +0.129 C 
ATOM      8  C   UNL     1     -36.377  19.415   1.156  0.00  0.00    +0.373 C 
ATOM      9  H   UNL     1     -36.695  17.919  -0.180  0.00  0.00    +0.148 HD
ATOM     10  H   UNL     1     -38.110  18.593   0.490  0.00  0.00    +0.148 HD
ENDBRANCH   2   7
BRANCH   1  12
ATOM     11  O   UNL     1     -34.107  25.046   4.253  0.00  0.00    -0.433 OA
ATOM     12  C   UNL     1     -35.197  24.259   4.052  0.00  0.00    +0.148 C 
ATOM     13  C   UNL     1     -36.229  24.644   4.875  0.00  0.00    +0.043 C 
ATOM     14  C   UNL     1     -34.447  25.944   5.214  0.00  0.00    +0.289 C 
ATOM     15  C   UNL     1     -35.743  25.739   5.629  0.00  0.00    +0.066 C 
BRANCH  14  18
ATOM     16  O   UNL     1     -33.185  27.824   4.797  0.00  0.00    -0.123 OA
ATOM     17  O   UNL     1     -32.820  26.704   6.654  0.00  0.00    -0.123 OA
ATOM     18  N   UNL     1     -33.450  26.854   5.566  0.00  0.00    +0.093 N 
ENDBRANCH  14  18
ENDBRANCH   1  12
TORSDOF 3
ENDMDL
MODEL 8
REMARK VINA RESULT:      -5.3      2.158      7.252
REMARK  Name = 5284340
REMARK  3 active torsions:
REMARK  status: ('A' for Active; 'I' for Inactive)
REMARK    1  A    between atoms: C_1  and  C_12
REMARK    2  A    between atoms: C_2  and  C_7
REMARK    3  A    between atoms: C_14  and  N_18
REMARK                            x       y       z     vdW  Elec       q    Type
REMARK                         _______ _______ _______ _____ _____    ______ ____
ROOT
ATOM      1  C   UNL     1     -33.769  26.217   4.352  0.00  0.00    +0.049 C 
ATOM      2  C   UNL     1     -34.950  25.809   4.930  0.00  0.00    +0.091 C 
ENDROOT
BRANCH   2   7
ATOM      3  O   UNL     1     -36.598  22.698   4.804  0.00  0.00    -0.296 OA
ATOM      4  N   UNL     1     -34.711  23.547   5.662  0.00  0.00    -0.296 NA
ATOM      5  N   UNL     1     -36.586  24.054   4.454  0.00  0.00    -0.005 NA
ATOM      6  N   UNL     1     -35.264  21.222   5.957  0.00  0.00    -0.300 N 
ATOM      7  C   UNL     1     -35.464  24.429   4.998  0.00  0.00    +0.129 C 
ATOM      8  C   UNL     1     -35.460  22.482   5.514  0.00  0.00    +0.373 C 
ATOM      9  H   UNL     1     -35.928  20.522   5.761  0.00  0.00    +0.148 HD
ATOM     10  H   UNL     1     -34.457  21.002   6.477  0.00  0.00    +0.148 HD
ENDBRANCH   2   7
BRANCH   1  12
ATOM     11  O   UNL     1     -32.638  28.141   5.305  0.00  0.00    -0.433 OA
ATOM     12  C   UNL     1     -33.284  27.543   4.269  0.00  0.00    +0.148 C 
ATOM     13  C   UNL     1     -33.376  28.399   3.198  0.00  0.00    +0.043 C 
ATOM     14  C   UNL     1     -32.315  29.394   4.890  0.00  0.00    +0.289 C 
ATOM     15  C   UNL     1     -32.746  29.602   3.600  0.00  0.00    +0.066 C 
BRANCH  14  18
ATOM     16  O   UNL     1     -30.954  31.171   5.430  0.00  0.00    -0.123 OA
ATOM     17  O   UNL     1     -31.710  29.896   7.055  0.00  0.00    -0.123 OA
ATOM     18  N   UNL     1     -31.636  30.179   5.823  0.00  0.00    +0.093 N 
ENDBRANCH  14  18
ENDBRANCH   1  12
TORSDOF 3
ENDMDL
MODEL 9
REMARK VINA RESULT:      -5.3      4.573      8.647
REMARK  Name = 5284340
REMARK  3 active torsions:
REMARK  status: ('A' for Active; 'I' for Inactive)
REMARK    1  A    between atoms: C_1  and  C_12
REMARK    2  A    between atoms: C_2  and  C_7
REMARK    3  A    between atoms: C_14  and  N_18
REMARK                            x       y       z     vdW  Elec       q    Type
REMARK                         _______ _______ _______ _____ _____    ______ ____
ROOT
ATOM      1  C   UNL     1     -34.739  19.676   1.472  0.00  0.00    +0.049 C 
ATOM      2  C   UNL     1     -33.540  19.003   1.539  0.00  0.00    +0.091 C 
ENDROOT
BRANCH   2   7
ATOM      3  O   UNL     1     -33.165  16.116  -0.444  0.00  0.00    -0.296 OA
ATOM      4  N   UNL     1     -31.950  17.296   1.022  0.00  0.00    -0.296 NA
ATOM      5  N   UNL     1     -33.976  17.182  -0.035  0.00  0.00    -0.005 NA
ATOM      6  N   UNL     1     -31.048  15.323  -0.023  0.00  0.00    -0.300 N 
ATOM      7  C   UNL     1     -33.175  17.782   0.799  0.00  0.00    +0.129 C 
ATOM      8  C   UNL     1     -31.991  16.257   0.225  0.00  0.00    +0.373 C 
ATOM      9  H   UNL     1     -31.232  14.593  -0.658  0.00  0.00    +0.148 HD
ATOM     10  H   UNL     1     -30.175  15.371   0.431  0.00  0.00    +0.148 HD
ENDBRANCH   2   7
BRANCH   1  12
ATOM     11  O   UNL     1     -35.160  20.851   3.553  0.00  0.00    -0.433 OA
ATOM     12  C   UNL     1     -35.096  20.837   2.196  0.00  0.00    +0.148 C 
ATOM     13  C   UNL     1     -35.421  22.071   1.685  0.00  0.00    +0.043 C 
ATOM     14  C   UNL     1     -35.528  22.108   3.913  0.00  0.00    +0.289 C 
ATOM     15  C   UNL     1     -35.701  22.898   2.799  0.00  0.00    +0.066 C 
BRANCH  14  18
ATOM     16  O   UNL     1     -36.026  23.463   5.707  0.00  0.00    -0.123 OA
ATOM     17  O   UNL     1     -35.386  21.395   6.098  0.00  0.00    -0.123 OA
ATOM     18  N   UNL     1     -35.650  22.330   5.285  0.00  0.00    +0.093 N 
ENDBRANCH  14  18
ENDBRANCH   1  12
TORSDOF 3
ENDMDL
