MODEL 1
REMARK VINA RESULT:      -5.4      0.000      0.000
REMARK  Name = 54192848
REMARK  5 active torsions:
REMARK  status: ('A' for Active; 'I' for Inactive)
REMARK    1  A    between atoms: C2*_2  and  O2*_15
REMARK    2  A    between atoms: C1*_3  and  N_6
REMARK    3  A    between atoms: C3*_4  and  O3*_17
REMARK    4  A    between atoms: C4*_5  and  C5*_19
REMARK    5  A    between atoms: C5*_19  and  O5*_20
REMARK                            x       y       z     vdW  Elec       q    Type
REMARK                         _______ _______ _______ _____ _____    ______ ____
ROOT
ATOM      1  O4* UNL     1     -36.150  22.061   0.815  0.00  0.00    -0.333 OA
ATOM      2  C2* UNL     1     -35.057  21.005   2.635  0.00  0.00    +0.187 C 
ATOM      3  C1* UNL     1     -35.388  22.356   2.000  0.00  0.00    +0.224 C 
ATOM      4  C3* UNL     1     -34.886  20.124   1.414  0.00  0.00    +0.171 C 
ATOM      5  C4* UNL     1     -35.887  20.701   0.414  0.00  0.00    +0.175 C 
ENDROOT
BRANCH   3   6
ATOM      6  N   UNL     1     -36.093  23.328   2.915  0.00  0.00    -0.262 N 
ATOM      7  N   UNL     1     -37.769  24.393   3.912  0.00  0.00    -0.249 NA
ATOM      8  N   UNL     1     -35.013  26.185   5.618  0.00  0.00    -0.262 NA
ATOM      9  C   UNL     1     -35.502  24.225   3.766  0.00  0.00    +0.068 C 
ATOM     10  C   UNL     1     -37.447  23.466   3.038  0.00  0.00    +0.221 C 
ATOM     11  C   UNL     1     -36.569  24.878   4.375  0.00  0.00    +0.094 C 
ATOM     12  C   UNL     1     -34.175  24.517   4.048  0.00  0.00    +0.036 C 
ATOM     13  C   UNL     1     -36.298  25.872   5.315  0.00  0.00    +0.172 C 
ATOM     14  C   UNL     1     -34.011  25.519   4.994  0.00  0.00    +0.095 C 
ENDBRANCH   3   6
BRANCH   2  15
ATOM     15  O2* UNL     1     -36.148  20.527   3.412  0.00  0.00    -0.378 OA
ATOM     16  H2* UNL     1     -36.361  21.173   4.103  0.00  0.00    +0.211 HD
ENDBRANCH   2  15
BRANCH   4  17
ATOM     17  O3* UNL     1     -33.563  20.302   0.915  0.00  0.00    -0.379 OA
ATOM     18  H3* UNL     1     -32.948  20.410   1.657  0.00  0.00    +0.211 HD
ENDBRANCH   4  17
BRANCH   5  19
ATOM     19  C5* UNL     1     -37.215  19.958   0.391  0.00  0.00    +0.169 C 
BRANCH  19  20
ATOM     20  O5* UNL     1     -37.048  18.710   1.042  0.00  0.00    -0.379 OA
ATOM     21  H5* UNL     1     -37.716  18.085   0.719  0.00  0.00    +0.211 HD
ENDBRANCH  19  20
ENDBRANCH   5  19
TORSDOF 5
ENDMDL
MODEL 2
REMARK VINA RESULT:      -5.2      3.748      5.348
REMARK  Name = 54192848
REMARK  5 active torsions:
REMARK  status: ('A' for Active; 'I' for Inactive)
REMARK    1  A    between atoms: C2*_2  and  O2*_15
REMARK    2  A    between atoms: C1*_3  and  N_6
REMARK    3  A    between atoms: C3*_4  and  O3*_17
REMARK    4  A    between atoms: C4*_5  and  C5*_19
REMARK    5  A    between atoms: C5*_19  and  O5*_20
REMARK                            x       y       z     vdW  Elec       q    Type
REMARK                         _______ _______ _______ _____ _____    ______ ____
ROOT
ATOM      1  O4* UNL     1     -34.802  24.869   3.354  0.00  0.00    -0.333 OA
ATOM      2  C2* UNL     1     -35.239  25.590   5.570  0.00  0.00    +0.187 C 
ATOM      3  C1* UNL     1     -34.189  25.558   4.459  0.00  0.00    +0.224 C 
ATOM      4  C3* UNL     1     -35.950  24.269   5.361  0.00  0.00    +0.171 C 
ATOM      5  C4* UNL     1     -35.894  24.067   3.848  0.00  0.00    +0.175 C 
ENDROOT
BRANCH   3   6
ATOM      6  N   UNL     1     -33.642  26.909   4.068  0.00  0.00    -0.262 N 
ATOM      7  N   UNL     1     -33.215  28.685   2.802  0.00  0.00    -0.249 NA
ATOM      8  N   UNL     1     -31.426  29.845   5.831  0.00  0.00    -0.262 NA
ATOM      9  C   UNL     1     -32.897  27.749   4.854  0.00  0.00    +0.068 C 
ATOM     10  C   UNL     1     -33.804  27.511   2.851  0.00  0.00    +0.221 C 
ATOM     11  C   UNL     1     -32.643  28.849   4.041  0.00  0.00    +0.094 C 
ATOM     12  C   UNL     1     -32.438  27.649   6.160  0.00  0.00    +0.036 C 
ATOM     13  C   UNL     1     -31.893  29.905   4.558  0.00  0.00    +0.172 C 
ATOM     14  C   UNL     1     -31.702  28.749   6.580  0.00  0.00    +0.095 C 
ENDBRANCH   3   6
BRANCH   2  15
ATOM     15  O2* UNL     1     -36.159  26.656   5.368  0.00  0.00    -0.378 OA
ATOM     16  H2* UNL     1     -35.707  27.397   4.936  0.00  0.00    +0.211 HD
ENDBRANCH   2  15
BRANCH   4  17
ATOM     17  O3* UNL     1     -35.191  23.246   6.002  0.00  0.00    -0.379 OA
ATOM     18  H3* UNL     1     -35.601  23.021   6.852  0.00  0.00    +0.211 HD
ENDBRANCH   4  17
BRANCH   5  19
ATOM     19  C5* UNL     1     -37.160  24.515   3.132  0.00  0.00    +0.169 C 
BRANCH  19  20
ATOM     20  O5* UNL     1     -38.163  24.769   4.099  0.00  0.00    -0.379 OA
ATOM     21  H5* UNL     1     -38.611  25.603   3.890  0.00  0.00    +0.211 HD
ENDBRANCH  19  20
ENDBRANCH   5  19
TORSDOF 5
ENDMDL
MODEL 3
REMARK VINA RESULT:      -5.1      3.752      5.479
REMARK  Name = 54192848
REMARK  5 active torsions:
REMARK  status: ('A' for Active; 'I' for Inactive)
REMARK    1  A    between atoms: C2*_2  and  O2*_15
REMARK    2  A    between atoms: C1*_3  and  N_6
REMARK    3  A    between atoms: C3*_4  and  O3*_17
REMARK    4  A    between atoms: C4*_5  and  C5*_19
REMARK    5  A    between atoms: C5*_19  and  O5*_20
REMARK                            x       y       z     vdW  Elec       q    Type
REMARK                         _______ _______ _______ _____ _____    ______ ____
ROOT
ATOM      1  O4* UNL     1     -35.069  25.529   3.140  0.00  0.00    -0.333 OA
ATOM      2  C2* UNL     1     -36.039  25.314   5.293  0.00  0.00    +0.187 C 
ATOM      3  C1* UNL     1     -34.718  25.365   4.526  0.00  0.00    +0.224 C 
ATOM      4  C3* UNL     1     -36.944  24.610   4.302  0.00  0.00    +0.171 C 
ATOM      5  C4* UNL     1     -36.428  25.088   2.945  0.00  0.00    +0.175 C 
ENDROOT
BRANCH   3   6
ATOM      6  N   UNL     1     -33.749  26.419   5.006  0.00  0.00    -0.262 N 
ATOM      7  N   UNL     1     -32.486  27.586   6.414  0.00  0.00    -0.249 NA
ATOM      8  N   UNL     1     -31.611  29.470   3.347  0.00  0.00    -0.262 NA
ATOM      9  C   UNL     1     -33.133  27.374   4.240  0.00  0.00    +0.068 C 
ATOM     10  C   UNL     1     -33.331  26.586   6.297  0.00  0.00    +0.221 C 
ATOM     11  C   UNL     1     -32.352  28.090   5.142  0.00  0.00    +0.094 C 
ATOM     12  C   UNL     1     -33.188  27.668   2.885  0.00  0.00    +0.036 C 
ATOM     13  C   UNL     1     -31.584  29.153   4.666  0.00  0.00    +0.172 C 
ATOM     14  C   UNL     1     -32.390  28.741   2.512  0.00  0.00    +0.095 C 
ENDBRANCH   3   6
BRANCH   2  15
ATOM     15  O2* UNL     1     -36.537  26.624   5.536  0.00  0.00    -0.378 OA
ATOM     16  H2* UNL     1     -37.268  26.810   4.927  0.00  0.00    +0.211 HD
ENDBRANCH   2  15
BRANCH   4  17
ATOM     17  O3* UNL     1     -36.731  23.206   4.420  0.00  0.00    -0.379 OA
ATOM     18  H3* UNL     1     -37.419  22.820   4.985  0.00  0.00    +0.211 HD
ENDBRANCH   4  17
BRANCH   5  19
ATOM     19  C5* UNL     1     -37.220  26.258   2.377  0.00  0.00    +0.169 C 
BRANCH  19  20
ATOM     20  O5* UNL     1     -38.367  26.464   3.182  0.00  0.00    -0.379 OA
ATOM     21  H5* UNL     1     -38.719  25.607   3.469  0.00  0.00    +0.211 HD
ENDBRANCH  19  20
ENDBRANCH   5  19
TORSDOF 5
ENDMDL
MODEL 4
REMARK VINA RESULT:      -5.0      3.140      5.146
REMARK  Name = 54192848
REMARK  5 active torsions:
REMARK  status: ('A' for Active; 'I' for Inactive)
REMARK    1  A    between atoms: C2*_2  and  O2*_15
REMARK    2  A    between atoms: C1*_3  and  N_6
REMARK    3  A    between atoms: C3*_4  and  O3*_17
REMARK    4  A    between atoms: C4*_5  and  C5*_19
REMARK    5  A    between atoms: C5*_19  and  O5*_20
REMARK                            x       y       z     vdW  Elec       q    Type
REMARK                         _______ _______ _______ _____ _____    ______ ____
ROOT
ATOM      1  O4* UNL     1     -35.555  23.942   3.554  0.00  0.00    -0.333 OA
ATOM      2  C2* UNL     1     -35.507  26.162   4.385  0.00  0.00    +0.187 C 
ATOM      3  C1* UNL     1     -35.780  25.304   3.149  0.00  0.00    +0.224 C 
ATOM      4  C3* UNL     1     -34.390  25.389   5.056  0.00  0.00    +0.171 C 
ATOM      5  C4* UNL     1     -34.713  23.933   4.725  0.00  0.00    +0.175 C 
ENDROOT
BRANCH   3   6
ATOM      6  N   UNL     1     -37.140  25.507   2.528  0.00  0.00    -0.262 N 
ATOM      7  N   UNL     1     -38.846  26.563   1.572  0.00  0.00    -0.249 NA
ATOM      8  N   UNL     1     -40.389  23.197   1.664  0.00  0.00    -0.262 NA
ATOM      9  C   UNL     1     -38.101  24.549   2.333  0.00  0.00    +0.068 C 
ATOM     10  C   UNL     1     -37.632  26.693   2.058  0.00  0.00    +0.221 C 
ATOM     11  C   UNL     1     -39.156  25.234   1.736  0.00  0.00    +0.094 C 
ATOM     12  C   UNL     1     -38.143  23.191   2.616  0.00  0.00    +0.036 C 
ATOM     13  C   UNL     1     -40.311  24.526   1.404  0.00  0.00    +0.172 C 
ATOM     14  C   UNL     1     -39.333  22.579   2.248  0.00  0.00    +0.095 C 
ENDBRANCH   3   6
BRANCH   2  15
ATOM     15  O2* UNL     1     -36.640  26.192   5.244  0.00  0.00    -0.378 OA
ATOM     16  H2* UNL     1     -37.420  26.471   4.739  0.00  0.00    +0.211 HD
ENDBRANCH   2  15
BRANCH   4  17
ATOM     17  O3* UNL     1     -33.158  25.752   4.436  0.00  0.00    -0.379 OA
ATOM     18  H3* UNL     1     -33.036  26.712   4.496  0.00  0.00    +0.211 HD
ENDBRANCH   4  17
BRANCH   5  19
ATOM     19  C5* UNL     1     -35.468  23.215   5.835  0.00  0.00    +0.169 C 
BRANCH  19  20
ATOM     20  O5* UNL     1     -36.121  22.085   5.283  0.00  0.00    -0.379 OA
ATOM     21  H5* UNL     1     -36.986  21.973   5.706  0.00  0.00    +0.211 HD
ENDBRANCH  19  20
ENDBRANCH   5  19
TORSDOF 5
ENDMDL
MODEL 5
REMARK VINA RESULT:      -4.9      3.040      4.757
REMARK  Name = 54192848
REMARK  5 active torsions:
REMARK  status: ('A' for Active; 'I' for Inactive)
REMARK    1  A    between atoms: C2*_2  and  O2*_15
REMARK    2  A    between atoms: C1*_3  and  N_6
REMARK    3  A    between atoms: C3*_4  and  O3*_17
REMARK    4  A    between atoms: C4*_5  and  C5*_19
REMARK    5  A    between atoms: C5*_19  and  O5*_20
REMARK                            x       y       z     vdW  Elec       q    Type
REMARK                         _______ _______ _______ _____ _____    ______ ____
ROOT
ATOM      1  O4* UNL     1     -35.566  22.767   3.799  0.00  0.00    -0.333 OA
ATOM      2  C2* UNL     1     -35.844  25.044   4.399  0.00  0.00    +0.187 C 
ATOM      3  C1* UNL     1     -35.946  24.042   3.249  0.00  0.00    +0.224 C 
ATOM      4  C3* UNL     1     -34.669  24.496   5.183  0.00  0.00    +0.171 C 
ATOM      5  C4* UNL     1     -34.786  22.984   4.992  0.00  0.00    +0.175 C 
ENDROOT
BRANCH   3   6
ATOM      6  N   UNL     1     -37.290  24.001   2.564  0.00  0.00    -0.262 N 
ATOM      7  N   UNL     1     -39.254  23.200   1.899  0.00  0.00    -0.249 NA
ATOM      8  N   UNL     1     -39.531  26.508   0.255  0.00  0.00    -0.262 NA
ATOM      9  C   UNL     1     -37.858  24.998   1.815  0.00  0.00    +0.068 C 
ATOM     10  C   UNL     1     -38.162  22.947   2.585  0.00  0.00    +0.221 C 
ATOM     11  C   UNL     1     -39.082  24.474   1.411  0.00  0.00    +0.094 C 
ATOM     12  C   UNL     1     -37.426  26.270   1.465  0.00  0.00    +0.036 C 
ATOM     13  C   UNL     1     -39.918  25.259   0.618  0.00  0.00    +0.172 C 
ATOM     14  C   UNL     1     -38.328  26.970   0.676  0.00  0.00    +0.095 C 
ENDBRANCH   3   6
BRANCH   2  15
ATOM     15  O2* UNL     1     -37.010  25.007   5.211  0.00  0.00    -0.378 OA
ATOM     16  H2* UNL     1     -36.760  24.810   6.128  0.00  0.00    +0.211 HD
ENDBRANCH   2  15
BRANCH   4  17
ATOM     17  O3* UNL     1     -33.467  24.957   4.571  0.00  0.00    -0.379 OA
ATOM     18  H3* UNL     1     -32.834  24.225   4.507  0.00  0.00    +0.211 HD
ENDBRANCH   4  17
BRANCH   5  19
ATOM     19  C5* UNL     1     -35.494  22.283   6.144  0.00  0.00    +0.169 C 
BRANCH  19  20
ATOM     20  O5* UNL     1     -35.440  20.885   5.926  0.00  0.00    -0.379 OA
ATOM     21  H5* UNL     1     -35.264  20.433   6.766  0.00  0.00    +0.211 HD
ENDBRANCH  19  20
ENDBRANCH   5  19
TORSDOF 5
ENDMDL
MODEL 6
REMARK VINA RESULT:      -4.9      2.798      4.226
REMARK  Name = 54192848
REMARK  5 active torsions:
REMARK  status: ('A' for Active; 'I' for Inactive)
REMARK    1  A    between atoms: C2*_2  and  O2*_15
REMARK    2  A    between atoms: C1*_3  and  N_6
REMARK    3  A    between atoms: C3*_4  and  O3*_17
REMARK    4  A    between atoms: C4*_5  and  C5*_19
REMARK    5  A    between atoms: C5*_19  and  O5*_20
REMARK                            x       y       z     vdW  Elec       q    Type
REMARK                         _______ _______ _______ _____ _____    ______ ____
ROOT
ATOM      1  O4* UNL     1     -35.718  24.268   5.176  0.00  0.00    -0.333 OA
ATOM      2  C2* UNL     1     -35.789  23.915   2.832  0.00  0.00    +0.187 C 
ATOM      3  C1* UNL     1     -35.869  24.975   3.931  0.00  0.00    +0.224 C 
ATOM      4  C3* UNL     1     -36.444  22.725   3.503  0.00  0.00    +0.171 C 
ATOM      5  C4* UNL     1     -36.052  22.880   4.971  0.00  0.00    +0.175 C 
ENDROOT
BRANCH   3   6
ATOM      6  N   UNL     1     -34.886  26.110   3.787  0.00  0.00    -0.262 N 
ATOM      7  N   UNL     1     -33.757  27.765   2.824  0.00  0.00    -0.249 NA
ATOM      8  N   UNL     1     -32.170  28.013   6.162  0.00  0.00    -0.262 NA
ATOM      9  C   UNL     1     -34.047  26.594   4.756  0.00  0.00    +0.068 C 
ATOM     10  C   UNL     1     -34.676  26.841   2.651  0.00  0.00    +0.221 C 
ATOM     11  C   UNL     1     -33.353  27.625   4.131  0.00  0.00    +0.094 C 
ATOM     12  C   UNL     1     -33.838  26.234   6.081  0.00  0.00    +0.036 C 
ATOM     13  C   UNL     1     -32.403  28.335   4.864  0.00  0.00    +0.172 C 
ATOM     14  C   UNL     1     -32.874  26.999   6.723  0.00  0.00    +0.095 C 
ENDBRANCH   3   6
BRANCH   2  15
ATOM     15  O2* UNL     1     -34.436  23.598   2.530  0.00  0.00    -0.378 OA
ATOM     16  H2* UNL     1     -33.936  23.493   3.355  0.00  0.00    +0.211 HD
ENDBRANCH   2  15
BRANCH   4  17
ATOM     17  O3* UNL     1     -37.858  22.861   3.375  0.00  0.00    -0.379 OA
ATOM     18  H3* UNL     1     -38.281  22.002   3.526  0.00  0.00    +0.211 HD
ENDBRANCH   4  17
BRANCH   5  19
ATOM     19  C5* UNL     1     -34.838  22.048   5.362  0.00  0.00    +0.169 C 
BRANCH  19  20
ATOM     20  O5* UNL     1     -35.261  20.722   5.623  0.00  0.00    -0.379 OA
ATOM     21  H5* UNL     1     -35.666  20.349   4.824  0.00  0.00    +0.211 HD
ENDBRANCH  19  20
ENDBRANCH   5  19
TORSDOF 5
ENDMDL
MODEL 7
REMARK VINA RESULT:      -4.9      3.027      4.437
REMARK  Name = 54192848
REMARK  5 active torsions:
REMARK  status: ('A' for Active; 'I' for Inactive)
REMARK    1  A    between atoms: C2*_2  and  O2*_15
REMARK    2  A    between atoms: C1*_3  and  N_6
REMARK    3  A    between atoms: C3*_4  and  O3*_17
REMARK    4  A    between atoms: C4*_5  and  C5*_19
REMARK    5  A    between atoms: C5*_19  and  O5*_20
REMARK                            x       y       z     vdW  Elec       q    Type
REMARK                         _______ _______ _______ _____ _____    ______ ____
ROOT
ATOM      1  O4* UNL     1     -36.183  24.088   5.055  0.00  0.00    -0.333 OA
ATOM      2  C2* UNL     1     -35.978  23.721   2.722  0.00  0.00    +0.187 C 
ATOM      3  C1* UNL     1     -36.337  24.755   3.790  0.00  0.00    +0.224 C 
ATOM      4  C3* UNL     1     -36.482  22.439   3.352  0.00  0.00    +0.171 C 
ATOM      5  C4* UNL     1     -36.257  22.663   4.847  0.00  0.00    +0.175 C 
ENDROOT
BRANCH   3   6
ATOM      6  N   UNL     1     -35.550  26.041   3.713  0.00  0.00    -0.262 N 
ATOM      7  N   UNL     1     -34.021  27.569   4.229  0.00  0.00    -0.249 NA
ATOM      8  N   UNL     1     -35.566  29.405   1.407  0.00  0.00    -0.262 NA
ATOM      9  C   UNL     1     -35.740  27.065   2.823  0.00  0.00    +0.068 C 
ATOM     10  C   UNL     1     -34.512  26.389   4.533  0.00  0.00    +0.221 C 
ATOM     11  C   UNL     1     -34.774  28.006   3.166  0.00  0.00    +0.094 C 
ATOM     12  C   UNL     1     -36.641  27.247   1.782  0.00  0.00    +0.036 C 
ATOM     13  C   UNL     1     -34.703  29.190   2.432  0.00  0.00    +0.172 C 
ATOM     14  C   UNL     1     -36.488  28.455   1.116  0.00  0.00    +0.095 C 
ENDBRANCH   3   6
BRANCH   2  15
ATOM     15  O2* UNL     1     -34.569  23.637   2.548  0.00  0.00    -0.378 OA
ATOM     16  H2* UNL     1     -34.366  22.980   1.864  0.00  0.00    +0.211 HD
ENDBRANCH   2  15
BRANCH   4  17
ATOM     17  O3* UNL     1     -37.880  22.333   3.096  0.00  0.00    -0.379 OA
ATOM     18  H3* UNL     1     -38.174  23.099   2.578  0.00  0.00    +0.211 HD
ENDBRANCH   4  17
BRANCH   5  19
ATOM     19  C5* UNL     1     -34.962  22.050   5.361  0.00  0.00    +0.169 C 
BRANCH  19  20
ATOM     20  O5* UNL     1     -35.230  20.737   5.820  0.00  0.00    -0.379 OA
ATOM     21  H5* UNL     1     -35.474  20.175   5.068  0.00  0.00    +0.211 HD
ENDBRANCH  19  20
ENDBRANCH   5  19
TORSDOF 5
ENDMDL
MODEL 8
REMARK VINA RESULT:      -4.7      2.828      4.144
REMARK  Name = 54192848
REMARK  5 active torsions:
REMARK  status: ('A' for Active; 'I' for Inactive)
REMARK    1  A    between atoms: C2*_2  and  O2*_15
REMARK    2  A    between atoms: C1*_3  and  N_6
REMARK    3  A    between atoms: C3*_4  and  O3*_17
REMARK    4  A    between atoms: C4*_5  and  C5*_19
REMARK    5  A    between atoms: C5*_19  and  O5*_20
REMARK                            x       y       z     vdW  Elec       q    Type
REMARK                         _______ _______ _______ _____ _____    ______ ____
ROOT
ATOM      1  O4* UNL     1     -34.810  23.555   3.342  0.00  0.00    -0.333 OA
ATOM      2  C2* UNL     1     -35.473  24.032   5.567  0.00  0.00    +0.187 C 
ATOM      3  C1* UNL     1     -34.457  24.368   4.475  0.00  0.00    +0.224 C 
ATOM      4  C3* UNL     1     -35.726  22.561   5.312  0.00  0.00    +0.171 C 
ATOM      5  C4* UNL     1     -35.596  22.434   3.794  0.00  0.00    +0.175 C 
ENDROOT
BRANCH   3   6
ATOM      6  N   UNL     1     -34.363  25.834   4.130  0.00  0.00    -0.262 N 
ATOM      7  N   UNL     1     -33.662  27.942   4.210  0.00  0.00    -0.249 NA
ATOM      8  N   UNL     1     -36.168  28.397   1.520  0.00  0.00    -0.262 NA
ATOM      9  C   UNL     1     -35.096  26.500   3.182  0.00  0.00    +0.068 C 
ATOM     10  C   UNL     1     -33.521  26.738   4.717  0.00  0.00    +0.221 C 
ATOM     11  C   UNL     1     -34.641  27.813   3.252  0.00  0.00    +0.094 C 
ATOM     12  C   UNL     1     -36.084  26.087   2.299  0.00  0.00    +0.036 C 
ATOM     13  C   UNL     1     -35.199  28.762   2.397  0.00  0.00    +0.172 C 
ATOM     14  C   UNL     1     -36.575  27.104   1.493  0.00  0.00    +0.095 C 
ENDBRANCH   3   6
BRANCH   2  15
ATOM     15  O2* UNL     1     -36.682  24.757   5.377  0.00  0.00    -0.378 OA
ATOM     16  H2* UNL     1     -37.024  24.587   4.486  0.00  0.00    +0.211 HD
ENDBRANCH   2  15
BRANCH   4  17
ATOM     17  O3* UNL     1     -34.688  21.812   5.939  0.00  0.00    -0.379 OA
ATOM     18  H3* UNL     1     -33.992  22.415   6.244  0.00  0.00    +0.211 HD
ENDBRANCH   4  17
BRANCH   5  19
ATOM     19  C5* UNL     1     -36.933  22.480   3.068  0.00  0.00    +0.169 C 
BRANCH  19  20
ATOM     20  O5* UNL     1     -37.281  21.165   2.672  0.00  0.00    -0.379 OA
ATOM     21  H5* UNL     1     -36.542  20.565   2.857  0.00  0.00    +0.211 HD
ENDBRANCH  19  20
ENDBRANCH   5  19
TORSDOF 5
ENDMDL
MODEL 9
REMARK VINA RESULT:      -4.7      3.509      6.821
REMARK  Name = 54192848
REMARK  5 active torsions:
REMARK  status: ('A' for Active; 'I' for Inactive)
REMARK    1  A    between atoms: C2*_2  and  O2*_15
REMARK    2  A    between atoms: C1*_3  and  N_6
REMARK    3  A    between atoms: C3*_4  and  O3*_17
REMARK    4  A    between atoms: C4*_5  and  C5*_19
REMARK    5  A    between atoms: C5*_19  and  O5*_20
REMARK                            x       y       z     vdW  Elec       q    Type
REMARK                         _______ _______ _______ _____ _____    ______ ____
ROOT
ATOM      1  O4* UNL     1     -34.880  21.734   1.317  0.00  0.00    -0.333 OA
ATOM      2  C2* UNL     1     -36.868  20.447   1.427  0.00  0.00    +0.187 C 
ATOM      3  C1* UNL     1     -35.526  20.601   0.710  0.00  0.00    +0.224 C 
ATOM      4  C3* UNL     1     -37.230  21.889   1.716  0.00  0.00    +0.171 C 
ATOM      5  C4* UNL     1     -35.877  22.557   1.956  0.00  0.00    +0.175 C 
ENDROOT
BRANCH   3   6
ATOM      6  N   UNL     1     -34.659  19.365   0.720  0.00  0.00    -0.262 N 
ATOM      7  N   UNL     1     -32.978  18.017   1.265  0.00  0.00    -0.249 NA
ATOM      8  N   UNL     1     -34.652  15.722  -1.113  0.00  0.00    -0.262 NA
ATOM      9  C   UNL     1     -34.859  18.219  -0.004  0.00  0.00    +0.068 C 
ATOM     10  C   UNL     1     -33.523  19.196   1.462  0.00  0.00    +0.221 C 
ATOM     11  C   UNL     1     -33.797  17.394   0.353  0.00  0.00    +0.094 C 
ATOM     12  C   UNL     1     -35.841  17.842  -0.910  0.00  0.00    +0.036 C 
ATOM     13  C   UNL     1     -33.711  16.127  -0.223  0.00  0.00    +0.172 C 
ATOM     14  C   UNL     1     -35.665  16.566  -1.427  0.00  0.00    +0.095 C 
ENDBRANCH   3   6
BRANCH   2  15
ATOM     15  O2* UNL     1     -36.711  19.746   2.654  0.00  0.00    -0.378 OA
ATOM     16  H2* UNL     1     -37.002  18.827   2.542  0.00  0.00    +0.211 HD
ENDBRANCH   2  15
BRANCH   4  17
ATOM     17  O3* UNL     1     -37.830  22.443   0.548  0.00  0.00    -0.379 OA
ATOM     18  H3* UNL     1     -37.334  22.162  -0.236  0.00  0.00    +0.211 HD
ENDBRANCH   4  17
BRANCH   5  19
ATOM     19  C5* UNL     1     -35.512  22.669   3.430  0.00  0.00    +0.169 C 
BRANCH  19  20
ATOM     20  O5* UNL     1     -36.673  22.429   4.205  0.00  0.00    -0.379 OA
ATOM     21  H5* UNL     1     -36.465  22.548   5.144  0.00  0.00    +0.211 HD
ENDBRANCH  19  20
ENDBRANCH   5  19
TORSDOF 5
ENDMDL
