MODEL 1
REMARK VINA RESULT:      -6.3      0.000      0.000
REMARK  Name = 192275
REMARK  12 active torsions:
REMARK  status: ('A' for Active; 'I' for Inactive)
REMARK    1  A    between atoms: C_1  and  O_2
REMARK    2  A    between atoms: C_1  and  C_5
REMARK    3  A    between atoms: C_1  and  C_16
REMARK    4  A    between atoms: C_5  and  C_6
REMARK    5  A    between atoms: C_6  and  C_7
REMARK    6  A    between atoms: C_7  and  C_9
REMARK    7  A    between atoms: C_7  and  C_12
REMARK    8  A    between atoms: C_9  and  O_10
REMARK    9  A    between atoms: C_12  and  C_13
REMARK   10  A    between atoms: C_16  and  N_17
REMARK   11  A    between atoms: C_16  and  C_21
REMARK   12  A    between atoms: C_21  and  C_22
REMARK                            x       y       z     vdW  Elec       q    Type
REMARK                         _______ _______ _______ _____ _____    ______ ____
ROOT
ATOM      1  C   UNL     1     -35.565  20.568   2.377  0.00  0.00    +0.148 C 
ENDROOT
BRANCH   1   2
ATOM      2  O   UNL     1     -36.690  19.713   2.574  0.00  0.00    -0.379 OA
ATOM      3  H   UNL     1     -37.458  20.078   2.108  0.00  0.00    +0.211 HD
ENDBRANCH   1   2
BRANCH   1   5
ATOM      4  O   UNL     1     -36.508  22.435   1.219  0.00  0.00    -0.294 OA
ATOM      5  C   UNL     1     -36.140  21.978   2.303  0.00  0.00    +0.176 C 
BRANCH   5   6
ATOM      6  C   UNL     1     -36.248  22.776   3.600  0.00  0.00    +0.078 C 
BRANCH   6   7
ATOM      7  C   UNL     1     -35.014  22.633   4.508  0.00  0.00    +0.106 C 
BRANCH   7   9
ATOM      8  O   UNL     1     -35.997  22.385   6.724  0.00  0.00    -0.250 OA
ATOM      9  C   UNL     1     -35.430  21.881   5.763  0.00  0.00    +0.314 C 
BRANCH   9  10
ATOM     10  O   UNL     1     -35.133  20.558   5.693  0.00  0.00    -0.480 OA
ATOM     11  H   UNL     1     -34.243  20.282   5.598  0.00  0.00    +0.295 HD
ENDBRANCH   9  10
ENDBRANCH   7   9
BRANCH   7  12
ATOM     12  C   UNL     1     -34.416  24.010   4.860  0.00  0.00    +0.012 C 
BRANCH  12  13
ATOM     13  C   UNL     1     -35.245  25.227   4.395  0.00  0.00    +0.001 C 
ATOM     14  C   UNL     1     -36.041  25.862   5.537  0.00  0.00    +0.000 C 
ATOM     15  C   UNL     1     -34.314  26.272   3.774  0.00  0.00    +0.000 C 
ENDBRANCH  12  13
ENDBRANCH   7  12
ENDBRANCH   6   7
ENDBRANCH   5   6
ENDBRANCH   1   5
BRANCH   1  16
ATOM     16  C   UNL     1     -34.787  20.132   1.122  0.00  0.00    -0.027 C 
BRANCH  16  17
ATOM     17  N   UNL     1     -35.748  19.562   0.162  0.00  0.00    +0.384 N 
ATOM     18  H   UNL     1     -35.243  19.176  -0.635  0.00  0.00    -0.089 HD
ATOM     19  H   UNL     1     -36.383  20.293  -0.159  0.00  0.00    -0.089 HD
ATOM     20  H   UNL     1     -36.283  18.822   0.617  0.00  0.00    -0.089 HD
ENDBRANCH  16  17
BRANCH  16  21
ATOM     21  C   UNL     1     -33.730  19.040   1.398  0.00  0.00    +0.007 C 
BRANCH  21  22
ATOM     22  C   UNL     1     -32.383  19.248   0.752  0.00  0.00    -0.024 C 
ATOM     23  C   UNL     1     -31.406  18.273   0.885  0.00  0.00    -0.004 C 
ATOM     24  C   UNL     1     -32.145  20.412   0.035  0.00  0.00    -0.004 C 
ATOM     25  C   UNL     1     -30.161  18.466   0.287  0.00  0.00    -0.000 C 
ATOM     26  C   UNL     1     -30.899  20.604  -0.563  0.00  0.00    -0.000 C 
ATOM     27  C   UNL     1     -29.908  19.631  -0.436  0.00  0.00    -0.000 C 
ENDBRANCH  21  22
ENDBRANCH  16  21
ENDBRANCH   1  16
TORSDOF 12
ENDMDL
MODEL 2
REMARK VINA RESULT:      -6.0      1.791      2.425
REMARK  Name = 192275
REMARK  12 active torsions:
REMARK  status: ('A' for Active; 'I' for Inactive)
REMARK    1  A    between atoms: C_1  and  O_2
REMARK    2  A    between atoms: C_1  and  C_5
REMARK    3  A    between atoms: C_1  and  C_16
REMARK    4  A    between atoms: C_5  and  C_6
REMARK    5  A    between atoms: C_6  and  C_7
REMARK    6  A    between atoms: C_7  and  C_9
REMARK    7  A    between atoms: C_7  and  C_12
REMARK    8  A    between atoms: C_9  and  O_10
REMARK    9  A    between atoms: C_12  and  C_13
REMARK   10  A    between atoms: C_16  and  N_17
REMARK   11  A    between atoms: C_16  and  C_21
REMARK   12  A    between atoms: C_21  and  C_22
REMARK                            x       y       z     vdW  Elec       q    Type
REMARK                         _______ _______ _______ _____ _____    ______ ____
ROOT
ATOM      1  C   UNL     1     -35.553  21.160   2.409  0.00  0.00    +0.148 C 
ENDROOT
BRANCH   1   2
ATOM      2  O   UNL     1     -35.772  20.518   3.664  0.00  0.00    -0.379 OA
ATOM      3  H   UNL     1     -36.726  20.446   3.827  0.00  0.00    +0.211 HD
ENDBRANCH   1   2
BRANCH   1   5
ATOM      4  O   UNL     1     -37.895  21.482   2.052  0.00  0.00    -0.294 OA
ATOM      5  C   UNL     1     -36.791  22.017   2.176  0.00  0.00    +0.176 C 
BRANCH   5   6
ATOM      6  C   UNL     1     -36.612  23.533   2.114  0.00  0.00    +0.078 C 
BRANCH   6   7
ATOM      7  C   UNL     1     -36.626  24.205   3.498  0.00  0.00    +0.106 C 
BRANCH   7   9
ATOM      8  O   UNL     1     -39.041  24.502   3.628  0.00  0.00    -0.250 OA
ATOM      9  C   UNL     1     -37.919  24.994   3.631  0.00  0.00    +0.314 C 
BRANCH   9  10
ATOM     10  O   UNL     1     -37.698  26.324   3.790  0.00  0.00    -0.480 OA
ATOM     11  H   UNL     1     -36.908  26.709   3.466  0.00  0.00    +0.295 HD
ENDBRANCH   9  10
ENDBRANCH   7   9
BRANCH   7  12
ATOM     12  C   UNL     1     -35.397  25.116   3.691  0.00  0.00    +0.012 C 
BRANCH  12  13
ATOM     13  C   UNL     1     -34.481  24.744   4.876  0.00  0.00    +0.001 C 
ATOM     14  C   UNL     1     -34.299  25.901   5.860  0.00  0.00    +0.000 C 
ATOM     15  C   UNL     1     -35.062  23.532   5.610  0.00  0.00    +0.000 C 
ENDBRANCH  12  13
ENDBRANCH   7  12
ENDBRANCH   6   7
ENDBRANCH   5   6
ENDBRANCH   1   5
BRANCH   1  16
ATOM     16  C   UNL     1     -35.294  20.106   1.317  0.00  0.00    -0.027 C 
BRANCH  16  17
ATOM     17  N   UNL     1     -36.426  19.163   1.314  0.00  0.00    +0.384 N 
ATOM     18  H   UNL     1     -36.527  18.757   0.383  0.00  0.00    -0.089 HD
ATOM     19  H   UNL     1     -37.282  19.657   1.566  0.00  0.00    -0.089 HD
ATOM     20  H   UNL     1     -36.250  18.420   1.991  0.00  0.00    -0.089 HD
ENDBRANCH  16  17
BRANCH  16  21
ATOM     21  C   UNL     1     -34.017  19.271   1.554  0.00  0.00    +0.007 C 
BRANCH  21  22
ATOM     22  C   UNL     1     -32.801  19.688   0.762  0.00  0.00    -0.024 C 
ATOM     23  C   UNL     1     -31.701  18.846   0.711  0.00  0.00    -0.004 C 
ATOM     24  C   UNL     1     -32.806  20.906   0.099  0.00  0.00    -0.004 C 
ATOM     25  C   UNL     1     -30.577  19.231  -0.020  0.00  0.00    -0.000 C 
ATOM     26  C   UNL     1     -31.682  21.291  -0.632  0.00  0.00    -0.000 C 
ATOM     27  C   UNL     1     -30.568  20.454  -0.692  0.00  0.00    -0.000 C 
ENDBRANCH  21  22
ENDBRANCH  16  21
ENDBRANCH   1  16
TORSDOF 12
ENDMDL
MODEL 3
REMARK VINA RESULT:      -6.0      2.064      2.880
REMARK  Name = 192275
REMARK  12 active torsions:
REMARK  status: ('A' for Active; 'I' for Inactive)
REMARK    1  A    between atoms: C_1  and  O_2
REMARK    2  A    between atoms: C_1  and  C_5
REMARK    3  A    between atoms: C_1  and  C_16
REMARK    4  A    between atoms: C_5  and  C_6
REMARK    5  A    between atoms: C_6  and  C_7
REMARK    6  A    between atoms: C_7  and  C_9
REMARK    7  A    between atoms: C_7  and  C_12
REMARK    8  A    between atoms: C_9  and  O_10
REMARK    9  A    between atoms: C_12  and  C_13
REMARK   10  A    between atoms: C_16  and  N_17
REMARK   11  A    between atoms: C_16  and  C_21
REMARK   12  A    between atoms: C_21  and  C_22
REMARK                            x       y       z     vdW  Elec       q    Type
REMARK                         _______ _______ _______ _____ _____    ______ ____
ROOT
ATOM      1  C   UNL     1     -35.368  21.628   3.542  0.00  0.00    +0.148 C 
ENDROOT
BRANCH   1   2
ATOM      2  O   UNL     1     -35.422  20.699   4.624  0.00  0.00    -0.379 OA
ATOM      3  H   UNL     1     -35.470  19.796   4.272  0.00  0.00    +0.211 HD
ENDBRANCH   1   2
BRANCH   1   5
ATOM      4  O   UNL     1     -37.413  22.857   3.392  0.00  0.00    -0.294 OA
ATOM      5  C   UNL     1     -36.311  22.758   3.936  0.00  0.00    +0.176 C 
BRANCH   5   6
ATOM      6  C   UNL     1     -35.848  23.735   5.015  0.00  0.00    +0.078 C 
BRANCH   6   7
ATOM      7  C   UNL     1     -34.889  24.817   4.487  0.00  0.00    +0.106 C 
BRANCH   7   9
ATOM      8  O   UNL     1     -34.084  26.557   5.991  0.00  0.00    -0.250 OA
ATOM      9  C   UNL     1     -35.013  26.040   5.382  0.00  0.00    +0.314 C 
BRANCH   9  10
ATOM     10  O   UNL     1     -36.278  26.532   5.411  0.00  0.00    -0.480 OA
ATOM     11  H   UNL     1     -36.540  27.187   4.796  0.00  0.00    +0.295 HD
ENDBRANCH   9  10
ENDBRANCH   7   9
BRANCH   7  12
ATOM     12  C   UNL     1     -35.198  25.170   3.018  0.00  0.00    +0.012 C 
BRANCH  12  13
ATOM     13  C   UNL     1     -34.036  24.942   2.028  0.00  0.00    +0.001 C 
ATOM     14  C   UNL     1     -34.432  25.244   0.582  0.00  0.00    +0.000 C 
ATOM     15  C   UNL     1     -32.844  25.818   2.427  0.00  0.00    +0.000 C 
ENDBRANCH  12  13
ENDBRANCH   7  12
ENDBRANCH   6   7
ENDBRANCH   5   6
ENDBRANCH   1   5
BRANCH   1  16
ATOM     16  C   UNL     1     -35.737  20.922   2.224  0.00  0.00    -0.027 C 
BRANCH  16  17
ATOM     17  N   UNL     1     -37.015  20.217   2.425  0.00  0.00    +0.384 N 
ATOM     18  H   UNL     1     -37.679  20.507   1.707  0.00  0.00    -0.089 HD
ATOM     19  H   UNL     1     -37.388  20.445   3.347  0.00  0.00    -0.089 HD
ATOM     20  H   UNL     1     -36.862  19.211   2.359  0.00  0.00    -0.089 HD
ENDBRANCH  16  17
BRANCH  16  21
ATOM     21  C   UNL     1     -34.706  19.860   1.782  0.00  0.00    +0.007 C 
BRANCH  21  22
ATOM     22  C   UNL     1     -33.581  20.359   0.908  0.00  0.00    -0.024 C 
ATOM     23  C   UNL     1     -32.465  19.560   0.715  0.00  0.00    -0.004 C 
ATOM     24  C   UNL     1     -33.685  21.607   0.312  0.00  0.00    -0.004 C 
ATOM     25  C   UNL     1     -31.425  20.020  -0.093  0.00  0.00    -0.000 C 
ATOM     26  C   UNL     1     -32.645  22.067  -0.496  0.00  0.00    -0.000 C 
ATOM     27  C   UNL     1     -31.516  21.274  -0.699  0.00  0.00    -0.000 C 
ENDBRANCH  21  22
ENDBRANCH  16  21
ENDBRANCH   1  16
TORSDOF 12
ENDMDL
MODEL 4
REMARK VINA RESULT:      -5.9      2.094      2.719
REMARK  Name = 192275
REMARK  12 active torsions:
REMARK  status: ('A' for Active; 'I' for Inactive)
REMARK    1  A    between atoms: C_1  and  O_2
REMARK    2  A    between atoms: C_1  and  C_5
REMARK    3  A    between atoms: C_1  and  C_16
REMARK    4  A    between atoms: C_5  and  C_6
REMARK    5  A    between atoms: C_6  and  C_7
REMARK    6  A    between atoms: C_7  and  C_9
REMARK    7  A    between atoms: C_7  and  C_12
REMARK    8  A    between atoms: C_9  and  O_10
REMARK    9  A    between atoms: C_12  and  C_13
REMARK   10  A    between atoms: C_16  and  N_17
REMARK   11  A    between atoms: C_16  and  C_21
REMARK   12  A    between atoms: C_21  and  C_22
REMARK                            x       y       z     vdW  Elec       q    Type
REMARK                         _______ _______ _______ _____ _____    ______ ____
ROOT
ATOM      1  C   UNL     1     -37.473  21.114   1.445  0.00  0.00    +0.148 C 
ENDROOT
BRANCH   1   2
ATOM      2  O   UNL     1     -38.778  20.595   1.196  0.00  0.00    -0.379 OA
ATOM      3  H   UNL     1     -38.989  20.691   0.253  0.00  0.00    +0.211 HD
ENDBRANCH   1   2
BRANCH   1   5
ATOM      4  O   UNL     1     -38.006  22.628  -0.327  0.00  0.00    -0.294 OA
ATOM      5  C   UNL     1     -37.444  22.475   0.760  0.00  0.00    +0.176 C 
BRANCH   5   6
ATOM      6  C   UNL     1     -36.717  23.617   1.466  0.00  0.00    +0.078 C 
BRANCH   6   7
ATOM      7  C   UNL     1     -36.914  23.614   2.992  0.00  0.00    +0.106 C 
BRANCH   7   9
ATOM      8  O   UNL     1     -37.007  26.043   3.164  0.00  0.00    -0.250 OA
ATOM      9  C   UNL     1     -37.512  24.952   3.398  0.00  0.00    +0.314 C 
BRANCH   9  10
ATOM     10  O   UNL     1     -38.707  24.813   4.029  0.00  0.00    -0.480 OA
ATOM     11  H   UNL     1     -39.236  24.057   3.868  0.00  0.00    +0.295 HD
ENDBRANCH   9  10
ENDBRANCH   7   9
BRANCH   7  12
ATOM     12  C   UNL     1     -35.584  23.355   3.728  0.00  0.00    +0.012 C 
BRANCH  12  13
ATOM     13  C   UNL     1     -35.611  23.618   5.249  0.00  0.00    +0.001 C 
ATOM     14  C   UNL     1     -35.275  22.369   6.065  0.00  0.00    +0.000 C 
ATOM     15  C   UNL     1     -34.623  24.737   5.591  0.00  0.00    +0.000 C 
ENDBRANCH  12  13
ENDBRANCH   7  12
ENDBRANCH   6   7
ENDBRANCH   5   6
ENDBRANCH   1   5
BRANCH   1  16
ATOM     16  C   UNL     1     -36.408  20.124   0.939  0.00  0.00    -0.027 C 
BRANCH  16  17
ATOM     17  N   UNL     1     -37.042  18.802   0.799  0.00  0.00    +0.384 N 
ATOM     18  H   UNL     1     -37.454  18.719  -0.130  0.00  0.00    -0.089 HD
ATOM     19  H   UNL     1     -37.770  18.697   1.505  0.00  0.00    -0.089 HD
ATOM     20  H   UNL     1     -36.339  18.074   0.925  0.00  0.00    -0.089 HD
ENDBRANCH  16  17
BRANCH  16  21
ATOM     21  C   UNL     1     -35.217  19.949   1.907  0.00  0.00    +0.007 C 
BRANCH  21  22
ATOM     22  C   UNL     1     -33.860  19.803   1.262  0.00  0.00    -0.024 C 
ATOM     23  C   UNL     1     -33.104  18.670   1.518  0.00  0.00    -0.004 C 
ATOM     24  C   UNL     1     -33.394  20.806   0.424  0.00  0.00    -0.004 C 
ATOM     25  C   UNL     1     -31.850  18.535   0.922  0.00  0.00    -0.000 C 
ATOM     26  C   UNL     1     -32.140  20.670  -0.172  0.00  0.00    -0.000 C 
ATOM     27  C   UNL     1     -31.368  19.536   0.078  0.00  0.00    -0.000 C 
ENDBRANCH  21  22
ENDBRANCH  16  21
ENDBRANCH   1  16
TORSDOF 12
ENDMDL
MODEL 5
REMARK VINA RESULT:      -5.8      3.385      5.476
REMARK  Name = 192275
REMARK  12 active torsions:
REMARK  status: ('A' for Active; 'I' for Inactive)
REMARK    1  A    between atoms: C_1  and  O_2
REMARK    2  A    between atoms: C_1  and  C_5
REMARK    3  A    between atoms: C_1  and  C_16
REMARK    4  A    between atoms: C_5  and  C_6
REMARK    5  A    between atoms: C_6  and  C_7
REMARK    6  A    between atoms: C_7  and  C_9
REMARK    7  A    between atoms: C_7  and  C_12
REMARK    8  A    between atoms: C_9  and  O_10
REMARK    9  A    between atoms: C_12  and  C_13
REMARK   10  A    between atoms: C_16  and  N_17
REMARK   11  A    between atoms: C_16  and  C_21
REMARK   12  A    between atoms: C_21  and  C_22
REMARK                            x       y       z     vdW  Elec       q    Type
REMARK                         _______ _______ _______ _____ _____    ______ ____
ROOT
ATOM      1  C   UNL     1     -36.663  20.874   1.715  0.00  0.00    +0.148 C 
ENDROOT
BRANCH   1   2
ATOM      2  O   UNL     1     -36.667  19.800   2.653  0.00  0.00    -0.379 OA
ATOM      3  H   UNL     1     -37.579  19.496   2.791  0.00  0.00    +0.211 HD
ENDBRANCH   1   2
BRANCH   1   5
ATOM      4  O   UNL     1     -34.870  22.447   1.883  0.00  0.00    -0.294 OA
ATOM      5  C   UNL     1     -35.897  22.002   2.399  0.00  0.00    +0.176 C 
BRANCH   5   6
ATOM      6  C   UNL     1     -36.451  22.549   3.712  0.00  0.00    +0.078 C 
BRANCH   6   7
ATOM      7  C   UNL     1     -35.355  22.980   4.703  0.00  0.00    +0.106 C 
BRANCH   7   9
ATOM      8  O   UNL     1     -35.216  22.101   6.972  0.00  0.00    -0.250 OA
ATOM      9  C   UNL     1     -35.220  21.898   5.764  0.00  0.00    +0.314 C 
BRANCH   9  10
ATOM     10  O   UNL     1     -35.136  20.655   5.225  0.00  0.00    -0.480 OA
ATOM     11  H   UNL     1     -35.053  19.907   5.783  0.00  0.00    +0.295 HD
ENDBRANCH   9  10
ENDBRANCH   7   9
BRANCH   7  12
ATOM     12  C   UNL     1     -35.682  24.345   5.340  0.00  0.00    +0.012 C 
BRANCH  12  13
ATOM     13  C   UNL     1     -34.814  25.525   4.851  0.00  0.00    +0.001 C 
ATOM     14  C   UNL     1     -34.037  26.190   5.989  0.00  0.00    +0.000 C 
ATOM     15  C   UNL     1     -33.835  25.030   3.782  0.00  0.00    +0.000 C 
ENDBRANCH  12  13
ENDBRANCH   7  12
ENDBRANCH   6   7
ENDBRANCH   5   6
ENDBRANCH   1   5
BRANCH   1  16
ATOM     16  C   UNL     1     -38.107  21.235   1.320  0.00  0.00    -0.027 C 
BRANCH  16  17
ATOM     17  N   UNL     1     -38.617  20.175   0.433  0.00  0.00    +0.384 N 
ATOM     18  H   UNL     1     -39.382  19.684   0.896  0.00  0.00    -0.089 HD
ATOM     19  H   UNL     1     -37.867  19.516   0.224  0.00  0.00    -0.089 HD
ATOM     20  H   UNL     1     -38.956  20.591  -0.433  0.00  0.00    -0.089 HD
ENDBRANCH  16  17
BRANCH  16  21
ATOM     21  C   UNL     1     -38.222  22.563   0.541  0.00  0.00    +0.007 C 
BRANCH  21  22
ATOM     22  C   UNL     1     -38.559  23.783   1.363  0.00  0.00    -0.024 C 
ATOM     23  C   UNL     1     -37.811  24.939   1.203  0.00  0.00    -0.004 C 
ATOM     24  C   UNL     1     -39.612  23.725   2.264  0.00  0.00    -0.004 C 
ATOM     25  C   UNL     1     -38.123  26.066   1.963  0.00  0.00    -0.000 C 
ATOM     26  C   UNL     1     -39.924  24.853   3.024  0.00  0.00    -0.000 C 
ATOM     27  C   UNL     1     -39.179  26.023   2.874  0.00  0.00    -0.000 C 
ENDBRANCH  21  22
ENDBRANCH  16  21
ENDBRANCH   1  16
TORSDOF 12
ENDMDL
MODEL 6
REMARK VINA RESULT:      -5.7      3.452      6.261
REMARK  Name = 192275
REMARK  12 active torsions:
REMARK  status: ('A' for Active; 'I' for Inactive)
REMARK    1  A    between atoms: C_1  and  O_2
REMARK    2  A    between atoms: C_1  and  C_5
REMARK    3  A    between atoms: C_1  and  C_16
REMARK    4  A    between atoms: C_5  and  C_6
REMARK    5  A    between atoms: C_6  and  C_7
REMARK    6  A    between atoms: C_7  and  C_9
REMARK    7  A    between atoms: C_7  and  C_12
REMARK    8  A    between atoms: C_9  and  O_10
REMARK    9  A    between atoms: C_12  and  C_13
REMARK   10  A    between atoms: C_16  and  N_17
REMARK   11  A    between atoms: C_16  and  C_21
REMARK   12  A    between atoms: C_21  and  C_22
REMARK                            x       y       z     vdW  Elec       q    Type
REMARK                         _______ _______ _______ _____ _____    ______ ____
ROOT
ATOM      1  C   UNL     1     -39.192  23.844   2.071  0.00  0.00    +0.148 C 
ENDROOT
BRANCH   1   2
ATOM      2  O   UNL     1     -40.596  23.697   1.864  0.00  0.00    -0.379 OA
ATOM      3  H   UNL     1     -41.066  23.895   2.689  0.00  0.00    +0.211 HD
ENDBRANCH   1   2
BRANCH   1   5
ATOM      4  O   UNL     1     -39.310  21.470   1.814  0.00  0.00    -0.294 OA
ATOM      5  C   UNL     1     -38.661  22.426   2.244  0.00  0.00    +0.176 C 
BRANCH   5   6
ATOM      6  C   UNL     1     -37.317  22.245   2.947  0.00  0.00    +0.078 C 
BRANCH   6   7
ATOM      7  C   UNL     1     -36.162  21.925   1.982  0.00  0.00    +0.106 C 
BRANCH   7   9
ATOM      8  O   UNL     1     -34.638  20.025   2.020  0.00  0.00    -0.250 OA
ATOM      9  C   UNL     1     -35.768  20.469   2.177  0.00  0.00    +0.314 C 
BRANCH   9  10
ATOM     10  O   UNL     1     -36.813  19.703   2.584  0.00  0.00    -0.480 OA
ATOM     11  H   UNL     1     -37.498  20.080   3.098  0.00  0.00    +0.295 HD
ENDBRANCH   9  10
ENDBRANCH   7   9
BRANCH   7  12
ATOM     12  C   UNL     1     -34.960  22.862   2.217  0.00  0.00    +0.012 C 
BRANCH  12  13
ATOM     13  C   UNL     1     -34.517  23.685   0.988  0.00  0.00    +0.001 C 
ATOM     14  C   UNL     1     -33.597  22.894   0.056  0.00  0.00    +0.000 C 
ATOM     15  C   UNL     1     -35.752  24.153   0.213  0.00  0.00    +0.000 C 
ENDBRANCH  12  13
ENDBRANCH   7  12
ENDBRANCH   6   7
ENDBRANCH   5   6
ENDBRANCH   1   5
BRANCH   1  16
ATOM     16  C   UNL     1     -38.932  24.771   3.273  0.00  0.00    -0.027 C 
BRANCH  16  17
ATOM     17  N   UNL     1     -40.210  25.402   3.649  0.00  0.00    +0.384 N 
ATOM     18  H   UNL     1     -40.921  24.681   3.773  0.00  0.00    -0.089 HD
ATOM     19  H   UNL     1     -40.501  26.045   2.913  0.00  0.00    -0.089 HD
ATOM     20  H   UNL     1     -40.091  25.915   4.522  0.00  0.00    -0.089 HD
ENDBRANCH  16  17
BRANCH  16  21
ATOM     21  C   UNL     1     -37.941  25.916   2.968  0.00  0.00    +0.007 C 
BRANCH  21  22
ATOM     22  C   UNL     1     -36.605  25.834   3.665  0.00  0.00    -0.024 C 
ATOM     23  C   UNL     1     -36.493  25.100   4.836  0.00  0.00    -0.004 C 
ATOM     24  C   UNL     1     -35.513  26.494   3.122  0.00  0.00    -0.004 C 
ATOM     25  C   UNL     1     -35.258  25.024   5.481  0.00  0.00    -0.000 C 
ATOM     26  C   UNL     1     -34.278  26.418   3.767  0.00  0.00    -0.000 C 
ATOM     27  C   UNL     1     -34.151  25.684   4.945  0.00  0.00    -0.000 C 
ENDBRANCH  21  22
ENDBRANCH  16  21
ENDBRANCH   1  16
TORSDOF 12
ENDMDL
MODEL 7
REMARK VINA RESULT:      -5.7      1.589      2.888
REMARK  Name = 192275
REMARK  12 active torsions:
REMARK  status: ('A' for Active; 'I' for Inactive)
REMARK    1  A    between atoms: C_1  and  O_2
REMARK    2  A    between atoms: C_1  and  C_5
REMARK    3  A    between atoms: C_1  and  C_16
REMARK    4  A    between atoms: C_5  and  C_6
REMARK    5  A    between atoms: C_6  and  C_7
REMARK    6  A    between atoms: C_7  and  C_9
REMARK    7  A    between atoms: C_7  and  C_12
REMARK    8  A    between atoms: C_9  and  O_10
REMARK    9  A    between atoms: C_12  and  C_13
REMARK   10  A    between atoms: C_16  and  N_17
REMARK   11  A    between atoms: C_16  and  C_21
REMARK   12  A    between atoms: C_21  and  C_22
REMARK                            x       y       z     vdW  Elec       q    Type
REMARK                         _______ _______ _______ _____ _____    ______ ____
ROOT
ATOM      1  C   UNL     1     -35.554  20.515   2.558  0.00  0.00    +0.148 C 
ENDROOT
BRANCH   1   2
ATOM      2  O   UNL     1     -36.754  19.800   2.849  0.00  0.00    -0.379 OA
ATOM      3  H   UNL     1     -36.780  18.987   2.321  0.00  0.00    +0.211 HD
ENDBRANCH   1   2
BRANCH   1   5
ATOM      4  O   UNL     1     -37.114  22.312   2.795  0.00  0.00    -0.294 OA
ATOM      5  C   UNL     1     -35.967  21.981   2.487  0.00  0.00    +0.176 C 
BRANCH   5   6
ATOM      6  C   UNL     1     -34.921  22.999   2.038  0.00  0.00    +0.078 C 
BRANCH   6   7
ATOM      7  C   UNL     1     -35.015  24.340   2.787  0.00  0.00    +0.106 C 
BRANCH   7   9
ATOM      8  O   UNL     1     -33.756  25.256   0.912  0.00  0.00    -0.250 OA
ATOM      9  C   UNL     1     -34.505  25.437   1.865  0.00  0.00    +0.314 C 
BRANCH   9  10
ATOM     10  O   UNL     1     -35.000  26.658   2.191  0.00  0.00    -0.480 OA
ATOM     11  H   UNL     1     -35.057  26.915   3.090  0.00  0.00    +0.295 HD
ENDBRANCH   9  10
ENDBRANCH   7   9
BRANCH   7  12
ATOM     12  C   UNL     1     -34.215  24.305   4.104  0.00  0.00    +0.012 C 
BRANCH  12  13
ATOM     13  C   UNL     1     -35.064  24.349   5.392  0.00  0.00    +0.001 C 
ATOM     14  C   UNL     1     -36.402  25.060   5.186  0.00  0.00    +0.000 C 
ATOM     15  C   UNL     1     -35.312  22.922   5.890  0.00  0.00    +0.000 C 
ENDBRANCH  12  13
ENDBRANCH   7  12
ENDBRANCH   6   7
ENDBRANCH   5   6
ENDBRANCH   1   5
BRANCH   1  16
ATOM     16  C   UNL     1     -34.917  19.971   1.266  0.00  0.00    -0.027 C 
BRANCH  16  17
ATOM     17  N   UNL     1     -35.910  19.119   0.590  0.00  0.00    +0.384 N 
ATOM     18  H   UNL     1     -36.850  19.435   0.832  0.00  0.00    -0.089 HD
ATOM     19  H   UNL     1     -35.790  18.151   0.890  0.00  0.00    -0.089 HD
ATOM     20  H   UNL     1     -35.780  19.181  -0.420  0.00  0.00    -0.089 HD
ENDBRANCH  16  17
BRANCH  16  21
ATOM     21  C   UNL     1     -33.670  19.093   1.514  0.00  0.00    +0.007 C 
BRANCH  21  22
ATOM     22  C   UNL     1     -32.432  19.474   0.739  0.00  0.00    -0.024 C 
ATOM     23  C   UNL     1     -32.399  20.682   0.061  0.00  0.00    -0.004 C 
ATOM     24  C   UNL     1     -31.349  18.607   0.721  0.00  0.00    -0.004 C 
ATOM     25  C   UNL     1     -31.255  21.033  -0.656  0.00  0.00    -0.000 C 
ATOM     26  C   UNL     1     -30.205  18.960   0.004  0.00  0.00    -0.000 C 
ATOM     27  C   UNL     1     -30.158  20.172  -0.684  0.00  0.00    -0.000 C 
ENDBRANCH  21  22
ENDBRANCH  16  21
ENDBRANCH   1  16
TORSDOF 12
ENDMDL
MODEL 8
REMARK VINA RESULT:      -5.6      1.624      2.460
REMARK  Name = 192275
REMARK  12 active torsions:
REMARK  status: ('A' for Active; 'I' for Inactive)
REMARK    1  A    between atoms: C_1  and  O_2
REMARK    2  A    between atoms: C_1  and  C_5
REMARK    3  A    between atoms: C_1  and  C_16
REMARK    4  A    between atoms: C_5  and  C_6
REMARK    5  A    between atoms: C_6  and  C_7
REMARK    6  A    between atoms: C_7  and  C_9
REMARK    7  A    between atoms: C_7  and  C_12
REMARK    8  A    between atoms: C_9  and  O_10
REMARK    9  A    between atoms: C_12  and  C_13
REMARK   10  A    between atoms: C_16  and  N_17
REMARK   11  A    between atoms: C_16  and  C_21
REMARK   12  A    between atoms: C_21  and  C_22
REMARK                            x       y       z     vdW  Elec       q    Type
REMARK                         _______ _______ _______ _____ _____    ______ ____
ROOT
ATOM      1  C   UNL     1     -36.035  22.592   0.976  0.00  0.00    +0.148 C 
ENDROOT
BRANCH   1   2
ATOM      2  O   UNL     1     -36.524  23.174  -0.231  0.00  0.00    -0.379 OA
ATOM      3  H   UNL     1     -37.493  23.139  -0.237  0.00  0.00    +0.211 HD
ENDBRANCH   1   2
BRANCH   1   5
ATOM      4  O   UNL     1     -36.537  24.764   1.841  0.00  0.00    -0.294 OA
ATOM      5  C   UNL     1     -36.444  23.559   2.082  0.00  0.00    +0.176 C 
BRANCH   5   6
ATOM      6  C   UNL     1     -36.736  22.982   3.465  0.00  0.00    +0.078 C 
BRANCH   6   7
ATOM      7  C   UNL     1     -35.470  22.752   4.310  0.00  0.00    +0.106 C 
BRANCH   7   9
ATOM      8  O   UNL     1     -35.283  20.395   3.720  0.00  0.00    -0.250 OA
ATOM      9  C   UNL     1     -35.344  21.261   4.584  0.00  0.00    +0.314 C 
BRANCH   9  10
ATOM     10  O   UNL     1     -35.271  20.985   5.911  0.00  0.00    -0.480 OA
ATOM     11  H   UNL     1     -35.170  20.100   6.200  0.00  0.00    +0.295 HD
ENDBRANCH   9  10
ENDBRANCH   7   9
BRANCH   7  12
ATOM     12  C   UNL     1     -35.520  23.556   5.625  0.00  0.00    +0.012 C 
BRANCH  12  13
ATOM     13  C   UNL     1     -34.921  24.977   5.551  0.00  0.00    +0.001 C 
ATOM     14  C   UNL     1     -33.893  25.120   4.428  0.00  0.00    +0.000 C 
ATOM     15  C   UNL     1     -36.047  25.996   5.351  0.00  0.00    +0.000 C 
ENDBRANCH  12  13
ENDBRANCH   7  12
ENDBRANCH   6   7
ENDBRANCH   5   6
ENDBRANCH   1   5
BRANCH   1  16
ATOM     16  C   UNL     1     -34.517  22.354   0.869  0.00  0.00    -0.027 C 
BRANCH  16  17
ATOM     17  N   UNL     1     -33.878  23.632   0.509  0.00  0.00    +0.384 N 
ATOM     18  H   UNL     1     -34.545  24.214   0.003  0.00  0.00    -0.089 HD
ATOM     19  H   UNL     1     -33.066  23.452  -0.081  0.00  0.00    -0.089 HD
ATOM     20  H   UNL     1     -33.582  24.114   1.358  0.00  0.00    -0.089 HD
ENDBRANCH  16  17
BRANCH  16  21
ATOM     21  C   UNL     1     -34.127  21.336  -0.224  0.00  0.00    +0.007 C 
BRANCH  21  22
ATOM     22  C   UNL     1     -33.203  20.224   0.210  0.00  0.00    -0.024 C 
ATOM     23  C   UNL     1     -31.866  20.270  -0.154  0.00  0.00    -0.004 C 
ATOM     24  C   UNL     1     -33.708  19.177   0.967  0.00  0.00    -0.004 C 
ATOM     25  C   UNL     1     -31.013  19.243   0.248  0.00  0.00    -0.000 C 
ATOM     26  C   UNL     1     -32.854  18.150   1.368  0.00  0.00    -0.000 C 
ATOM     27  C   UNL     1     -31.507  18.183   1.009  0.00  0.00    -0.000 C 
ENDBRANCH  21  22
ENDBRANCH  16  21
ENDBRANCH   1  16
TORSDOF 12
ENDMDL
MODEL 9
REMARK VINA RESULT:      -5.6      2.908      7.152
REMARK  Name = 192275
REMARK  12 active torsions:
REMARK  status: ('A' for Active; 'I' for Inactive)
REMARK    1  A    between atoms: C_1  and  O_2
REMARK    2  A    between atoms: C_1  and  C_5
REMARK    3  A    between atoms: C_1  and  C_16
REMARK    4  A    between atoms: C_5  and  C_6
REMARK    5  A    between atoms: C_6  and  C_7
REMARK    6  A    between atoms: C_7  and  C_9
REMARK    7  A    between atoms: C_7  and  C_12
REMARK    8  A    between atoms: C_9  and  O_10
REMARK    9  A    between atoms: C_12  and  C_13
REMARK   10  A    between atoms: C_16  and  N_17
REMARK   11  A    between atoms: C_16  and  C_21
REMARK   12  A    between atoms: C_21  and  C_22
REMARK                            x       y       z     vdW  Elec       q    Type
REMARK                         _______ _______ _______ _____ _____    ______ ____
ROOT
ATOM      1  C   UNL     1     -36.308  24.578   4.295  0.00  0.00    +0.148 C 
ENDROOT
BRANCH   1   2
ATOM      2  O   UNL     1     -37.707  24.778   4.490  0.00  0.00    -0.379 OA
ATOM      3  H   UNL     1     -38.078  25.234   3.718  0.00  0.00    +0.211 HD
ENDBRANCH   1   2
BRANCH   1   5
ATOM      4  O   UNL     1     -36.156  22.706   5.775  0.00  0.00    -0.294 OA
ATOM      5  C   UNL     1     -36.065  23.107   4.613  0.00  0.00    +0.176 C 
BRANCH   5   6
ATOM      6  C   UNL     1     -35.722  22.172   3.455  0.00  0.00    +0.078 C 
BRANCH   6   7
ATOM      7  C   UNL     1     -36.476  22.508   2.157  0.00  0.00    +0.106 C 
BRANCH   7   9
ATOM      8  O   UNL     1     -38.888  22.745   2.412  0.00  0.00    -0.250 OA
ATOM      9  C   UNL     1     -37.909  22.018   2.298  0.00  0.00    +0.314 C 
BRANCH   9  10
ATOM     10  O   UNL     1     -37.998  20.664   2.250  0.00  0.00    -0.480 OA
ATOM     11  H   UNL     1     -37.266  20.137   2.501  0.00  0.00    +0.295 HD
ENDBRANCH   9  10
ENDBRANCH   7   9
BRANCH   7  12
ATOM     12  C   UNL     1     -35.791  21.873   0.930  0.00  0.00    +0.012 C 
BRANCH  12  13
ATOM     13  C   UNL     1     -34.493  21.093   1.232  0.00  0.00    +0.001 C 
ATOM     14  C   UNL     1     -34.702  19.578   1.208  0.00  0.00    +0.000 C 
ATOM     15  C   UNL     1     -33.416  21.479   0.214  0.00  0.00    +0.000 C 
ENDBRANCH  12  13
ENDBRANCH   7  12
ENDBRANCH   6   7
ENDBRANCH   5   6
ENDBRANCH   1   5
BRANCH   1  16
ATOM     16  C   UNL     1     -35.509  25.558   5.174  0.00  0.00    -0.027 C 
BRANCH  16  17
ATOM     17  N   UNL     1     -35.974  26.924   4.873  0.00  0.00    +0.384 N 
ATOM     18  H   UNL     1     -36.854  27.098   5.358  0.00  0.00    -0.089 HD
ATOM     19  H   UNL     1     -36.114  27.023   3.868  0.00  0.00    -0.089 HD
ATOM     20  H   UNL     1     -35.274  27.597   5.187  0.00  0.00    -0.089 HD
ENDBRANCH  16  17
BRANCH  16  21
ATOM     21  C   UNL     1     -33.989  25.533   4.902  0.00  0.00    +0.007 C 
BRANCH  21  22
ATOM     22  C   UNL     1     -33.222  26.758   5.337  0.00  0.00    -0.024 C 
ATOM     23  C   UNL     1     -32.797  27.669   4.383  0.00  0.00    -0.004 C 
ATOM     24  C   UNL     1     -32.957  26.951   6.685  0.00  0.00    -0.004 C 
ATOM     25  C   UNL     1     -32.088  28.801   4.785  0.00  0.00    -0.000 C 
ATOM     26  C   UNL     1     -32.248  28.084   7.087  0.00  0.00    -0.000 C 
ATOM     27  C   UNL     1     -31.814  29.008   6.137  0.00  0.00    -0.000 C 
ENDBRANCH  21  22
ENDBRANCH  16  21
ENDBRANCH   1  16
TORSDOF 12
ENDMDL
