MODEL 1
REMARK VINA RESULT:      -7.5      0.000      0.000
REMARK  Name = 5321010
REMARK  4 active torsions:
REMARK  status: ('A' for Active; 'I' for Inactive)
REMARK    1  A    between atoms: C_7  and  O_23
REMARK    2  A    between atoms: C_8  and  O_25
REMARK    3  A    between atoms: C_9  and  O_27
REMARK    4  A    between atoms: C_11  and  O_29
REMARK                            x       y       z     vdW  Elec       q    Type
REMARK                         _______ _______ _______ _____ _____    ______ ____
ROOT
ATOM      1  O   UNL     1     -37.076  23.939   1.467  0.00  0.00    -0.332 OA
ATOM      2  O   UNL     1     -33.448  25.853   3.191  0.00  0.00    -0.291 OA
ATOM      3  C   UNL     1     -35.420  22.185   2.059  0.00  0.00    +0.055 C 
ATOM      4  C   UNL     1     -35.504  24.486   3.210  0.00  0.00    +0.129 C 
ATOM      5  C   UNL     1     -35.065  22.987   3.389  0.00  0.00    +0.019 C 
ATOM      6  C   UNL     1     -34.475  22.778   0.947  0.00  0.00    +0.036 C 
ATOM      7  C   UNL     1     -35.895  24.728   1.736  0.00  0.00    +0.217 C 
ATOM      8  C   UNL     1     -34.859  24.253   0.699  0.00  0.00    +0.162 C 
ATOM      9  C   UNL     1     -36.625  24.830   4.245  0.00  0.00    +0.126 C 
ATOM     10  C   UNL     1     -34.287  21.932  -0.368  0.00  0.00    +0.003 C 
ATOM     11  C   UNL     1     -35.176  20.662   2.237  0.00  0.00    +0.113 C 
ATOM     12  C   UNL     1     -36.890  22.539   1.728  0.00  0.00    +0.147 C 
ATOM     13  C   UNL     1     -35.601  22.362   4.703  0.00  0.00    +0.001 C 
ATOM     14  C   UNL     1     -35.879  24.761   5.586  0.00  0.00    +0.053 C 
ATOM     15  C   UNL     1     -34.390  25.363   3.786  0.00  0.00    +0.175 C 
ATOM     16  C   UNL     1     -35.548  23.299   5.923  0.00  0.00    +0.007 C 
ATOM     17  C   UNL     1     -34.006  20.463   0.016  0.00  0.00    +0.003 C 
ATOM     18  C   UNL     1     -35.073  19.883   0.929  0.00  0.00    +0.029 C 
ATOM     19  C   UNL     1     -34.611  25.509   5.256  0.00  0.00    +0.015 C 
ATOM     20  C   UNL     1     -33.051  22.458  -1.140  0.00  0.00    +0.000 C 
ATOM     21  C   UNL     1     -35.470  21.972  -1.359  0.00  0.00    +0.000 C 
ATOM     22  C   UNL     1     -33.835  26.239   6.057  0.00  0.00    -0.002 C 
ENDROOT
BRANCH   7  23
ATOM     23  O   UNL     1     -36.167  26.098   1.454  0.00  0.00    -0.361 OA
ATOM     24  H   UNL     1     -35.340  26.605   1.477  0.00  0.00    +0.213 HD
ENDBRANCH   7  23
BRANCH   8  25
ATOM     25  O   UNL     1     -33.678  25.047   0.705  0.00  0.00    -0.380 OA
ATOM     26  H   UNL     1     -33.231  24.957   1.560  0.00  0.00    +0.211 HD
ENDBRANCH   8  25
BRANCH   9  27
ATOM     27  O   UNL     1     -37.214  26.112   4.047  0.00  0.00    -0.384 OA
ATOM     28  H   UNL     1     -37.959  26.224   4.658  0.00  0.00    +0.210 HD
ENDBRANCH   9  27
BRANCH  11  29
ATOM     29  O   UNL     1     -36.189  20.044   3.029  0.00  0.00    -0.384 OA
ATOM     30  H   UNL     1     -36.230  20.476   3.895  0.00  0.00    +0.210 HD
ENDBRANCH  11  29
TORSDOF 4
ENDMDL
MODEL 2
REMARK VINA RESULT:      -6.9      2.302      4.434
REMARK  Name = 5321010
REMARK  4 active torsions:
REMARK  status: ('A' for Active; 'I' for Inactive)
REMARK    1  A    between atoms: C_7  and  O_23
REMARK    2  A    between atoms: C_8  and  O_25
REMARK    3  A    between atoms: C_9  and  O_27
REMARK    4  A    between atoms: C_11  and  O_29
REMARK                            x       y       z     vdW  Elec       q    Type
REMARK                         _______ _______ _______ _____ _____    ______ ____
ROOT
ATOM      1  O   UNL     1     -35.766  26.846   2.526  0.00  0.00    -0.332 OA
ATOM      2  O   UNL     1     -34.068  24.573   5.953  0.00  0.00    -0.291 OA
ATOM      3  C   UNL     1     -33.809  25.526   1.752  0.00  0.00    +0.055 C 
ATOM      4  C   UNL     1     -35.231  24.869   3.795  0.00  0.00    +0.129 C 
ATOM      5  C   UNL     1     -34.279  24.314   2.673  0.00  0.00    +0.019 C 
ATOM      6  C   UNL     1     -32.905  26.428   2.674  0.00  0.00    +0.036 C 
ATOM      7  C   UNL     1     -35.190  26.412   3.778  0.00  0.00    +0.217 C 
ATOM      8  C   UNL     1     -33.778  27.029   3.797  0.00  0.00    +0.162 C 
ATOM      9  C   UNL     1     -36.658  24.254   3.621  0.00  0.00    +0.126 C 
ATOM     10  C   UNL     1     -31.963  27.470   1.964  0.00  0.00    +0.003 C 
ATOM     11  C   UNL     1     -33.011  25.021   0.519  0.00  0.00    +0.113 C 
ATOM     12  C   UNL     1     -35.096  26.300   1.378  0.00  0.00    +0.147 C 
ATOM     13  C   UNL     1     -34.889  23.104   1.918  0.00  0.00    +0.001 C 
ATOM     14  C   UNL     1     -36.429  22.771   3.949  0.00  0.00    +0.053 C 
ATOM     15  C   UNL     1     -34.848  24.178   5.106  0.00  0.00    +0.175 C 
ATOM     16  C   UNL     1     -35.636  22.103   2.817  0.00  0.00    +0.007 C 
ATOM     17  C   UNL     1     -31.222  26.770   0.803  0.00  0.00    +0.003 C 
ATOM     18  C   UNL     1     -32.172  26.091  -0.170  0.00  0.00    +0.029 C 
ATOM     19  C   UNL     1     -35.570  22.873   5.185  0.00  0.00    +0.015 C 
ATOM     20  C   UNL     1     -30.893  27.960   2.972  0.00  0.00    +0.000 C 
ATOM     21  C   UNL     1     -32.661  28.736   1.420  0.00  0.00    +0.000 C 
ATOM     22  C   UNL     1     -35.483  22.035   6.218  0.00  0.00    -0.002 C 
ENDROOT
BRANCH   7  23
ATOM     23  O   UNL     1     -35.913  26.996   4.858  0.00  0.00    -0.361 OA
ATOM     24  H   UNL     1     -36.426  26.309   5.314  0.00  0.00    +0.213 HD
ENDBRANCH   7  23
BRANCH   8  25
ATOM     25  O   UNL     1     -33.119  26.845   5.045  0.00  0.00    -0.380 OA
ATOM     26  H   UNL     1     -32.541  26.067   4.995  0.00  0.00    +0.211 HD
ENDBRANCH   8  25
BRANCH   9  27
ATOM     27  O   UNL     1     -37.639  24.828   4.480  0.00  0.00    -0.384 OA
ATOM     28  H   UNL     1     -37.246  25.565   4.972  0.00  0.00    +0.210 HD
ENDBRANCH   9  27
BRANCH  11  29
ATOM     29  O   UNL     1     -33.860  24.436  -0.468  0.00  0.00    -0.384 OA
ATOM     30  H   UNL     1     -34.537  25.078  -0.733  0.00  0.00    +0.210 HD
ENDBRANCH  11  29
TORSDOF 4
ENDMDL
MODEL 3
REMARK VINA RESULT:      -6.9      1.718      5.638
REMARK  Name = 5321010
REMARK  4 active torsions:
REMARK  status: ('A' for Active; 'I' for Inactive)
REMARK    1  A    between atoms: C_7  and  O_23
REMARK    2  A    between atoms: C_8  and  O_25
REMARK    3  A    between atoms: C_9  and  O_27
REMARK    4  A    between atoms: C_11  and  O_29
REMARK                            x       y       z     vdW  Elec       q    Type
REMARK                         _______ _______ _______ _____ _____    ______ ____
ROOT
ATOM      1  O   UNL     1     -37.601  22.878   1.009  0.00  0.00    -0.332 OA
ATOM      2  O   UNL     1     -34.875  20.272   3.370  0.00  0.00    -0.291 OA
ATOM      3  C   UNL     1     -35.505  24.115   1.510  0.00  0.00    +0.055 C 
ATOM      4  C   UNL     1     -35.630  21.546   1.394  0.00  0.00    +0.129 C 
ATOM      5  C   UNL     1     -34.672  22.783   1.244  0.00  0.00    +0.019 C 
ATOM      6  C   UNL     1     -35.902  24.063   3.033  0.00  0.00    +0.036 C 
ATOM      7  C   UNL     1     -36.976  22.015   1.986  0.00  0.00    +0.217 C 
ATOM      8  C   UNL     1     -36.865  22.877   3.260  0.00  0.00    +0.162 C 
ATOM      9  C   UNL     1     -35.747  20.804   0.022  0.00  0.00    +0.126 C 
ATOM     10  C   UNL     1     -36.371  25.409   3.703  0.00  0.00    +0.003 C 
ATOM     11  C   UNL     1     -34.660  25.380   1.201  0.00  0.00    +0.113 C 
ATOM     12  C   UNL     1     -36.781  23.999   0.641  0.00  0.00    +0.147 C 
ATOM     13  C   UNL     1     -33.869  22.757  -0.083  0.00  0.00    +0.001 C 
ATOM     14  C   UNL     1     -34.335  20.230  -0.173  0.00  0.00    +0.053 C 
ATOM     15  C   UNL     1     -34.870  20.466   2.168  0.00  0.00    +0.175 C 
ATOM     16  C   UNL     1     -33.350  21.366  -0.487  0.00  0.00    +0.007 C 
ATOM     17  C   UNL     1     -35.381  26.532   3.321  0.00  0.00    +0.003 C 
ATOM     18  C   UNL     1     -35.201  26.666   1.818  0.00  0.00    +0.029 C 
ATOM     19  C   UNL     1     -34.052  19.674   1.201  0.00  0.00    +0.015 C 
ATOM     20  C   UNL     1     -36.328  25.253   5.244  0.00  0.00    +0.000 C 
ATOM     21  C   UNL     1     -37.803  25.864   3.350  0.00  0.00    +0.000 C 
ATOM     22  C   UNL     1     -33.293  18.634   1.545  0.00  0.00    -0.002 C 
ENDROOT
BRANCH   7  23
ATOM     23  O   UNL     1     -37.853  20.934   2.291  0.00  0.00    -0.361 OA
ATOM     24  H   UNL     1     -38.770  21.204   2.124  0.00  0.00    +0.213 HD
ENDBRANCH   7  23
BRANCH   8  25
ATOM     25  O   UNL     1     -36.423  22.130   4.387  0.00  0.00    -0.380 OA
ATOM     26  H   UNL     1     -36.998  22.316   5.145  0.00  0.00    +0.211 HD
ENDBRANCH   8  25
BRANCH   9  27
ATOM     27  O   UNL     1     -36.730  19.774   0.009  0.00  0.00    -0.384 OA
ATOM     28  H   UNL     1     -36.987  19.583  -0.906  0.00  0.00    +0.210 HD
ENDBRANCH   9  27
BRANCH  11  29
ATOM     29  O   UNL     1     -34.516  25.602  -0.201  0.00  0.00    -0.384 OA
ATOM     30  H   UNL     1     -34.518  26.555  -0.379  0.00  0.00    +0.210 HD
ENDBRANCH  11  29
TORSDOF 4
ENDMDL
MODEL 4
REMARK VINA RESULT:      -6.6      1.669      2.043
REMARK  Name = 5321010
REMARK  4 active torsions:
REMARK  status: ('A' for Active; 'I' for Inactive)
REMARK    1  A    between atoms: C_7  and  O_23
REMARK    2  A    between atoms: C_8  and  O_25
REMARK    3  A    between atoms: C_9  and  O_27
REMARK    4  A    between atoms: C_11  and  O_29
REMARK                            x       y       z     vdW  Elec       q    Type
REMARK                         _______ _______ _______ _____ _____    ______ ____
ROOT
ATOM      1  O   UNL     1     -38.121  24.382   3.353  0.00  0.00    -0.332 OA
ATOM      2  O   UNL     1     -34.643  26.931   2.260  0.00  0.00    -0.291 OA
ATOM      3  C   UNL     1     -36.271  22.943   2.528  0.00  0.00    +0.055 C 
ATOM      4  C   UNL     1     -35.890  25.260   3.583  0.00  0.00    +0.129 C 
ATOM      5  C   UNL     1     -35.229  23.861   3.309  0.00  0.00    +0.019 C 
ATOM      6  C   UNL     1     -36.448  23.618   1.116  0.00  0.00    +0.036 C 
ATOM      7  C   UNL     1     -37.214  25.360   2.796  0.00  0.00    +0.217 C 
ATOM      8  C   UNL     1     -37.114  24.999   1.301  0.00  0.00    +0.162 C 
ATOM      9  C   UNL     1     -36.032  25.479   5.126  0.00  0.00    +0.126 C 
ATOM     10  C   UNL     1     -37.087  22.744  -0.027  0.00  0.00    +0.003 C 
ATOM     11  C   UNL     1     -35.746  21.489   2.385  0.00  0.00    +0.113 C 
ATOM     12  C   UNL     1     -37.599  23.044   3.317  0.00  0.00    +0.147 C 
ATOM     13  C   UNL     1     -34.617  23.230   4.587  0.00  0.00    +0.001 C 
ATOM     14  C   UNL     1     -34.571  25.599   5.586  0.00  0.00    +0.053 C 
ATOM     15  C   UNL     1     -34.833  26.331   3.303  0.00  0.00    +0.175 C 
ATOM     16  C   UNL     1     -33.885  24.227   5.503  0.00  0.00    +0.007 C 
ATOM     17  C   UNL     1     -36.403  21.359  -0.043  0.00  0.00    +0.003 C 
ATOM     18  C   UNL     1     -36.451  20.668   1.310  0.00  0.00    +0.029 C 
ATOM     19  C   UNL     1     -34.006  26.518   4.532  0.00  0.00    +0.015 C 
ATOM     20  C   UNL     1     -36.814  23.415  -1.396  0.00  0.00    +0.000 C 
ATOM     21  C   UNL     1     -38.616  22.544   0.064  0.00  0.00    +0.000 C 
ATOM     22  C   UNL     1     -33.014  27.403   4.635  0.00  0.00    -0.002 C 
ENDROOT
BRANCH   7  23
ATOM     23  O   UNL     1     -37.808  26.653   2.873  0.00  0.00    -0.361 OA
ATOM     24  H   UNL     1     -38.446  26.673   3.604  0.00  0.00    +0.213 HD
ENDBRANCH   7  23
BRANCH   8  25
ATOM     25  O   UNL     1     -36.388  25.968   0.554  0.00  0.00    -0.380 OA
ATOM     26  H   UNL     1     -36.454  25.764  -0.392  0.00  0.00    +0.211 HD
ENDBRANCH   8  25
BRANCH   9  27
ATOM     27  O   UNL     1     -36.781  26.640   5.474  0.00  0.00    -0.384 OA
ATOM     28  H   UNL     1     -37.637  26.375   5.844  0.00  0.00    +0.210 HD
ENDBRANCH   9  27
BRANCH  11  29
ATOM     29  O   UNL     1     -35.834  20.762   3.610  0.00  0.00    -0.384 OA
ATOM     30  H   UNL     1     -35.205  20.024   3.593  0.00  0.00    +0.210 HD
ENDBRANCH  11  29
TORSDOF 4
ENDMDL
MODEL 5
REMARK VINA RESULT:      -6.6      2.128      5.140
REMARK  Name = 5321010
REMARK  4 active torsions:
REMARK  status: ('A' for Active; 'I' for Inactive)
REMARK    1  A    between atoms: C_7  and  O_23
REMARK    2  A    between atoms: C_8  and  O_25
REMARK    3  A    between atoms: C_9  and  O_27
REMARK    4  A    between atoms: C_11  and  O_29
REMARK                            x       y       z     vdW  Elec       q    Type
REMARK                         _______ _______ _______ _____ _____    ______ ____
ROOT
ATOM      1  O   UNL     1     -35.627  24.304   1.198  0.00  0.00    -0.332 OA
ATOM      2  O   UNL     1     -39.751  25.637   2.203  0.00  0.00    -0.291 OA
ATOM      3  C   UNL     1     -36.454  23.022   3.158  0.00  0.00    +0.055 C 
ATOM      4  C   UNL     1     -38.017  24.072   1.403  0.00  0.00    +0.129 C 
ATOM      5  C   UNL     1     -37.890  22.929   2.475  0.00  0.00    +0.019 C 
ATOM      6  C   UNL     1     -36.461  24.371   3.970  0.00  0.00    +0.036 C 
ATOM      7  C   UNL     1     -36.822  25.039   1.547  0.00  0.00    +0.217 C 
ATOM      8  C   UNL     1     -36.565  25.551   2.978  0.00  0.00    +0.162 C 
ATOM      9  C   UNL     1     -38.174  23.440  -0.019  0.00  0.00    +0.126 C 
ATOM     10  C   UNL     1     -35.356  24.555   5.075  0.00  0.00    +0.003 C 
ATOM     11  C   UNL     1     -36.198  21.813   4.099  0.00  0.00    +0.113 C 
ATOM     12  C   UNL     1     -35.437  23.125   1.996  0.00  0.00    +0.147 C 
ATOM     13  C   UNL     1     -38.267  21.536   1.908  0.00  0.00    +0.001 C 
ATOM     14  C   UNL     1     -39.556  22.773   0.059  0.00  0.00    +0.053 C 
ATOM     15  C   UNL     1     -39.417  24.675   1.536  0.00  0.00    +0.175 C 
ATOM     16  C   UNL     1     -39.487  21.537   0.969  0.00  0.00    +0.007 C 
ATOM     17  C   UNL     1     -35.286  23.274   5.935  0.00  0.00    +0.003 C 
ATOM     18  C   UNL     1     -35.068  22.022   5.101  0.00  0.00    +0.029 C 
ATOM     19  C   UNL     1     -40.368  23.855   0.726  0.00  0.00    +0.015 C 
ATOM     20  C   UNL     1     -35.758  25.723   6.010  0.00  0.00    +0.000 C 
ATOM     21  C   UNL     1     -33.940  24.884   4.553  0.00  0.00    +0.000 C 
ATOM     22  C   UNL     1     -41.666  24.128   0.601  0.00  0.00    -0.002 C 
ENDROOT
BRANCH   7  23
ATOM     23  O   UNL     1     -36.933  26.186   0.709  0.00  0.00    -0.361 OA
ATOM     24  H   UNL     1     -36.053  26.444   0.395  0.00  0.00    +0.213 HD
ENDBRANCH   7  23
BRANCH   8  25
ATOM     25  O   UNL     1     -37.576  26.446   3.427  0.00  0.00    -0.380 OA
ATOM     26  H   UNL     1     -37.174  27.296   3.666  0.00  0.00    +0.211 HD
ENDBRANCH   8  25
BRANCH   9  27
ATOM     27  O   UNL     1     -38.119  24.391  -1.078  0.00  0.00    -0.384 OA
ATOM     28  H   UNL     1     -37.205  24.694  -1.194  0.00  0.00    +0.210 HD
ENDBRANCH   9  27
BRANCH  11  29
ATOM     29  O   UNL     1     -35.914  20.617   3.372  0.00  0.00    -0.384 OA
ATOM     30  H   UNL     1     -35.072  20.718   2.902  0.00  0.00    +0.210 HD
ENDBRANCH  11  29
TORSDOF 4
ENDMDL
MODEL 6
REMARK VINA RESULT:      -6.3      1.524      2.030
REMARK  Name = 5321010
REMARK  4 active torsions:
REMARK  status: ('A' for Active; 'I' for Inactive)
REMARK    1  A    between atoms: C_7  and  O_23
REMARK    2  A    between atoms: C_8  and  O_25
REMARK    3  A    between atoms: C_9  and  O_27
REMARK    4  A    between atoms: C_11  and  O_29
REMARK                            x       y       z     vdW  Elec       q    Type
REMARK                         _______ _______ _______ _____ _____    ______ ____
ROOT
ATOM      1  O   UNL     1     -36.639  25.079   1.792  0.00  0.00    -0.332 OA
ATOM      2  O   UNL     1     -32.353  26.271   1.846  0.00  0.00    -0.291 OA
ATOM      3  C   UNL     1     -35.305  23.312   2.919  0.00  0.00    +0.055 C 
ATOM      4  C   UNL     1     -34.571  25.777   2.812  0.00  0.00    +0.129 C 
ATOM      5  C   UNL     1     -34.435  24.442   3.630  0.00  0.00    +0.019 C 
ATOM      6  C   UNL     1     -34.595  23.043   1.540  0.00  0.00    +0.036 C 
ATOM      7  C   UNL     1     -35.288  25.484   1.477  0.00  0.00    +0.217 C 
ATOM      8  C   UNL     1     -34.703  24.312   0.665  0.00  0.00    +0.162 C 
ATOM      9  C   UNL     1     -35.264  26.866   3.697  0.00  0.00    +0.126 C 
ATOM     10  C   UNL     1     -34.962  21.710   0.787  0.00  0.00    +0.003 C 
ATOM     11  C   UNL     1     -35.358  22.018   3.776  0.00  0.00    +0.113 C 
ATOM     12  C   UNL     1     -36.697  23.943   2.669  0.00  0.00    +0.147 C 
ATOM     13  C   UNL     1     -34.714  24.640   5.144  0.00  0.00    +0.001 C 
ATOM     14  C   UNL     1     -34.213  27.135   4.785  0.00  0.00    +0.053 C 
ATOM     15  C   UNL     1     -33.179  26.409   2.729  0.00  0.00    +0.175 C 
ATOM     16  C   UNL     1     -34.127  25.933   5.737  0.00  0.00    +0.007 C 
ATOM     17  C   UNL     1     -34.912  20.536   1.790  0.00  0.00    +0.003 C 
ATOM     18  C   UNL     1     -35.788  20.772   3.009  0.00  0.00    +0.029 C 
ATOM     19  C   UNL     1     -32.952  27.225   3.960  0.00  0.00    +0.015 C 
ATOM     20  C   UNL     1     -33.901  21.434  -0.308  0.00  0.00    +0.000 C 
ATOM     21  C   UNL     1     -36.333  21.702   0.077  0.00  0.00    +0.000 C 
ATOM     22  C   UNL     1     -31.848  27.935   4.190  0.00  0.00    -0.002 C 
ENDROOT
BRANCH   7  23
ATOM     23  O   UNL     1     -35.323  26.614   0.609  0.00  0.00    -0.361 OA
ATOM     24  H   UNL     1     -34.546  26.601   0.028  0.00  0.00    +0.213 HD
ENDBRANCH   7  23
BRANCH   8  25
ATOM     25  O   UNL     1     -33.423  24.610   0.120  0.00  0.00    -0.380 OA
ATOM     26  H   UNL     1     -33.226  23.993  -0.601  0.00  0.00    +0.211 HD
ENDBRANCH   8  25
BRANCH   9  27
ATOM     27  O   UNL     1     -35.592  28.057   2.989  0.00  0.00    -0.384 OA
ATOM     28  H   UNL     1     -36.444  28.397   3.303  0.00  0.00    +0.210 HD
ENDBRANCH   9  27
BRANCH  11  29
ATOM     29  O   UNL     1     -36.225  22.153   4.901  0.00  0.00    -0.384 OA
ATOM     30  H   UNL     1     -37.134  22.292   4.593  0.00  0.00    +0.210 HD
ENDBRANCH  11  29
TORSDOF 4
ENDMDL
MODEL 7
REMARK VINA RESULT:      -6.2      2.163      4.690
REMARK  Name = 5321010
REMARK  4 active torsions:
REMARK  status: ('A' for Active; 'I' for Inactive)
REMARK    1  A    between atoms: C_7  and  O_23
REMARK    2  A    between atoms: C_8  and  O_25
REMARK    3  A    between atoms: C_9  and  O_27
REMARK    4  A    between atoms: C_11  and  O_29
REMARK                            x       y       z     vdW  Elec       q    Type
REMARK                         _______ _______ _______ _____ _____    ______ ____
ROOT
ATOM      1  O   UNL     1     -37.623  25.450   1.739  0.00  0.00    -0.332 OA
ATOM      2  O   UNL     1     -35.462  24.277   5.446  0.00  0.00    -0.291 OA
ATOM      3  C   UNL     1     -35.175  25.564   1.337  0.00  0.00    +0.055 C 
ATOM      4  C   UNL     1     -36.239  24.037   3.115  0.00  0.00    +0.129 C 
ATOM      5  C   UNL     1     -34.987  24.228   2.185  0.00  0.00    +0.019 C 
ATOM      6  C   UNL     1     -35.112  26.738   2.386  0.00  0.00    +0.036 C 
ATOM      7  C   UNL     1     -37.099  25.319   3.079  0.00  0.00    +0.217 C 
ATOM      8  C   UNL     1     -36.329  26.630   3.331  0.00  0.00    +0.162 C 
ATOM      9  C   UNL     1     -37.000  22.732   2.708  0.00  0.00    +0.126 C 
ATOM     10  C   UNL     1     -34.856  28.189   1.832  0.00  0.00    +0.003 C 
ATOM     11  C   UNL     1     -34.057  25.717   0.270  0.00  0.00    +0.113 C 
ATOM     12  C   UNL     1     -36.598  25.488   0.733  0.00  0.00    +0.147 C 
ATOM     13  C   UNL     1     -34.661  22.958   1.356  0.00  0.00    +0.001 C 
ATOM     14  C   UNL     1     -36.006  21.627   3.096  0.00  0.00    +0.053 C 
ATOM     15  C   UNL     1     -35.730  23.581   4.484  0.00  0.00    +0.175 C 
ATOM     16  C   UNL     1     -34.813  21.636   2.129  0.00  0.00    +0.007 C 
ATOM     17  C   UNL     1     -33.682  28.143   0.828  0.00  0.00    +0.003 C 
ATOM     18  C   UNL     1     -33.903  27.130  -0.283  0.00  0.00    +0.029 C 
ATOM     19  C   UNL     1     -35.563  22.097   4.460  0.00  0.00    +0.015 C 
ATOM     20  C   UNL     1     -34.435  29.114   3.000  0.00  0.00    +0.000 C 
ATOM     21  C   UNL     1     -36.067  28.866   1.154  0.00  0.00    +0.000 C 
ATOM     22  C   UNL     1     -35.162  21.375   5.507  0.00  0.00    -0.002 C 
ENDROOT
BRANCH   7  23
ATOM     23  O   UNL     1     -38.179  25.286   4.008  0.00  0.00    -0.361 OA
ATOM     24  H   UNL     1     -38.442  24.366   4.167  0.00  0.00    +0.213 HD
ENDBRANCH   7  23
BRANCH   8  25
ATOM     25  O   UNL     1     -35.882  26.750   4.677  0.00  0.00    -0.380 OA
ATOM     26  H   UNL     1     -36.206  25.996   5.194  0.00  0.00    +0.211 HD
ENDBRANCH   8  25
BRANCH   9  27
ATOM     27  O   UNL     1     -38.247  22.563   3.375  0.00  0.00    -0.384 OA
ATOM     28  H   UNL     1     -38.203  21.786   3.953  0.00  0.00    +0.210 HD
ENDBRANCH   9  27
BRANCH  11  29
ATOM     29  O   UNL     1     -34.250  24.839  -0.839  0.00  0.00    -0.384 OA
ATOM     30  H   UNL     1     -33.940  23.950  -0.604  0.00  0.00    +0.210 HD
ENDBRANCH  11  29
TORSDOF 4
ENDMDL
MODEL 8
REMARK VINA RESULT:      -6.1      9.701     11.522
REMARK  Name = 5321010
REMARK  4 active torsions:
REMARK  status: ('A' for Active; 'I' for Inactive)
REMARK    1  A    between atoms: C_7  and  O_23
REMARK    2  A    between atoms: C_8  and  O_25
REMARK    3  A    between atoms: C_9  and  O_27
REMARK    4  A    between atoms: C_11  and  O_29
REMARK                            x       y       z     vdW  Elec       q    Type
REMARK                         _______ _______ _______ _____ _____    ______ ____
ROOT
ATOM      1  O   UNL     1     -46.965  29.383   3.900  0.00  0.00    -0.332 OA
ATOM      2  O   UNL     1     -43.056  30.196   5.863  0.00  0.00    -0.291 OA
ATOM      3  C   UNL     1     -45.834  27.231   4.407  0.00  0.00    +0.055 C 
ATOM      4  C   UNL     1     -45.389  29.399   5.722  0.00  0.00    +0.129 C 
ATOM      5  C   UNL     1     -45.351  27.829   5.803  0.00  0.00    +0.019 C 
ATOM      6  C   UNL     1     -44.720  27.634   3.370  0.00  0.00    +0.036 C 
ATOM      7  C   UNL     1     -45.638  29.827   4.260  0.00  0.00    +0.217 C 
ATOM      8  C   UNL     1     -44.708  29.172   3.220  0.00  0.00    +0.162 C 
ATOM      9  C   UNL     1     -46.434  29.950   6.748  0.00  0.00    +0.126 C 
ATOM     10  C   UNL     1     -44.690  26.855   2.002  0.00  0.00    +0.003 C 
ATOM     11  C   UNL     1     -45.990  25.688   4.479  0.00  0.00    +0.113 C 
ATOM     12  C   UNL     1     -47.151  27.968   4.062  0.00  0.00    +0.147 C 
ATOM     13  C   UNL     1     -46.087  27.278   7.052  0.00  0.00    +0.001 C 
ATOM     14  C   UNL     1     -45.792  29.606   8.101  0.00  0.00    +0.053 C 
ATOM     15  C   UNL     1     -44.118  29.925   6.394  0.00  0.00    +0.175 C 
ATOM     16  C   UNL     1     -45.856  28.090   8.338  0.00  0.00    +0.007 C 
ATOM     17  C   UNL     1     -44.806  25.341   2.284  0.00  0.00    +0.003 C 
ATOM     18  C   UNL     1     -46.026  24.994   3.121  0.00  0.00    +0.029 C 
ATOM     19  C   UNL     1     -44.363  30.027   7.863  0.00  0.00    +0.015 C 
ATOM     20  C   UNL     1     -43.328  27.097   1.306  0.00  0.00    +0.000 C 
ATOM     21  C   UNL     1     -45.778  27.259   0.983  0.00  0.00    +0.000 C 
ATOM     22  C   UNL     1     -43.466  30.483   8.738  0.00  0.00    -0.002 C 
ENDROOT
BRANCH   7  23
ATOM     23  O   UNL     1     -45.543  31.236   4.073  0.00  0.00    -0.361 OA
ATOM     24  H   UNL     1     -44.919  31.608   4.716  0.00  0.00    +0.213 HD
ENDBRANCH   7  23
BRANCH   8  25
ATOM     25  O   UNL     1     -43.366  29.637   3.319  0.00  0.00    -0.380 OA
ATOM     26  H   UNL     1     -43.347  30.469   3.816  0.00  0.00    +0.211 HD
ENDBRANCH   8  25
BRANCH   9  27
ATOM     27  O   UNL     1     -46.671  31.349   6.629  0.00  0.00    -0.384 OA
ATOM     28  H   UNL     1     -45.842  31.801   6.411  0.00  0.00    +0.210 HD
ENDBRANCH   9  27
BRANCH  11  29
ATOM     29  O   UNL     1     -47.162  25.298   5.194  0.00  0.00    -0.384 OA
ATOM     30  H   UNL     1     -47.570  26.081   5.596  0.00  0.00    +0.210 HD
ENDBRANCH  11  29
TORSDOF 4
ENDMDL
MODEL 9
REMARK VINA RESULT:      -6.0      2.062      4.182
REMARK  Name = 5321010
REMARK  4 active torsions:
REMARK  status: ('A' for Active; 'I' for Inactive)
REMARK    1  A    between atoms: C_7  and  O_23
REMARK    2  A    between atoms: C_8  and  O_25
REMARK    3  A    between atoms: C_9  and  O_27
REMARK    4  A    between atoms: C_11  and  O_29
REMARK                            x       y       z     vdW  Elec       q    Type
REMARK                         _______ _______ _______ _____ _____    ______ ____
ROOT
ATOM      1  O   UNL     1     -34.977  23.208   3.103  0.00  0.00    -0.332 OA
ATOM      2  O   UNL     1     -39.391  22.778   2.752  0.00  0.00    -0.291 OA
ATOM      3  C   UNL     1     -35.620  23.234   0.704  0.00  0.00    +0.055 C 
ATOM      4  C   UNL     1     -37.216  23.938   2.597  0.00  0.00    +0.129 C 
ATOM      5  C   UNL     1     -36.893  24.119   1.069  0.00  0.00    +0.019 C 
ATOM      6  C   UNL     1     -36.087  21.739   0.868  0.00  0.00    +0.036 C 
ATOM      7  C   UNL     1     -36.358  22.787   3.164  0.00  0.00    +0.217 C 
ATOM      8  C   UNL     1     -36.407  21.475   2.356  0.00  0.00    +0.162 C 
ATOM      9  C   UNL     1     -37.040  25.306   3.335  0.00  0.00    +0.126 C 
ATOM     10  C   UNL     1     -35.200  20.627   0.194  0.00  0.00    +0.003 C 
ATOM     11  C   UNL     1     -35.141  23.507  -0.748  0.00  0.00    +0.113 C 
ATOM     12  C   UNL     1     -34.553  23.561   1.777  0.00  0.00    +0.147 C 
ATOM     13  C   UNL     1     -36.807  25.610   0.651  0.00  0.00    +0.001 C 
ATOM     14  C   UNL     1     -38.183  26.152   2.754  0.00  0.00    +0.053 C 
ATOM     15  C   UNL     1     -38.735  23.804   2.733  0.00  0.00    +0.175 C 
ATOM     16  C   UNL     1     -37.872  26.516   1.295  0.00  0.00    +0.007 C 
ATOM     17  C   UNL     1     -34.871  21.055  -1.253  0.00  0.00    +0.003 C 
ATOM     18  C   UNL     1     -34.227  22.430  -1.323  0.00  0.00    +0.029 C 
ATOM     19  C   UNL     1     -39.329  25.172   2.804  0.00  0.00    +0.015 C 
ATOM     20  C   UNL     1     -36.008  19.307   0.118  0.00  0.00    +0.000 C 
ATOM     21  C   UNL     1     -33.884  20.290   0.928  0.00  0.00    +0.000 C 
ATOM     22  C   UNL     1     -40.631  25.412   2.957  0.00  0.00    -0.002 C 
ENDROOT
BRANCH   7  23
ATOM     23  O   UNL     1     -36.693  22.459   4.510  0.00  0.00    -0.361 OA
ATOM     24  H   UNL     1     -36.204  21.665   4.781  0.00  0.00    +0.213 HD
ENDBRANCH   7  23
BRANCH   8  25
ATOM     25  O   UNL     1     -37.668  20.823   2.451  0.00  0.00    -0.380 OA
ATOM     26  H   UNL     1     -37.595  20.060   3.044  0.00  0.00    +0.211 HD
ENDBRANCH   8  25
BRANCH   9  27
ATOM     27  O   UNL     1     -37.138  25.209   4.753  0.00  0.00    -0.384 OA
ATOM     28  H   UNL     1     -36.419  25.713   5.162  0.00  0.00    +0.210 HD
ENDBRANCH   9  27
BRANCH  11  29
ATOM     29  O   UNL     1     -34.461  24.756  -0.864  0.00  0.00    -0.384 OA
ATOM     30  H   UNL     1     -34.959  25.340  -1.456  0.00  0.00    +0.210 HD
ENDBRANCH  11  29
TORSDOF 4
ENDMDL
