MODEL 1
REMARK VINA RESULT:      -5.4      0.000      0.000
REMARK  Name = 5245
REMARK  9 active torsions:
REMARK  status: ('A' for Active; 'I' for Inactive)
REMARK    1  A    between atoms: C_1  and  P_2
REMARK    2  A    between atoms: C_1  and  P_8
REMARK    3  A    between atoms: C_1  and  O_14
REMARK    4  A    between atoms: C_1  and  C_16
REMARK    5  A    between atoms: P_2  and  O_4
REMARK    6  A    between atoms: P_2  and  O_6
REMARK    7  A    between atoms: P_8  and  O_10
REMARK    8  A    between atoms: P_8  and  O_12
REMARK    9  A    between atoms: C_16  and  C_18
REMARK                            x       y       z     vdW  Elec       q    Type
REMARK                         _______ _______ _______ _____ _____    ______ ____
ROOT
ATOM      1  C   UNL     1     -36.760  22.403   2.708  0.00  0.00    +0.279 C 
ENDROOT
BRANCH   1   2
ATOM      2  P   UNL     1     -35.704  20.916   2.612  0.00  0.00    +0.372 P 
ATOM      3  O   UNL     1     -34.592  20.977   1.608  0.00  0.00    -0.255 OA
BRANCH   2   4
ATOM      4  O   UNL     1     -36.768  19.719   2.392  0.00  0.00    -0.322 OA
ATOM      5  H   UNL     1     -36.946  19.614   1.444  0.00  0.00    +0.220 HD
ENDBRANCH   2   4
BRANCH   2   6
ATOM      6  O   UNL     1     -35.216  20.692   4.137  0.00  0.00    -0.322 OA
ATOM      7  H   UNL     1     -35.980  20.741   4.732  0.00  0.00    +0.220 HD
ENDBRANCH   2   6
ENDBRANCH   1   2
BRANCH   1   8
ATOM      8  P   UNL     1     -38.393  22.465   1.842  0.00  0.00    +0.372 P 
ATOM      9  O   UNL     1     -38.306  22.651   0.355  0.00  0.00    -0.255 OA
BRANCH   8  10
ATOM     10  O   UNL     1     -39.112  21.101   2.325  0.00  0.00    -0.322 OA
ATOM     11  H   UNL     1     -40.053  21.271   2.485  0.00  0.00    +0.220 HD
ENDBRANCH   8  10
BRANCH   8  12
ATOM     12  O   UNL     1     -39.209  23.617   2.627  0.00  0.00    -0.322 OA
ATOM     13  H   UNL     1     -39.963  23.220   3.091  0.00  0.00    +0.220 HD
ENDBRANCH   8  12
ENDBRANCH   1   8
BRANCH   1  14
ATOM     14  O   UNL     1     -37.176  22.433   4.073  0.00  0.00    -0.366 OA
ATOM     15  H   UNL     1     -37.215  21.527   4.419  0.00  0.00    +0.212 HD
ENDBRANCH   1  14
BRANCH   1  16
ATOM     16  C   UNL     1     -36.010  23.716   2.368  0.00  0.00    +0.079 C 
BRANCH  16  18
ATOM     17  N   UNL     1     -33.680  25.228   4.914  0.00  0.00    -0.243 NA
ATOM     18  C   UNL     1     -35.516  24.538   3.532  0.00  0.00    +0.001 C 
ATOM     19  C   UNL     1     -36.394  25.320   4.255  0.00  0.00    -0.001 C 
ATOM     20  C   UNL     1     -34.187  24.516   3.883  0.00  0.00    +0.095 C 
ATOM     21  C   UNL     1     -35.910  26.065   5.323  0.00  0.00    +0.020 C 
ATOM     22  C   UNL     1     -34.556  25.986   5.610  0.00  0.00    +0.099 C 
ENDBRANCH  16  18
ENDBRANCH   1  16
TORSDOF 9
ENDMDL
MODEL 2
REMARK VINA RESULT:      -5.4      2.225      2.881
REMARK  Name = 5245
REMARK  9 active torsions:
REMARK  status: ('A' for Active; 'I' for Inactive)
REMARK    1  A    between atoms: C_1  and  P_2
REMARK    2  A    between atoms: C_1  and  P_8
REMARK    3  A    between atoms: C_1  and  O_14
REMARK    4  A    between atoms: C_1  and  C_16
REMARK    5  A    between atoms: P_2  and  O_4
REMARK    6  A    between atoms: P_2  and  O_6
REMARK    7  A    between atoms: P_8  and  O_10
REMARK    8  A    between atoms: P_8  and  O_12
REMARK    9  A    between atoms: C_16  and  C_18
REMARK                            x       y       z     vdW  Elec       q    Type
REMARK                         _______ _______ _______ _____ _____    ______ ____
ROOT
ATOM      1  C   UNL     1     -36.684  20.494   1.486  0.00  0.00    +0.279 C 
ENDROOT
BRANCH   1   2
ATOM      2  P   UNL     1     -35.903  19.263   0.386  0.00  0.00    +0.372 P 
ATOM      3  O   UNL     1     -35.654  19.720  -1.020  0.00  0.00    -0.255 OA
BRANCH   2   4
ATOM      4  O   UNL     1     -36.864  17.972   0.532  0.00  0.00    -0.322 OA
ATOM      5  H   UNL     1     -37.722  18.246   0.893  0.00  0.00    +0.220 HD
ENDBRANCH   2   4
BRANCH   2   6
ATOM      6  O   UNL     1     -34.573  18.819   1.190  0.00  0.00    -0.322 OA
ATOM      7  H   UNL     1     -34.343  19.503   1.838  0.00  0.00    +0.220 HD
ENDBRANCH   2   6
ENDBRANCH   1   2
BRANCH   1   8
ATOM      8  P   UNL     1     -38.329  21.230   1.069  0.00  0.00    +0.372 P 
ATOM      9  O   UNL     1     -38.262  22.570   0.397  0.00  0.00    -0.255 OA
BRANCH   8  10
ATOM     10  O   UNL     1     -39.041  20.062   0.209  0.00  0.00    -0.322 OA
ATOM     11  H   UNL     1     -38.740  20.110  -0.712  0.00  0.00    +0.220 HD
ENDBRANCH   8  10
BRANCH   8  12
ATOM     12  O   UNL     1     -39.134  21.207   2.470  0.00  0.00    -0.322 OA
ATOM     13  H   UNL     1     -38.574  21.578   3.170  0.00  0.00    +0.220 HD
ENDBRANCH   8  12
ENDBRANCH   1   8
BRANCH   1  14
ATOM     14  O   UNL     1     -37.012  19.742   2.654  0.00  0.00    -0.366 OA
ATOM     15  H   UNL     1     -37.976  19.644   2.715  0.00  0.00    +0.212 HD
ENDBRANCH   1  14
BRANCH   1  16
ATOM     16  C   UNL     1     -35.743  21.664   1.872  0.00  0.00    +0.079 C 
BRANCH  16  18
ATOM     17  N   UNL     1     -36.331  23.621   5.038  0.00  0.00    -0.243 NA
ATOM     18  C   UNL     1     -35.709  22.057   3.328  0.00  0.00    +0.001 C 
ATOM     19  C   UNL     1     -35.061  21.260   4.249  0.00  0.00    -0.001 C 
ATOM     20  C   UNL     1     -36.324  23.212   3.749  0.00  0.00    +0.095 C 
ATOM     21  C   UNL     1     -35.046  21.648   5.584  0.00  0.00    +0.020 C 
ATOM     22  C   UNL     1     -35.690  22.827   5.924  0.00  0.00    +0.099 C 
ENDBRANCH  16  18
ENDBRANCH   1  16
TORSDOF 9
ENDMDL
MODEL 3
REMARK VINA RESULT:      -5.4      3.898      5.758
REMARK  Name = 5245
REMARK  9 active torsions:
REMARK  status: ('A' for Active; 'I' for Inactive)
REMARK    1  A    between atoms: C_1  and  P_2
REMARK    2  A    between atoms: C_1  and  P_8
REMARK    3  A    between atoms: C_1  and  O_14
REMARK    4  A    between atoms: C_1  and  C_16
REMARK    5  A    between atoms: P_2  and  O_4
REMARK    6  A    between atoms: P_2  and  O_6
REMARK    7  A    between atoms: P_8  and  O_10
REMARK    8  A    between atoms: P_8  and  O_12
REMARK    9  A    between atoms: C_16  and  C_18
REMARK                            x       y       z     vdW  Elec       q    Type
REMARK                         _______ _______ _______ _____ _____    ______ ____
ROOT
ATOM      1  C   UNL     1     -36.480  21.015   1.859  0.00  0.00    +0.279 C 
ENDROOT
BRANCH   1   2
ATOM      2  P   UNL     1     -38.120  21.277   1.099  0.00  0.00    +0.372 P 
ATOM      3  O   UNL     1     -38.399  20.464  -0.130  0.00  0.00    -0.255 OA
BRANCH   2   4
ATOM      4  O   UNL     1     -38.183  22.879   0.896  0.00  0.00    -0.322 OA
ATOM      5  H   UNL     1     -38.713  23.085   0.109  0.00  0.00    +0.220 HD
ENDBRANCH   2   4
BRANCH   2   6
ATOM      6  O   UNL     1     -39.152  21.024   2.316  0.00  0.00    -0.322 OA
ATOM      7  H   UNL     1     -38.699  20.553   3.033  0.00  0.00    +0.220 HD
ENDBRANCH   2   6
ENDBRANCH   1   2
BRANCH   1   8
ATOM      8  P   UNL     1     -35.885  22.103   3.232  0.00  0.00    +0.372 P 
ATOM      9  O   UNL     1     -34.844  23.107   2.828  0.00  0.00    -0.255 OA
BRANCH   8  10
ATOM     10  O   UNL     1     -37.255  22.728   3.818  0.00  0.00    -0.322 OA
ATOM     11  H   UNL     1     -37.707  23.227   3.120  0.00  0.00    +0.220 HD
ENDBRANCH   8  10
BRANCH   8  12
ATOM     12  O   UNL     1     -35.424  21.066   4.381  0.00  0.00    -0.322 OA
ATOM     13  H   UNL     1     -34.903  21.537   5.051  0.00  0.00    +0.220 HD
ENDBRANCH   8  12
ENDBRANCH   1   8
BRANCH   1  14
ATOM     14  O   UNL     1     -36.620  19.770   2.542  0.00  0.00    -0.366 OA
ATOM     15  H   UNL     1     -36.163  19.074   2.043  0.00  0.00    +0.212 HD
ENDBRANCH   1  14
BRANCH   1  16
ATOM     16  C   UNL     1     -35.329  20.911   0.825  0.00  0.00    +0.079 C 
BRANCH  16  18
ATOM     17  N   UNL     1     -34.621  17.359  -0.214  0.00  0.00    -0.243 NA
ATOM     18  C   UNL     1     -34.640  19.574   0.708  0.00  0.00    +0.001 C 
ATOM     19  C   UNL     1     -33.456  19.340   1.377  0.00  0.00    -0.001 C 
ATOM     20  C   UNL     1     -35.186  18.578  -0.066  0.00  0.00    +0.095 C 
ATOM     21  C   UNL     1     -32.845  18.098   1.251  0.00  0.00    +0.020 C 
ATOM     22  C   UNL     1     -33.462  17.149   0.450  0.00  0.00    +0.099 C 
ENDBRANCH  16  18
ENDBRANCH   1  16
TORSDOF 9
ENDMDL
MODEL 4
REMARK VINA RESULT:      -5.4      0.698      1.436
REMARK  Name = 5245
REMARK  9 active torsions:
REMARK  status: ('A' for Active; 'I' for Inactive)
REMARK    1  A    between atoms: C_1  and  P_2
REMARK    2  A    between atoms: C_1  and  P_8
REMARK    3  A    between atoms: C_1  and  O_14
REMARK    4  A    between atoms: C_1  and  C_16
REMARK    5  A    between atoms: P_2  and  O_4
REMARK    6  A    between atoms: P_2  and  O_6
REMARK    7  A    between atoms: P_8  and  O_10
REMARK    8  A    between atoms: P_8  and  O_12
REMARK    9  A    between atoms: C_16  and  C_18
REMARK                            x       y       z     vdW  Elec       q    Type
REMARK                         _______ _______ _______ _____ _____    ______ ____
ROOT
ATOM      1  C   UNL     1     -36.965  22.521   2.519  0.00  0.00    +0.279 C 
ENDROOT
BRANCH   1   2
ATOM      2  P   UNL     1     -36.076  21.109   1.777  0.00  0.00    +0.372 P 
ATOM      3  O   UNL     1     -34.586  21.255   1.695  0.00  0.00    -0.255 OA
BRANCH   2   4
ATOM      4  O   UNL     1     -36.827  20.900   0.361  0.00  0.00    -0.322 OA
ATOM      5  H   UNL     1     -36.169  20.746  -0.335  0.00  0.00    +0.220 HD
ENDBRANCH   2   4
BRANCH   2   6
ATOM      6  O   UNL     1     -36.577  19.841   2.645  0.00  0.00    -0.322 OA
ATOM      7  H   UNL     1     -36.986  19.188   2.057  0.00  0.00    +0.220 HD
ENDBRANCH   2   6
ENDBRANCH   1   2
BRANCH   1   8
ATOM      8  P   UNL     1     -38.777  22.760   2.231  0.00  0.00    +0.372 P 
ATOM      9  O   UNL     1     -39.429  23.756   3.145  0.00  0.00    -0.255 OA
BRANCH   8  10
ATOM     10  O   UNL     1     -38.849  23.118   0.657  0.00  0.00    -0.322 OA
ATOM     11  H   UNL     1     -39.494  23.829   0.517  0.00  0.00    +0.220 HD
ENDBRANCH   8  10
BRANCH   8  12
ATOM     12  O   UNL     1     -39.385  21.265   2.304  0.00  0.00    -0.322 OA
ATOM     13  H   UNL     1     -39.100  20.841   3.129  0.00  0.00    +0.220 HD
ENDBRANCH   8  12
ENDBRANCH   1   8
BRANCH   1  14
ATOM     14  O   UNL     1     -36.948  22.233   3.917  0.00  0.00    -0.366 OA
ATOM     15  H   UNL     1     -37.213  21.310   4.059  0.00  0.00    +0.212 HD
ENDBRANCH   1  14
BRANCH   1  16
ATOM     16  C   UNL     1     -36.277  23.888   2.265  0.00  0.00    +0.079 C 
BRANCH  16  18
ATOM     17  N   UNL     1     -33.724  25.075   4.769  0.00  0.00    -0.243 NA
ATOM     18  C   UNL     1     -35.674  24.578   3.464  0.00  0.00    +0.001 C 
ATOM     19  C   UNL     1     -36.472  25.311   4.318  0.00  0.00    -0.001 C 
ATOM     20  C   UNL     1     -34.326  24.482   3.714  0.00  0.00    +0.095 C 
ATOM     21  C   UNL     1     -35.888  25.935   5.415  0.00  0.00    +0.020 C 
ATOM     22  C   UNL     1     -34.522  25.788   5.595  0.00  0.00    +0.099 C 
ENDBRANCH  16  18
ENDBRANCH   1  16
TORSDOF 9
ENDMDL
MODEL 5
REMARK VINA RESULT:      -5.3      3.353      5.364
REMARK  Name = 5245
REMARK  9 active torsions:
REMARK  status: ('A' for Active; 'I' for Inactive)
REMARK    1  A    between atoms: C_1  and  P_2
REMARK    2  A    between atoms: C_1  and  P_8
REMARK    3  A    between atoms: C_1  and  O_14
REMARK    4  A    between atoms: C_1  and  C_16
REMARK    5  A    between atoms: P_2  and  O_4
REMARK    6  A    between atoms: P_2  and  O_6
REMARK    7  A    between atoms: P_8  and  O_10
REMARK    8  A    between atoms: P_8  and  O_12
REMARK    9  A    between atoms: C_16  and  C_18
REMARK                            x       y       z     vdW  Elec       q    Type
REMARK                         _______ _______ _______ _____ _____    ______ ____
ROOT
ATOM      1  C   UNL     1     -36.561  25.094   3.400  0.00  0.00    +0.279 C 
ENDROOT
BRANCH   1   2
ATOM      2  P   UNL     1     -37.765  26.059   2.424  0.00  0.00    +0.372 P 
ATOM      3  O   UNL     1     -38.250  25.402   1.166  0.00  0.00    -0.255 OA
BRANCH   2   4
ATOM      4  O   UNL     1     -37.023  27.480   2.218  0.00  0.00    -0.322 OA
ATOM      5  H   UNL     1     -37.006  27.702   1.273  0.00  0.00    +0.220 HD
ENDBRANCH   2   4
BRANCH   2   6
ATOM      6  O   UNL     1     -38.931  26.408   3.487  0.00  0.00    -0.322 OA
ATOM      7  H   UNL     1     -39.549  25.663   3.547  0.00  0.00    +0.220 HD
ENDBRANCH   2   6
ENDBRANCH   1   2
BRANCH   1   8
ATOM      8  P   UNL     1     -35.599  25.883   4.769  0.00  0.00    +0.372 P 
ATOM      9  O   UNL     1     -34.709  24.944   5.530  0.00  0.00    -0.255 OA
BRANCH   8  10
ATOM     10  O   UNL     1     -34.839  27.099   4.022  0.00  0.00    -0.322 OA
ATOM     11  H   UNL     1     -34.374  27.640   4.679  0.00  0.00    +0.220 HD
ENDBRANCH   8  10
BRANCH   8  12
ATOM     12  O   UNL     1     -36.722  26.632   5.656  0.00  0.00    -0.322 OA
ATOM     13  H   UNL     1     -36.311  27.357   6.153  0.00  0.00    +0.220 HD
ENDBRANCH   8  12
ENDBRANCH   1   8
BRANCH   1  14
ATOM     14  O   UNL     1     -37.378  24.182   4.135  0.00  0.00    -0.366 OA
ATOM     15  H   UNL     1     -37.538  23.388   3.600  0.00  0.00    +0.212 HD
ENDBRANCH   1  14
BRANCH   1  16
ATOM     16  C   UNL     1     -35.553  24.299   2.530  0.00  0.00    +0.079 C 
BRANCH  16  18
ATOM     17  N   UNL     1     -35.538  20.577   3.113  0.00  0.00    -0.243 NA
ATOM     18  C   UNL     1     -35.831  22.829   2.340  0.00  0.00    +0.001 C 
ATOM     19  C   UNL     1     -36.593  22.397   1.273  0.00  0.00    -0.001 C 
ATOM     20  C   UNL     1     -35.327  21.907   3.226  0.00  0.00    +0.095 C 
ATOM     21  C   UNL     1     -36.831  21.036   1.123  0.00  0.00    +0.020 C 
ATOM     22  C   UNL     1     -36.287  20.174   2.062  0.00  0.00    +0.099 C 
ENDBRANCH  16  18
ENDBRANCH   1  16
TORSDOF 9
ENDMDL
MODEL 6
REMARK VINA RESULT:      -5.1      3.641      5.001
REMARK  Name = 5245
REMARK  9 active torsions:
REMARK  status: ('A' for Active; 'I' for Inactive)
REMARK    1  A    between atoms: C_1  and  P_2
REMARK    2  A    between atoms: C_1  and  P_8
REMARK    3  A    between atoms: C_1  and  O_14
REMARK    4  A    between atoms: C_1  and  C_16
REMARK    5  A    between atoms: P_2  and  O_4
REMARK    6  A    between atoms: P_2  and  O_6
REMARK    7  A    between atoms: P_8  and  O_10
REMARK    8  A    between atoms: P_8  and  O_12
REMARK    9  A    between atoms: C_16  and  C_18
REMARK                            x       y       z     vdW  Elec       q    Type
REMARK                         _______ _______ _______ _____ _____    ______ ____
ROOT
ATOM      1  C   UNL     1     -36.480  25.169   3.329  0.00  0.00    +0.279 C 
ENDROOT
BRANCH   1   2
ATOM      2  P   UNL     1     -35.498  26.001   4.624  0.00  0.00    +0.372 P 
ATOM      3  O   UNL     1     -34.475  25.144   5.309  0.00  0.00    -0.255 OA
BRANCH   2   4
ATOM      4  O   UNL     1     -36.624  26.637   5.592  0.00  0.00    -0.322 OA
ATOM      5  H   UNL     1     -36.705  26.097   6.395  0.00  0.00    +0.220 HD
ENDBRANCH   2   4
BRANCH   2   6
ATOM      6  O   UNL     1     -34.890  27.296   3.873  0.00  0.00    -0.322 OA
ATOM      7  H   UNL     1     -33.964  27.128   3.636  0.00  0.00    +0.220 HD
ENDBRANCH   2   6
ENDBRANCH   1   2
BRANCH   1   8
ATOM      8  P   UNL     1     -37.728  26.105   2.335  0.00  0.00    +0.372 P 
ATOM      9  O   UNL     1     -38.181  25.409   1.084  0.00  0.00    -0.255 OA
BRANCH   8  10
ATOM     10  O   UNL     1     -38.892  26.412   3.413  0.00  0.00    -0.322 OA
ATOM     11  H   UNL     1     -38.516  26.401   4.307  0.00  0.00    +0.220 HD
ENDBRANCH   8  10
BRANCH   8  12
ATOM     12  O   UNL     1     -37.041  27.549   2.103  0.00  0.00    -0.322 OA
ATOM     13  H   UNL     1     -37.107  28.072   2.918  0.00  0.00    +0.220 HD
ENDBRANCH   8  12
ENDBRANCH   1   8
BRANCH   1  14
ATOM     14  O   UNL     1     -35.515  24.854   2.324  0.00  0.00    -0.366 OA
ATOM     15  H   UNL     1     -35.868  25.091   1.452  0.00  0.00    +0.212 HD
ENDBRANCH   1  14
BRANCH   1  16
ATOM     16  C   UNL     1     -37.164  23.865   3.813  0.00  0.00    +0.079 C 
BRANCH  16  18
ATOM     17  N   UNL     1     -37.287  20.967   1.408  0.00  0.00    -0.243 NA
ATOM     18  C   UNL     1     -36.783  22.591   3.100  0.00  0.00    +0.001 C 
ATOM     19  C   UNL     1     -35.639  21.908   3.459  0.00  0.00    -0.001 C 
ATOM     20  C   UNL     1     -37.572  22.101   2.086  0.00  0.00    +0.095 C 
ATOM     21  C   UNL     1     -35.314  20.737   2.785  0.00  0.00    +0.020 C 
ATOM     22  C   UNL     1     -36.163  20.312   1.775  0.00  0.00    +0.099 C 
ENDBRANCH  16  18
ENDBRANCH   1  16
TORSDOF 9
ENDMDL
MODEL 7
REMARK VINA RESULT:      -5.1      3.402      5.413
REMARK  Name = 5245
REMARK  9 active torsions:
REMARK  status: ('A' for Active; 'I' for Inactive)
REMARK    1  A    between atoms: C_1  and  P_2
REMARK    2  A    between atoms: C_1  and  P_8
REMARK    3  A    between atoms: C_1  and  O_14
REMARK    4  A    between atoms: C_1  and  C_16
REMARK    5  A    between atoms: P_2  and  O_4
REMARK    6  A    between atoms: P_2  and  O_6
REMARK    7  A    between atoms: P_8  and  O_10
REMARK    8  A    between atoms: P_8  and  O_12
REMARK    9  A    between atoms: C_16  and  C_18
REMARK                            x       y       z     vdW  Elec       q    Type
REMARK                         _______ _______ _______ _____ _____    ______ ____
ROOT
ATOM      1  C   UNL     1     -36.816  24.793   3.138  0.00  0.00    +0.279 C 
ENDROOT
BRANCH   1   2
ATOM      2  P   UNL     1     -37.903  26.047   2.377  0.00  0.00    +0.372 P 
ATOM      3  O   UNL     1     -38.475  25.681   1.040  0.00  0.00    -0.255 OA
BRANCH   2   4
ATOM      4  O   UNL     1     -36.996  27.385   2.397  0.00  0.00    -0.322 OA
ATOM      5  H   UNL     1     -36.063  27.146   2.280  0.00  0.00    +0.220 HD
ENDBRANCH   2   4
BRANCH   2   6
ATOM      6  O   UNL     1     -39.009  26.341   3.519  0.00  0.00    -0.322 OA
ATOM      7  H   UNL     1     -38.725  27.095   4.059  0.00  0.00    +0.220 HD
ENDBRANCH   2   6
ENDBRANCH   1   2
BRANCH   1   8
ATOM      8  P   UNL     1     -35.837  25.180   4.659  0.00  0.00    +0.372 P 
ATOM      9  O   UNL     1     -34.391  25.492   4.409  0.00  0.00    -0.255 OA
BRANCH   8  10
ATOM     10  O   UNL     1     -36.690  26.370   5.344  0.00  0.00    -0.322 OA
ATOM     11  H   UNL     1     -37.446  25.992   5.821  0.00  0.00    +0.220 HD
ENDBRANCH   8  10
BRANCH   8  12
ATOM     12  O   UNL     1     -36.107  23.918   5.630  0.00  0.00    -0.322 OA
ATOM     13  H   UNL     1     -35.836  24.143   6.534  0.00  0.00    +0.220 HD
ENDBRANCH   8  12
ENDBRANCH   1   8
BRANCH   1  14
ATOM     14  O   UNL     1     -37.729  23.819   3.644  0.00  0.00    -0.366 OA
ATOM     15  H   UNL     1     -37.273  23.252   4.287  0.00  0.00    +0.212 HD
ENDBRANCH   1  14
BRANCH   1  16
ATOM     16  C   UNL     1     -35.849  24.119   2.130  0.00  0.00    +0.079 C 
BRANCH  16  18
ATOM     17  N   UNL     1     -37.136  20.908   0.637  0.00  0.00    -0.243 NA
ATOM     18  C   UNL     1     -36.044  22.644   1.882  0.00  0.00    +0.001 C 
ATOM     19  C   UNL     1     -35.351  21.715   2.630  0.00  0.00    -0.001 C 
ATOM     20  C   UNL     1     -36.915  22.213   0.909  0.00  0.00    +0.095 C 
ATOM     21  C   UNL     1     -35.553  20.362   2.380  0.00  0.00    +0.020 C 
ATOM     22  C   UNL     1     -36.448  20.013   1.381  0.00  0.00    +0.099 C 
ENDBRANCH  16  18
ENDBRANCH   1  16
TORSDOF 9
ENDMDL
MODEL 8
REMARK VINA RESULT:      -5.0      0.906      2.998
REMARK  Name = 5245
REMARK  9 active torsions:
REMARK  status: ('A' for Active; 'I' for Inactive)
REMARK    1  A    between atoms: C_1  and  P_2
REMARK    2  A    between atoms: C_1  and  P_8
REMARK    3  A    between atoms: C_1  and  O_14
REMARK    4  A    between atoms: C_1  and  C_16
REMARK    5  A    between atoms: P_2  and  O_4
REMARK    6  A    between atoms: P_2  and  O_6
REMARK    7  A    between atoms: P_8  and  O_10
REMARK    8  A    between atoms: P_8  and  O_12
REMARK    9  A    between atoms: C_16  and  C_18
REMARK                            x       y       z     vdW  Elec       q    Type
REMARK                         _______ _______ _______ _____ _____    ______ ____
ROOT
ATOM      1  C   UNL     1     -36.629  22.360   2.539  0.00  0.00    +0.279 C 
ENDROOT
BRANCH   1   2
ATOM      2  P   UNL     1     -38.281  22.445   1.767  0.00  0.00    +0.372 P 
ATOM      3  O   UNL     1     -38.290  22.541   0.270  0.00  0.00    -0.255 OA
BRANCH   2   4
ATOM      4  O   UNL     1     -38.990  23.674   2.541  0.00  0.00    -0.322 OA
ATOM      5  H   UNL     1     -38.313  24.221   2.970  0.00  0.00    +0.220 HD
ENDBRANCH   2   4
BRANCH   2   6
ATOM      6  O   UNL     1     -39.048  21.151   2.358  0.00  0.00    -0.322 OA
ATOM      7  H   UNL     1     -38.444  20.647   2.924  0.00  0.00    +0.220 HD
ENDBRANCH   2   6
ENDBRANCH   1   2
BRANCH   1   8
ATOM      8  P   UNL     1     -35.683  20.771   2.588  0.00  0.00    +0.372 P 
ATOM      9  O   UNL     1     -34.537  20.695   1.622  0.00  0.00    -0.255 OA
BRANCH   8  10
ATOM     10  O   UNL     1     -35.281  20.637   4.147  0.00  0.00    -0.322 OA
ATOM     11  H   UNL     1     -35.875  21.186   4.683  0.00  0.00    +0.220 HD
ENDBRANCH   8  10
BRANCH   8  12
ATOM     12  O   UNL     1     -36.816  19.636   2.394  0.00  0.00    -0.322 OA
ATOM     13  H   UNL     1     -37.535  19.785   3.029  0.00  0.00    +0.220 HD
ENDBRANCH   8  12
ENDBRANCH   1   8
BRANCH   1  14
ATOM     14  O   UNL     1     -35.808  23.137   1.666  0.00  0.00    -0.366 OA
ATOM     15  H   UNL     1     -34.954  23.309   2.093  0.00  0.00    +0.212 HD
ENDBRANCH   1  14
BRANCH   1  16
ATOM     16  C   UNL     1     -36.581  22.965   3.966  0.00  0.00    +0.079 C 
BRANCH  16  18
ATOM     17  N   UNL     1     -33.581  25.136   4.662  0.00  0.00    -0.243 NA
ATOM     18  C   UNL     1     -35.729  24.196   4.155  0.00  0.00    +0.001 C 
ATOM     19  C   UNL     1     -36.278  25.453   4.002  0.00  0.00    -0.001 C 
ATOM     20  C   UNL     1     -34.399  24.075   4.480  0.00  0.00    +0.095 C 
ATOM     21  C   UNL     1     -35.468  26.568   4.183  0.00  0.00    +0.020 C 
ATOM     22  C   UNL     1     -34.138  26.358   4.509  0.00  0.00    +0.099 C 
ENDBRANCH  16  18
ENDBRANCH   1  16
TORSDOF 9
ENDMDL
MODEL 9
REMARK VINA RESULT:      -5.0      3.832      5.125
REMARK  Name = 5245
REMARK  9 active torsions:
REMARK  status: ('A' for Active; 'I' for Inactive)
REMARK    1  A    between atoms: C_1  and  P_2
REMARK    2  A    between atoms: C_1  and  P_8
REMARK    3  A    between atoms: C_1  and  O_14
REMARK    4  A    between atoms: C_1  and  C_16
REMARK    5  A    between atoms: P_2  and  O_4
REMARK    6  A    between atoms: P_2  and  O_6
REMARK    7  A    between atoms: P_8  and  O_10
REMARK    8  A    between atoms: P_8  and  O_12
REMARK    9  A    between atoms: C_16  and  C_18
REMARK                            x       y       z     vdW  Elec       q    Type
REMARK                         _______ _______ _______ _____ _____    ______ ____
ROOT
ATOM      1  C   UNL     1     -35.505  25.272   3.397  0.00  0.00    +0.279 C 
ENDROOT
BRANCH   1   2
ATOM      2  P   UNL     1     -35.651  25.240   5.216  0.00  0.00    +0.372 P 
ATOM      3  O   UNL     1     -36.043  23.920   5.809  0.00  0.00    -0.255 OA
BRANCH   2   4
ATOM      4  O   UNL     1     -36.660  26.464   5.529  0.00  0.00    -0.322 OA
ATOM      5  H   UNL     1     -36.274  27.293   5.205  0.00  0.00    +0.220 HD
ENDBRANCH   2   4
BRANCH   2   6
ATOM      6  O   UNL     1     -34.226  25.805   5.727  0.00  0.00    -0.322 OA
ATOM      7  H   UNL     1     -33.884  26.448   5.086  0.00  0.00    +0.220 HD
ENDBRANCH   2   6
ENDBRANCH   1   2
BRANCH   1   8
ATOM      8  P   UNL     1     -35.644  26.862   2.461  0.00  0.00    +0.372 P 
ATOM      9  O   UNL     1     -34.962  26.862   1.124  0.00  0.00    -0.255 OA
BRANCH   8  10
ATOM     10  O   UNL     1     -37.239  27.121   2.421  0.00  0.00    -0.322 OA
ATOM     11  H   UNL     1     -37.573  26.941   1.529  0.00  0.00    +0.220 HD
ENDBRANCH   8  10
BRANCH   8  12
ATOM     12  O   UNL     1     -35.109  27.977   3.500  0.00  0.00    -0.322 OA
ATOM     13  H   UNL     1     -34.447  27.579   4.087  0.00  0.00    +0.220 HD
ENDBRANCH   8  12
ENDBRANCH   1   8
BRANCH   1  14
ATOM     14  O   UNL     1     -34.136  24.940   3.163  0.00  0.00    -0.366 OA
ATOM     15  H   UNL     1     -33.747  25.584   2.550  0.00  0.00    +0.212 HD
ENDBRANCH   1  14
BRANCH   1  16
ATOM     16  C   UNL     1     -36.416  24.240   2.684  0.00  0.00    +0.079 C 
BRANCH  16  18
ATOM     17  N   UNL     1     -35.388  20.630   3.014  0.00  0.00    -0.243 NA
ATOM     18  C   UNL     1     -35.802  22.901   2.360  0.00  0.00    +0.001 C 
ATOM     19  C   UNL     1     -35.123  22.716   1.173  0.00  0.00    -0.001 C 
ATOM     20  C   UNL     1     -35.915  21.854   3.244  0.00  0.00    +0.095 C 
ATOM     21  C   UNL     1     -34.567  21.471   0.903  0.00  0.00    +0.020 C 
ATOM     22  C   UNL     1     -34.726  20.469   1.847  0.00  0.00    +0.099 C 
ENDBRANCH  16  18
ENDBRANCH   1  16
TORSDOF 9
ENDMDL
