MODEL 1
REMARK VINA RESULT:      -5.9      0.000      0.000
REMARK  Name = 196709
REMARK  4 active torsions:
REMARK  status: ('A' for Active; 'I' for Inactive)
REMARK    1  A    between atoms: N_2  and  C_12
REMARK    2  A    between atoms: C_13  and  O_16
REMARK    3  A    between atoms: C_15  and  C_18
REMARK    4  A    between atoms: C_18  and  O_19
REMARK                            x       y       z     vdW  Elec       q    Type
REMARK                         _______ _______ _______ _____ _____    ______ ____
ROOT
ATOM      1 BR   UNL     1     -35.179  21.600   5.631  0.00  0.00    +0.062 Br
ATOM      2  N   UNL     1     -38.092  23.950   2.019  0.00  0.00    -0.236 N 
ATOM      3  N   UNL     1     -37.998  26.008   2.871  0.00  0.00    -0.240 NA
ATOM      4  N   UNL     1     -36.746  22.760   3.653  0.00  0.00    -0.317 NA
ATOM      5  N   UNL     1     -35.938  24.263   5.399  0.00  0.00    -0.318 NA
ATOM      6  C   UNL     1     -37.328  23.857   3.147  0.00  0.00    +0.221 C 
ATOM      7  C   UNL     1     -38.471  25.261   1.895  0.00  0.00    +0.224 C 
ATOM      8  C   UNL     1     -37.282  25.144   3.661  0.00  0.00    +0.167 C 
ATOM      9  C   UNL     1     -36.554  25.328   4.831  0.00  0.00    +0.211 C 
ATOM     10  C   UNL     1     -36.070  23.063   4.784  0.00  0.00    +0.178 C 
ATOM     11  N   UNL     1     -36.454  26.599   5.422  0.00  0.00    -0.331 N 
ATOM     12  H   UNL     1     -35.935  26.718   6.252  0.00  0.00    +0.145 HD
ATOM     13  H   UNL     1     -36.902  27.372   5.008  0.00  0.00    +0.145 HD
ENDROOT
BRANCH   2  15
ATOM     14  O   UNL     1     -39.045  23.405  -0.081  0.00  0.00    -0.335 OA
ATOM     15  C   UNL     1     -38.444  22.863   1.107  0.00  0.00    +0.223 C 
ATOM     16  C   UNL     1     -39.442  21.871   1.684  0.00  0.00    +0.160 C 
ATOM     17  C   UNL     1     -40.080  21.325   0.427  0.00  0.00    +0.066 C 
ATOM     18  C   UNL     1     -40.121  22.539  -0.488  0.00  0.00    +0.149 C 
BRANCH  16  19
ATOM     19  O   UNL     1     -38.790  20.860   2.427  0.00  0.00    -0.380 OA
ATOM     20  H   UNL     1     -39.422  20.449   3.038  0.00  0.00    +0.211 HD
ENDBRANCH  16  19
BRANCH  18  21
ATOM     21  C   UNL     1     -41.430  23.309  -0.393  0.00  0.00    +0.167 C 
BRANCH  21  22
ATOM     22  O   UNL     1     -42.510  22.389  -0.448  0.00  0.00    -0.379 OA
ATOM     23  H   UNL     1     -42.457  21.783   0.308  0.00  0.00    +0.211 HD
ENDBRANCH  21  22
ENDBRANCH  18  21
ENDBRANCH   2  15
TORSDOF 4
ENDMDL
MODEL 2
REMARK VINA RESULT:      -5.7      3.284      5.810
REMARK  Name = 196709
REMARK  4 active torsions:
REMARK  status: ('A' for Active; 'I' for Inactive)
REMARK    1  A    between atoms: N_2  and  C_12
REMARK    2  A    between atoms: C_13  and  O_16
REMARK    3  A    between atoms: C_15  and  C_18
REMARK    4  A    between atoms: C_18  and  O_19
REMARK                            x       y       z     vdW  Elec       q    Type
REMARK                         _______ _______ _______ _____ _____    ______ ____
ROOT
ATOM      1 BR   UNL     1     -36.113  19.349   0.378  0.00  0.00    +0.062 Br
ATOM      2  N   UNL     1     -37.565  23.618   2.971  0.00  0.00    -0.236 N 
ATOM      3  N   UNL     1     -39.714  23.594   2.380  0.00  0.00    -0.240 NA
ATOM      4  N   UNL     1     -36.787  21.639   1.797  0.00  0.00    -0.317 NA
ATOM      5  N   UNL     1     -38.602  20.570   0.564  0.00  0.00    -0.318 NA
ATOM      6  C   UNL     1     -37.724  22.526   2.166  0.00  0.00    +0.221 C 
ATOM      7  C   UNL     1     -38.788  24.227   3.070  0.00  0.00    +0.224 C 
ATOM      8  C   UNL     1     -39.063  22.529   1.810  0.00  0.00    +0.167 C 
ATOM      9  C   UNL     1     -39.494  21.502   0.977  0.00  0.00    +0.211 C 
ATOM     10  C   UNL     1     -37.323  20.694   0.994  0.00  0.00    +0.178 C 
ATOM     11  N   UNL     1     -40.836  21.427   0.566  0.00  0.00    -0.331 N 
ATOM     12  H   UNL     1     -41.130  20.695  -0.024  0.00  0.00    +0.145 HD
ATOM     13  H   UNL     1     -41.483  22.106   0.867  0.00  0.00    +0.145 HD
ENDROOT
BRANCH   2  15
ATOM     14  O   UNL     1     -35.538  22.919   3.980  0.00  0.00    -0.335 OA
ATOM     15  C   UNL     1     -36.329  24.062   3.613  0.00  0.00    +0.223 C 
ATOM     16  C   UNL     1     -36.547  24.865   4.885  0.00  0.00    +0.160 C 
ATOM     17  C   UNL     1     -35.251  24.615   5.621  0.00  0.00    +0.066 C 
ATOM     18  C   UNL     1     -34.924  23.175   5.257  0.00  0.00    +0.149 C 
BRANCH  16  19
ATOM     19  O   UNL     1     -36.737  26.237   4.601  0.00  0.00    -0.380 OA
ATOM     20  H   UNL     1     -36.883  26.721   5.428  0.00  0.00    +0.211 HD
ENDBRANCH  16  19
BRANCH  18  21
ATOM     21  C   UNL     1     -35.462  22.173   6.268  0.00  0.00    +0.167 C 
BRANCH  21  22
ATOM     22  O   UNL     1     -35.381  20.870   5.711  0.00  0.00    -0.379 OA
ATOM     23  H   UNL     1     -36.275  20.533   5.542  0.00  0.00    +0.211 HD
ENDBRANCH  21  22
ENDBRANCH  18  21
ENDBRANCH   2  15
TORSDOF 4
ENDMDL
MODEL 3
REMARK VINA RESULT:      -5.6      3.604      6.172
REMARK  Name = 196709
REMARK  4 active torsions:
REMARK  status: ('A' for Active; 'I' for Inactive)
REMARK    1  A    between atoms: N_2  and  C_12
REMARK    2  A    between atoms: C_13  and  O_16
REMARK    3  A    between atoms: C_15  and  C_18
REMARK    4  A    between atoms: C_18  and  O_19
REMARK                            x       y       z     vdW  Elec       q    Type
REMARK                         _______ _______ _______ _____ _____    ______ ____
ROOT
ATOM      1 BR   UNL     1     -33.065  18.897   0.966  0.00  0.00    +0.062 Br
ATOM      2  N   UNL     1     -36.672  22.324   2.486  0.00  0.00    -0.236 N 
ATOM      3  N   UNL     1     -38.408  21.395   1.439  0.00  0.00    -0.240 NA
ATOM      4  N   UNL     1     -34.915  20.780   1.831  0.00  0.00    -0.317 NA
ATOM      5  N   UNL     1     -35.784  19.003   0.400  0.00  0.00    -0.318 NA
ATOM      6  C   UNL     1     -36.181  21.224   1.841  0.00  0.00    +0.221 C 
ATOM      7  C   UNL     1     -38.014  22.384   2.214  0.00  0.00    +0.224 C 
ATOM      8  C   UNL     1     -37.272  20.662   1.198  0.00  0.00    +0.167 C 
ATOM      9  C   UNL     1     -37.040  19.509   0.456  0.00  0.00    +0.211 C 
ATOM     10  C   UNL     1     -34.814  19.660   1.082  0.00  0.00    +0.178 C 
ATOM     11  N   UNL     1     -38.089  18.872  -0.229  0.00  0.00    -0.331 N 
ATOM     12  H   UNL     1     -37.912  18.056  -0.752  0.00  0.00    +0.145 HD
ATOM     13  H   UNL     1     -39.001  19.242  -0.187  0.00  0.00    +0.145 HD
ENDROOT
BRANCH   2  15
ATOM     14  O   UNL     1     -34.989  22.544   4.138  0.00  0.00    -0.335 OA
ATOM     15  C   UNL     1     -35.919  23.264   3.312  0.00  0.00    +0.223 C 
ATOM     16  C   UNL     1     -36.783  24.091   4.252  0.00  0.00    +0.160 C 
ATOM     17  C   UNL     1     -35.797  24.426   5.347  0.00  0.00    +0.066 C 
ATOM     18  C   UNL     1     -34.947  23.168   5.436  0.00  0.00    +0.149 C 
BRANCH  16  19
ATOM     19  O   UNL     1     -37.275  25.251   3.611  0.00  0.00    -0.380 OA
ATOM     20  H   UNL     1     -36.764  25.416   2.804  0.00  0.00    +0.211 HD
ENDBRANCH  16  19
BRANCH  18  21
ATOM     21  C   UNL     1     -35.459  22.178   6.471  0.00  0.00    +0.167 C 
BRANCH  21  22
ATOM     22  O   UNL     1     -35.415  20.871   5.919  0.00  0.00    -0.379 OA
ATOM     23  H   UNL     1     -34.761  20.843   5.204  0.00  0.00    +0.211 HD
ENDBRANCH  21  22
ENDBRANCH  18  21
ENDBRANCH   2  15
TORSDOF 4
ENDMDL
MODEL 4
REMARK VINA RESULT:      -5.6      4.859      7.153
REMARK  Name = 196709
REMARK  4 active torsions:
REMARK  status: ('A' for Active; 'I' for Inactive)
REMARK    1  A    between atoms: N_2  and  C_12
REMARK    2  A    between atoms: C_13  and  O_16
REMARK    3  A    between atoms: C_15  and  C_18
REMARK    4  A    between atoms: C_18  and  O_19
REMARK                            x       y       z     vdW  Elec       q    Type
REMARK                         _______ _______ _______ _____ _____    ______ ____
ROOT
ATOM      1 BR   UNL     1     -35.187  22.123   6.168  0.00  0.00    +0.062 Br
ATOM      2  N   UNL     1     -34.371  26.608   3.662  0.00  0.00    -0.236 N 
ATOM      3  N   UNL     1     -36.345  26.723   2.632  0.00  0.00    -0.240 NA
ATOM      4  N   UNL     1     -34.654  24.522   4.874  0.00  0.00    -0.317 NA
ATOM      5  N   UNL     1     -36.847  23.539   4.447  0.00  0.00    -0.318 NA
ATOM      6  C   UNL     1     -35.063  25.495   4.047  0.00  0.00    +0.221 C 
ATOM      7  C   UNL     1     -35.182  27.314   2.813  0.00  0.00    +0.224 C 
ATOM      8  C   UNL     1     -36.284  25.584   3.397  0.00  0.00    +0.167 C 
ATOM      9  C   UNL     1     -37.193  24.556   3.621  0.00  0.00    +0.211 C 
ATOM     10  C   UNL     1     -35.617  23.585   5.014  0.00  0.00    +0.178 C 
ATOM     11  N   UNL     1     -38.455  24.566   3.004  0.00  0.00    -0.331 N 
ATOM     12  H   UNL     1     -39.091  23.832   3.170  0.00  0.00    +0.145 HD
ATOM     13  H   UNL     1     -38.705  25.306   2.404  0.00  0.00    +0.145 HD
ENDROOT
BRANCH   2  15
ATOM     14  O   UNL     1     -33.062  28.240   4.775  0.00  0.00    -0.335 OA
ATOM     15  C   UNL     1     -33.020  26.985   4.073  0.00  0.00    +0.223 C 
ATOM     16  C   UNL     1     -32.050  27.167   2.916  0.00  0.00    +0.160 C 
ATOM     17  C   UNL     1     -31.047  28.126   3.517  0.00  0.00    +0.066 C 
ATOM     18  C   UNL     1     -31.911  29.018   4.394  0.00  0.00    +0.149 C 
BRANCH  16  19
ATOM     19  O   UNL     1     -31.453  25.940   2.548  0.00  0.00    -0.380 OA
ATOM     20  H   UNL     1     -31.420  25.352   3.319  0.00  0.00    +0.211 HD
ENDBRANCH  16  19
BRANCH  18  21
ATOM     21  C   UNL     1     -32.386  30.273   3.678  0.00  0.00    +0.167 C 
BRANCH  21  22
ATOM     22  O   UNL     1     -33.587  30.723   4.284  0.00  0.00    -0.379 OA
ATOM     23  H   UNL     1     -33.927  31.492   3.800  0.00  0.00    +0.211 HD
ENDBRANCH  21  22
ENDBRANCH  18  21
ENDBRANCH   2  15
TORSDOF 4
ENDMDL
MODEL 5
REMARK VINA RESULT:      -5.5      4.866      6.462
REMARK  Name = 196709
REMARK  4 active torsions:
REMARK  status: ('A' for Active; 'I' for Inactive)
REMARK    1  A    between atoms: N_2  and  C_12
REMARK    2  A    between atoms: C_13  and  O_16
REMARK    3  A    between atoms: C_15  and  C_18
REMARK    4  A    between atoms: C_18  and  O_19
REMARK                            x       y       z     vdW  Elec       q    Type
REMARK                         _______ _______ _______ _____ _____    ______ ____
ROOT
ATOM      1 BR   UNL     1     -33.506  28.750   0.467  0.00  0.00    +0.062 Br
ATOM      2  N   UNL     1     -34.345  25.992   4.797  0.00  0.00    -0.236 N 
ATOM      3  N   UNL     1     -32.960  27.122   6.128  0.00  0.00    -0.240 NA
ATOM      4  N   UNL     1     -34.023  27.216   2.724  0.00  0.00    -0.317 NA
ATOM      5  N   UNL     1     -32.417  29.033   3.008  0.00  0.00    -0.318 NA
ATOM      6  C   UNL     1     -33.791  26.971   4.022  0.00  0.00    +0.221 C 
ATOM      7  C   UNL     1     -33.815  26.123   6.053  0.00  0.00    +0.224 C 
ATOM      8  C   UNL     1     -32.935  27.661   4.866  0.00  0.00    +0.167 C 
ATOM      9  C   UNL     1     -32.233  28.727   4.315  0.00  0.00    +0.211 C 
ATOM     10  C   UNL     1     -33.288  28.270   2.304  0.00  0.00    +0.178 C 
ATOM     11  N   UNL     1     -31.343  29.483   5.098  0.00  0.00    -0.331 N 
ATOM     12  H   UNL     1     -30.851  30.236   4.697  0.00  0.00    +0.145 HD
ATOM     13  H   UNL     1     -31.211  29.258   6.048  0.00  0.00    +0.145 HD
ENDROOT
BRANCH   2  15
ATOM     14  O   UNL     1     -35.838  24.304   5.530  0.00  0.00    -0.335 OA
ATOM     15  C   UNL     1     -35.320  24.989   4.376  0.00  0.00    +0.223 C 
ATOM     16  C   UNL     1     -34.751  23.919   3.457  0.00  0.00    +0.160 C 
ATOM     17  C   UNL     1     -35.692  22.766   3.723  0.00  0.00    +0.066 C 
ATOM     18  C   UNL     1     -35.998  22.910   5.205  0.00  0.00    +0.149 C 
BRANCH  16  19
ATOM     19  O   UNL     1     -34.787  24.330   2.105  0.00  0.00    -0.380 OA
ATOM     20  H   UNL     1     -35.624  24.788   1.929  0.00  0.00    +0.211 HD
ENDBRANCH  16  19
BRANCH  18  21
ATOM     21  C   UNL     1     -35.063  22.093   6.085  0.00  0.00    +0.167 C 
BRANCH  21  22
ATOM     22  O   UNL     1     -35.292  20.714   5.843  0.00  0.00    -0.379 OA
ATOM     23  H   UNL     1     -35.465  20.262   6.684  0.00  0.00    +0.211 HD
ENDBRANCH  21  22
ENDBRANCH  18  21
ENDBRANCH   2  15
TORSDOF 4
ENDMDL
MODEL 6
REMARK VINA RESULT:      -5.5      3.590      6.130
REMARK  Name = 196709
REMARK  4 active torsions:
REMARK  status: ('A' for Active; 'I' for Inactive)
REMARK    1  A    between atoms: N_2  and  C_12
REMARK    2  A    between atoms: C_13  and  O_16
REMARK    3  A    between atoms: C_15  and  C_18
REMARK    4  A    between atoms: C_18  and  O_19
REMARK                            x       y       z     vdW  Elec       q    Type
REMARK                         _______ _______ _______ _____ _____    ______ ____
ROOT
ATOM      1 BR   UNL     1     -39.646  27.279   0.175  0.00  0.00    +0.062 Br
ATOM      2  N   UNL     1     -37.426  23.283   2.656  0.00  0.00    -0.236 N 
ATOM      3  N   UNL     1     -38.803  21.691   1.923  0.00  0.00    -0.240 NA
ATOM      4  N   UNL     1     -38.389  25.214   1.541  0.00  0.00    -0.317 NA
ATOM      5  N   UNL     1     -40.325  24.585   0.194  0.00  0.00    -0.318 NA
ATOM      6  C   UNL     1     -38.329  23.909   1.845  0.00  0.00    +0.221 C 
ATOM      7  C   UNL     1     -37.751  21.952   2.671  0.00  0.00    +0.224 C 
ATOM      8  C   UNL     1     -39.174  22.904   1.401  0.00  0.00    +0.167 C 
ATOM      9  C   UNL     1     -40.203  23.281   0.544  0.00  0.00    +0.211 C 
ATOM     10  C   UNL     1     -39.423  25.457   0.706  0.00  0.00    +0.178 C 
ATOM     11  N   UNL     1     -41.107  22.328   0.045  0.00  0.00    -0.331 N 
ATOM     12  H   UNL     1     -41.832  22.607  -0.561  0.00  0.00    +0.145 HD
ATOM     13  H   UNL     1     -41.017  21.382   0.301  0.00  0.00    +0.145 HD
ENDROOT
BRANCH   2  15
ATOM     14  O   UNL     1     -35.416  22.888   3.848  0.00  0.00    -0.335 OA
ATOM     15  C   UNL     1     -36.316  23.905   3.376  0.00  0.00    +0.223 C 
ATOM     16  C   UNL     1     -36.743  24.707   4.596  0.00  0.00    +0.160 C 
ATOM     17  C   UNL     1     -35.491  24.652   5.441  0.00  0.00    +0.066 C 
ATOM     18  C   UNL     1     -34.950  23.259   5.160  0.00  0.00    +0.149 C 
BRANCH  16  19
ATOM     19  O   UNL     1     -37.086  26.033   4.245  0.00  0.00    -0.380 OA
ATOM     20  H   UNL     1     -36.932  26.618   5.003  0.00  0.00    +0.211 HD
ENDBRANCH  16  19
BRANCH  18  21
ATOM     21  C   UNL     1     -35.435  22.221   6.161  0.00  0.00    +0.167 C 
BRANCH  21  22
ATOM     22  O   UNL     1     -35.271  20.928   5.601  0.00  0.00    -0.379 OA
ATOM     23  H   UNL     1     -34.785  20.365   6.224  0.00  0.00    +0.211 HD
ENDBRANCH  21  22
ENDBRANCH  18  21
ENDBRANCH   2  15
TORSDOF 4
ENDMDL
MODEL 7
REMARK VINA RESULT:      -5.4      2.864      3.523
REMARK  Name = 196709
REMARK  4 active torsions:
REMARK  status: ('A' for Active; 'I' for Inactive)
REMARK    1  A    between atoms: N_2  and  C_12
REMARK    2  A    between atoms: C_13  and  O_16
REMARK    3  A    between atoms: C_15  and  C_18
REMARK    4  A    between atoms: C_18  and  O_19
REMARK                            x       y       z     vdW  Elec       q    Type
REMARK                         _______ _______ _______ _____ _____    ______ ____
ROOT
ATOM      1 BR   UNL     1     -35.192  21.646   6.043  0.00  0.00    +0.062 Br
ATOM      2  N   UNL     1     -35.966  24.086   1.515  0.00  0.00    -0.236 N 
ATOM      3  N   UNL     1     -36.518  26.077   2.354  0.00  0.00    -0.240 NA
ATOM      4  N   UNL     1     -35.581  22.858   3.575  0.00  0.00    -0.317 NA
ATOM      5  N   UNL     1     -35.950  24.270   5.531  0.00  0.00    -0.318 NA
ATOM      6  C   UNL     1     -35.905  23.954   2.873  0.00  0.00    +0.221 C 
ATOM      7  C   UNL     1     -36.338  25.379   1.252  0.00  0.00    +0.224 C 
ATOM      8  C   UNL     1     -36.251  25.199   3.375  0.00  0.00    +0.167 C 
ATOM      9  C   UNL     1     -36.267  25.337   4.759  0.00  0.00    +0.211 C 
ATOM     10  C   UNL     1     -35.630  23.114   4.900  0.00  0.00    +0.178 C 
ATOM     11  N   UNL     1     -36.606  26.564   5.354  0.00  0.00    -0.331 N 
ATOM     12  H   UNL     1     -36.614  26.650   6.336  0.00  0.00    +0.145 HD
ATOM     13  H   UNL     1     -36.836  27.338   4.791  0.00  0.00    +0.145 HD
ENDROOT
BRANCH   2  15
ATOM     14  O   UNL     1     -36.684  22.019   0.608  0.00  0.00    -0.335 OA
ATOM     15  C   UNL     1     -35.688  23.053   0.521  0.00  0.00    +0.223 C 
ATOM     16  C   UNL     1     -34.340  22.372   0.697  0.00  0.00    +0.160 C 
ATOM     17  C   UNL     1     -34.594  21.032   0.044  0.00  0.00    +0.066 C 
ATOM     18  C   UNL     1     -36.042  20.744   0.411  0.00  0.00    +0.149 C 
BRANCH  16  19
ATOM     19  O   UNL     1     -33.312  23.091   0.044  0.00  0.00    -0.380 OA
ATOM     20  H   UNL     1     -33.295  24.003   0.374  0.00  0.00    +0.211 HD
ENDBRANCH  16  19
BRANCH  18  21
ATOM     21  C   UNL     1     -36.178  19.927   1.687  0.00  0.00    +0.167 C 
BRANCH  21  22
ATOM     22  O   UNL     1     -37.215  20.482   2.481  0.00  0.00    -0.379 OA
ATOM     23  H   UNL     1     -37.172  21.450   2.440  0.00  0.00    +0.211 HD
ENDBRANCH  21  22
ENDBRANCH  18  21
ENDBRANCH   2  15
TORSDOF 4
ENDMDL
MODEL 8
REMARK VINA RESULT:      -5.4      3.402      5.817
REMARK  Name = 196709
REMARK  4 active torsions:
REMARK  status: ('A' for Active; 'I' for Inactive)
REMARK    1  A    between atoms: N_2  and  C_12
REMARK    2  A    between atoms: C_13  and  O_16
REMARK    3  A    between atoms: C_15  and  C_18
REMARK    4  A    between atoms: C_18  and  O_19
REMARK                            x       y       z     vdW  Elec       q    Type
REMARK                         _______ _______ _______ _____ _____    ______ ____
ROOT
ATOM      1 BR   UNL     1     -37.134  18.572  -0.369  0.00  0.00    +0.062 Br
ATOM      2  N   UNL     1     -37.996  22.747   2.611  0.00  0.00    -0.236 N 
ATOM      3  N   UNL     1     -40.058  23.193   1.890  0.00  0.00    -0.240 NA
ATOM      4  N   UNL     1     -37.496  20.790   1.264  0.00  0.00    -0.317 NA
ATOM      5  N   UNL     1     -39.367  20.217  -0.196  0.00  0.00    -0.318 NA
ATOM      6  C   UNL     1     -38.283  21.795   1.676  0.00  0.00    +0.221 C 
ATOM      7  C   UNL     1     -39.093  23.564   2.705  0.00  0.00    +0.224 C 
ATOM      8  C   UNL     1     -39.566  22.088   1.240  0.00  0.00    +0.167 C 
ATOM      9  C   UNL     1     -40.106  21.254   0.268  0.00  0.00    +0.211 C 
ATOM     10  C   UNL     1     -38.127  20.052   0.324  0.00  0.00    +0.178 C 
ATOM     11  N   UNL     1     -41.401  21.477  -0.231  0.00  0.00    -0.331 N 
ATOM     12  H   UNL     1     -41.773  20.879  -0.920  0.00  0.00    +0.145 HD
ATOM     13  H   UNL     1     -41.936  22.231   0.107  0.00  0.00    +0.145 HD
ENDROOT
BRANCH   2  15
ATOM     14  O   UNL     1     -36.971  23.762   4.491  0.00  0.00    -0.335 OA
ATOM     15  C   UNL     1     -36.757  22.880   3.375  0.00  0.00    +0.223 C 
ATOM     16  C   UNL     1     -35.600  23.462   2.579  0.00  0.00    +0.160 C 
ATOM     17  C   UNL     1     -34.757  24.069   3.678  0.00  0.00    +0.066 C 
ATOM     18  C   UNL     1     -35.798  24.581   4.662  0.00  0.00    +0.149 C 
BRANCH  16  19
ATOM     19  O   UNL     1     -34.902  22.453   1.875  0.00  0.00    -0.380 OA
ATOM     20  H   UNL     1     -33.947  22.581   1.989  0.00  0.00    +0.211 HD
ENDBRANCH  16  19
BRANCH  18  21
ATOM     21  C   UNL     1     -36.178  26.034   4.420  0.00  0.00    +0.167 C 
BRANCH  21  22
ATOM     22  O   UNL     1     -36.687  26.583   5.625  0.00  0.00    -0.379 OA
ATOM     23  H   UNL     1     -36.192  26.225   6.379  0.00  0.00    +0.211 HD
ENDBRANCH  21  22
ENDBRANCH  18  21
ENDBRANCH   2  15
TORSDOF 4
ENDMDL
MODEL 9
REMARK VINA RESULT:      -5.3      2.411      2.780
REMARK  Name = 196709
REMARK  4 active torsions:
REMARK  status: ('A' for Active; 'I' for Inactive)
REMARK    1  A    between atoms: N_2  and  C_12
REMARK    2  A    between atoms: C_13  and  O_16
REMARK    3  A    between atoms: C_15  and  C_18
REMARK    4  A    between atoms: C_18  and  O_19
REMARK                            x       y       z     vdW  Elec       q    Type
REMARK                         _______ _______ _______ _____ _____    ______ ____
ROOT
ATOM      1 BR   UNL     1     -35.248  22.102   6.319  0.00  0.00    +0.062 Br
ATOM      2  N   UNL     1     -36.555  22.546   1.304  0.00  0.00    -0.236 N 
ATOM      3  N   UNL     1     -37.387  24.612   1.407  0.00  0.00    -0.240 NA
ATOM      4  N   UNL     1     -35.909  22.240   3.625  0.00  0.00    -0.317 NA
ATOM      5  N   UNL     1     -36.430  24.217   4.958  0.00  0.00    -0.318 NA
ATOM      6  C   UNL     1     -36.427  22.941   2.605  0.00  0.00    +0.221 C 
ATOM      7  C   UNL     1     -37.137  23.584   0.623  0.00  0.00    +0.224 C 
ATOM      8  C   UNL     1     -36.949  24.224   2.649  0.00  0.00    +0.167 C 
ATOM      9  C   UNL     1     -36.940  24.865   3.882  0.00  0.00    +0.211 C 
ATOM     10  C   UNL     1     -35.953  22.964   4.765  0.00  0.00    +0.178 C 
ATOM     11  N   UNL     1     -37.449  26.168   4.019  0.00  0.00    -0.331 N 
ATOM     12  H   UNL     1     -37.437  26.612   4.898  0.00  0.00    +0.145 HD
ATOM     13  H   UNL     1     -37.818  26.637   3.235  0.00  0.00    +0.145 HD
ENDROOT
BRANCH   2  15
ATOM     14  O   UNL     1     -36.095  21.369  -0.700  0.00  0.00    -0.335 OA
ATOM     15  C   UNL     1     -36.150  21.263   0.733  0.00  0.00    +0.223 C 
ATOM     16  C   UNL     1     -37.101  20.119   1.047  0.00  0.00    +0.160 C 
ATOM     17  C   UNL     1     -36.841  19.188  -0.115  0.00  0.00    +0.066 C 
ATOM     18  C   UNL     1     -36.598  20.145  -1.271  0.00  0.00    +0.149 C 
BRANCH  16  19
ATOM     19  O   UNL     1     -36.788  19.517   2.287  0.00  0.00    -0.380 OA
ATOM     20  H   UNL     1     -37.143  20.058   3.009  0.00  0.00    +0.211 HD
ENDBRANCH  16  19
BRANCH  18  21
ATOM     21  C   UNL     1     -37.862  20.457  -2.058  0.00  0.00    +0.167 C 
BRANCH  21  22
ATOM     22  O   UNL     1     -37.783  21.787  -2.547  0.00  0.00    -0.379 OA
ATOM     23  H   UNL     1     -38.317  21.868  -3.353  0.00  0.00    +0.211 HD
ENDBRANCH  21  22
ENDBRANCH  18  21
ENDBRANCH   2  15
TORSDOF 4
ENDMDL
