MODEL 1
REMARK VINA RESULT:      -6.7      0.000      0.000
REMARK  Name = 5464097
REMARK  10 active torsions:
REMARK  status: ('A' for Active; 'I' for Inactive)
REMARK    1  A    between atoms: CA_1  and  C_13
REMARK    2  A    between atoms: CA_1  and  N_18
REMARK    3  A    between atoms: CA_8  and  C_15
REMARK    4  A    between atoms: C_15  and  O_16
REMARK    5  A    between atoms: N_18  and  CA_21
REMARK    6  A    between atoms: CA_21  and  C_23
REMARK    7  A    between atoms: CA_21  and  C_26
REMARK    8  A    between atoms: C_23  and  O_24
REMARK    9  A    between atoms: C_26  and  C_27
REMARK   10  A    between atoms: C_27  and  C_28
REMARK                            x       y       z     vdW  Elec       q    Type
REMARK                         _______ _______ _______ _____ _____    ______ ____
ROOT
ATOM      1  CA  UNL     1     -37.201  23.431   3.221  0.00  0.00    +0.018 C 
ATOM      2  CB  UNL     1     -38.466  24.241   3.025  0.00  0.00    -0.014 C 
ENDROOT
BRANCH   1  13
ATOM      3  O   UNL     1     -35.630  24.800   2.087  0.00  0.00    -0.277 OA
ATOM      4  N   UNL     1     -36.065  22.720   1.159  0.00  0.00    -0.275 N 
ATOM      5  C   UNL     1     -35.413  21.580  -0.789  0.00  0.00    +0.020 C 
ATOM      6  C   UNL     1     -35.475  22.972  -0.153  0.00  0.00    +0.076 C 
ATOM      7  C   UNL     1     -36.714  20.952  -0.308  0.00  0.00    +0.033 C 
ATOM      8  CA  UNL     1     -36.759  21.423   1.155  0.00  0.00    +0.174 C 
ATOM      9  C   UNL     1     -35.164  21.695  -2.281  0.00  0.00    +0.002 C 
ATOM     10  C   UNL     1     -34.091  23.605  -0.243  0.00  0.00    +0.020 C 
ATOM     11  C   UNL     1     -33.816  22.398  -2.499  0.00  0.00    +0.000 C 
ATOM     12  C   UNL     1     -33.685  23.717  -1.722  0.00  0.00    +0.002 C 
ATOM     13  C   UNL     1     -36.225  23.721   2.108  0.00  0.00    +0.206 C 
BRANCH   8  15
ATOM     14  OXT UNL     1     -34.793  20.430   2.153  0.00  0.00    -0.248 OA
ATOM     15  C   UNL     1     -36.010  20.475   2.043  0.00  0.00    +0.332 C 
BRANCH  15  16
ATOM     16  O   UNL     1     -36.867  19.666   2.711  0.00  0.00    -0.479 OA
ATOM     17  H   UNL     1     -37.347  19.009   2.249  0.00  0.00    +0.295 HD
ENDBRANCH  15  16
ENDBRANCH   8  15
ENDBRANCH   1  13
BRANCH   1  18
ATOM     18  N   UNL     1     -36.540  23.786   4.465  0.00  0.00    +0.399 N 
ATOM     19  H1  UNL     1     -37.158  23.565   5.245  0.00  0.00    -0.083 HD
ATOM     20  H2  UNL     1     -36.328  24.783   4.446  0.00  0.00    -0.083 HD
BRANCH  18  21
ATOM     21  CA  UNL     1     -35.290  23.051   4.624  0.00  0.00    +0.041 C 
BRANCH  21  23
ATOM     22  OXT UNL     1     -36.080  22.083   6.714  0.00  0.00    -0.253 OA
ATOM     23  C   UNL     1     -35.559  21.933   5.617  0.00  0.00    +0.293 C 
BRANCH  23  24
ATOM     24  O   UNL     1     -35.179  20.718   5.145  0.00  0.00    -0.482 OA
ATOM     25  H   UNL     1     -34.363  20.624   4.695  0.00  0.00    +0.295 HD
ENDBRANCH  23  24
ENDBRANCH  21  23
BRANCH  21  26
ATOM     26  C   UNL     1     -34.206  24.004   5.144  0.00  0.00    -0.006 C 
BRANCH  26  27
ATOM     27  C   UNL     1     -34.731  25.368   5.619  0.00  0.00    +0.025 C 
BRANCH  27  28
ATOM     28  C   UNL     1     -33.727  26.492   5.529  0.00  0.00    -0.022 C 
ATOM     29  C   UNL     1     -33.479  27.108   4.303  0.00  0.00    -0.004 C 
ATOM     30  C   UNL     1     -33.049  26.914   6.673  0.00  0.00    -0.004 C 
ATOM     31  C   UNL     1     -32.552  28.147   4.220  0.00  0.00    -0.000 C 
ATOM     32  C   UNL     1     -32.122  27.953   6.590  0.00  0.00    -0.000 C 
ATOM     33  C   UNL     1     -31.874  28.569   5.363  0.00  0.00    -0.000 C 
ENDBRANCH  27  28
ENDBRANCH  26  27
ENDBRANCH  21  26
ENDBRANCH  18  21
ENDBRANCH   1  18
TORSDOF 10
ENDMDL
MODEL 2
REMARK VINA RESULT:      -6.7      2.257      6.980
REMARK  Name = 5464097
REMARK  10 active torsions:
REMARK  status: ('A' for Active; 'I' for Inactive)
REMARK    1  A    between atoms: CA_1  and  C_13
REMARK    2  A    between atoms: CA_1  and  N_18
REMARK    3  A    between atoms: CA_8  and  C_15
REMARK    4  A    between atoms: C_15  and  O_16
REMARK    5  A    between atoms: N_18  and  CA_21
REMARK    6  A    between atoms: CA_21  and  C_23
REMARK    7  A    between atoms: CA_21  and  C_26
REMARK    8  A    between atoms: C_23  and  O_24
REMARK    9  A    between atoms: C_26  and  C_27
REMARK   10  A    between atoms: C_27  and  C_28
REMARK                            x       y       z     vdW  Elec       q    Type
REMARK                         _______ _______ _______ _____ _____    ______ ____
ROOT
ATOM      1  CA  UNL     1     -35.267  25.042   3.940  0.00  0.00    +0.018 C 
ATOM      2  CB  UNL     1     -36.723  25.112   4.353  0.00  0.00    -0.014 C 
ENDROOT
BRANCH   1  13
ATOM      3  O   UNL     1     -34.523  25.758   6.077  0.00  0.00    -0.277 OA
ATOM      4  N   UNL     1     -33.587  26.813   4.237  0.00  0.00    -0.275 N 
ATOM      5  C   UNL     1     -32.091  28.593   3.904  0.00  0.00    +0.020 C 
ATOM      6  C   UNL     1     -33.010  27.951   4.947  0.00  0.00    +0.076 C 
ATOM      7  C   UNL     1     -32.900  28.433   2.625  0.00  0.00    +0.033 C 
ATOM      8  CA  UNL     1     -33.450  27.007   2.786  0.00  0.00    +0.174 C 
ATOM      9  C   UNL     1     -31.687  29.987   4.345  0.00  0.00    +0.002 C 
ATOM     10  C   UNL     1     -32.203  27.711   6.218  0.00  0.00    +0.020 C 
ATOM     11  C   UNL     1     -30.924  29.878   5.674  0.00  0.00    +0.000 C 
ATOM     12  C   UNL     1     -31.671  29.057   6.738  0.00  0.00    +0.002 C 
ATOM     13  C   UNL     1     -34.428  25.898   4.857  0.00  0.00    +0.206 C 
BRANCH   8  15
ATOM     14  OXT UNL     1     -31.337  25.835   2.674  0.00  0.00    -0.248 OA
ATOM     15  C   UNL     1     -32.475  25.997   2.257  0.00  0.00    +0.332 C 
BRANCH  15  16
ATOM     16  O   UNL     1     -33.026  25.284   1.245  0.00  0.00    -0.479 OA
ATOM     17  H   UNL     1     -33.906  25.455   0.977  0.00  0.00    +0.295 HD
ENDBRANCH  15  16
ENDBRANCH   8  15
ENDBRANCH   1  13
BRANCH   1  18
ATOM     18  N   UNL     1     -34.756  23.686   4.048  0.00  0.00    +0.399 N 
ATOM     19  H1  UNL     1     -34.049  23.654   4.782  0.00  0.00    -0.083 HD
ATOM     20  H2  UNL     1     -34.353  23.420   3.150  0.00  0.00    -0.083 HD
BRANCH  18  21
ATOM     21  CA  UNL     1     -35.823  22.746   4.373  0.00  0.00    +0.041 C 
BRANCH  21  23
ATOM     22  OXT UNL     1     -35.239  22.490   6.722  0.00  0.00    -0.253 OA
ATOM     23  C   UNL     1     -35.383  21.989   5.614  0.00  0.00    +0.293 C 
BRANCH  23  24
ATOM     24  O   UNL     1     -35.187  20.668   5.374  0.00  0.00    -0.482 OA
ATOM     25  H   UNL     1     -34.802  20.390   4.566  0.00  0.00    +0.295 HD
ENDBRANCH  23  24
ENDBRANCH  21  23
BRANCH  21  26
ATOM     26  C   UNL     1     -36.035  21.793   3.189  0.00  0.00    -0.006 C 
BRANCH  26  27
ATOM     27  C   UNL     1     -35.316  22.212   1.897  0.00  0.00    +0.025 C 
BRANCH  27  28
ATOM     28  C   UNL     1     -34.331  21.196   1.370  0.00  0.00    -0.022 C 
ATOM     29  C   UNL     1     -34.343  19.892   1.866  0.00  0.00    -0.004 C 
ATOM     30  C   UNL     1     -33.411  21.561   0.388  0.00  0.00    -0.004 C 
ATOM     31  C   UNL     1     -33.434  18.953   1.379  0.00  0.00    -0.000 C 
ATOM     32  C   UNL     1     -32.502  20.622  -0.099  0.00  0.00    -0.000 C 
ATOM     33  C   UNL     1     -32.514  19.318   0.397  0.00  0.00    -0.000 C 
ENDBRANCH  27  28
ENDBRANCH  26  27
ENDBRANCH  21  26
ENDBRANCH  18  21
ENDBRANCH   1  18
TORSDOF 10
ENDMDL
MODEL 3
REMARK VINA RESULT:      -6.4      2.765      4.480
REMARK  Name = 5464097
REMARK  10 active torsions:
REMARK  status: ('A' for Active; 'I' for Inactive)
REMARK    1  A    between atoms: CA_1  and  C_13
REMARK    2  A    between atoms: CA_1  and  N_18
REMARK    3  A    between atoms: CA_8  and  C_15
REMARK    4  A    between atoms: C_15  and  O_16
REMARK    5  A    between atoms: N_18  and  CA_21
REMARK    6  A    between atoms: CA_21  and  C_23
REMARK    7  A    between atoms: CA_21  and  C_26
REMARK    8  A    between atoms: C_23  and  O_24
REMARK    9  A    between atoms: C_26  and  C_27
REMARK   10  A    between atoms: C_27  and  C_28
REMARK                            x       y       z     vdW  Elec       q    Type
REMARK                         _______ _______ _______ _____ _____    ______ ____
ROOT
ATOM      1  CA  UNL     1     -36.450  23.144   2.556  0.00  0.00    +0.018 C 
ATOM      2  CB  UNL     1     -35.148  22.517   2.100  0.00  0.00    -0.014 C 
ENDROOT
BRANCH   1  13
ATOM      3  O   UNL     1     -37.649  21.392   1.496  0.00  0.00    -0.277 OA
ATOM      4  N   UNL     1     -38.542  23.525   1.322  0.00  0.00    -0.275 N 
ATOM      5  C   UNL     1     -40.369  24.495   0.208  0.00  0.00    +0.020 C 
ATOM      6  C   UNL     1     -39.480  23.248   0.238  0.00  0.00    +0.076 C 
ATOM      7  C   UNL     1     -39.368  25.606   0.494  0.00  0.00    +0.033 C 
ATOM      8  CA  UNL     1     -38.511  24.969   1.599  0.00  0.00    +0.174 C 
ATOM      9  C   UNL     1     -41.166  24.542  -1.082  0.00  0.00    +0.002 C 
ATOM     10  C   UNL     1     -40.377  22.018   0.319  0.00  0.00    +0.020 C 
ATOM     11  C   UNL     1     -42.062  23.295  -1.149  0.00  0.00    +0.000 C 
ATOM     12  C   UNL     1     -41.297  21.983  -0.913  0.00  0.00    +0.002 C 
ATOM     13  C   UNL     1     -37.598  22.598   1.745  0.00  0.00    +0.206 C 
BRANCH   8  15
ATOM     14  OXT UNL     1     -39.625  24.351   3.655  0.00  0.00    -0.248 OA
ATOM     15  C   UNL     1     -39.117  25.211   2.950  0.00  0.00    +0.332 C 
BRANCH  15  16
ATOM     16  O   UNL     1     -39.030  26.521   3.286  0.00  0.00    -0.479 OA
ATOM     17  H   UNL     1     -38.739  27.148   2.655  0.00  0.00    +0.295 HD
ENDBRANCH  15  16
ENDBRANCH   8  15
ENDBRANCH   1  13
BRANCH   1  18
ATOM     18  N   UNL     1     -36.727  22.823   3.946  0.00  0.00    +0.399 N 
ATOM     19  H1  UNL     1     -37.065  21.862   4.005  0.00  0.00    -0.083 HD
ATOM     20  H2  UNL     1     -37.432  23.473   4.294  0.00  0.00    -0.083 HD
BRANCH  18  21
ATOM     21  CA  UNL     1     -35.529  22.958   4.766  0.00  0.00    +0.041 C 
BRANCH  21  23
ATOM     22  OXT UNL     1     -36.008  21.949   6.929  0.00  0.00    -0.253 OA
ATOM     23  C   UNL     1     -35.567  21.839   5.792  0.00  0.00    +0.293 C 
BRANCH  23  24
ATOM     24  O   UNL     1     -35.077  20.670   5.305  0.00  0.00    -0.482 OA
ATOM     25  H   UNL     1     -34.626  20.657   4.484  0.00  0.00    +0.295 HD
ENDBRANCH  23  24
ENDBRANCH  21  23
BRANCH  21  26
ATOM     26  C   UNL     1     -35.534  24.333   5.447  0.00  0.00    -0.006 C 
BRANCH  26  27
ATOM     27  C   UNL     1     -34.320  25.214   5.112  0.00  0.00    +0.025 C 
BRANCH  27  28
ATOM     28  C   UNL     1     -34.366  25.852   3.745  0.00  0.00    -0.022 C 
ATOM     29  C   UNL     1     -33.294  25.694   2.865  0.00  0.00    -0.004 C 
ATOM     30  C   UNL     1     -35.480  26.598   3.360  0.00  0.00    -0.004 C 
ATOM     31  C   UNL     1     -33.337  26.282   1.601  0.00  0.00    -0.000 C 
ATOM     32  C   UNL     1     -35.522  27.187   2.096  0.00  0.00    -0.000 C 
ATOM     33  C   UNL     1     -34.451  27.028   1.217  0.00  0.00    -0.000 C 
ENDBRANCH  27  28
ENDBRANCH  26  27
ENDBRANCH  21  26
ENDBRANCH  18  21
ENDBRANCH   1  18
TORSDOF 10
ENDMDL
MODEL 4
REMARK VINA RESULT:      -6.4      2.225      6.640
REMARK  Name = 5464097
REMARK  10 active torsions:
REMARK  status: ('A' for Active; 'I' for Inactive)
REMARK    1  A    between atoms: CA_1  and  C_13
REMARK    2  A    between atoms: CA_1  and  N_18
REMARK    3  A    between atoms: CA_8  and  C_15
REMARK    4  A    between atoms: C_15  and  O_16
REMARK    5  A    between atoms: N_18  and  CA_21
REMARK    6  A    between atoms: CA_21  and  C_23
REMARK    7  A    between atoms: CA_21  and  C_26
REMARK    8  A    between atoms: C_23  and  O_24
REMARK    9  A    between atoms: C_26  and  C_27
REMARK   10  A    between atoms: C_27  and  C_28
REMARK                            x       y       z     vdW  Elec       q    Type
REMARK                         _______ _______ _______ _____ _____    ______ ____
ROOT
ATOM      1  CA  UNL     1     -37.261  24.166   3.159  0.00  0.00    +0.018 C 
ATOM      2  CB  UNL     1     -38.623  24.796   3.369  0.00  0.00    -0.014 C 
ENDROOT
BRANCH   1  13
ATOM      3  O   UNL     1     -36.348  24.349   5.342  0.00  0.00    -0.277 OA
ATOM      4  N   UNL     1     -35.342  25.612   3.678  0.00  0.00    -0.275 N 
ATOM      5  C   UNL     1     -33.626  27.214   3.592  0.00  0.00    +0.020 C 
ATOM      6  C   UNL     1     -34.587  26.507   4.551  0.00  0.00    +0.076 C 
ATOM      7  C   UNL     1     -34.496  27.413   2.359  0.00  0.00    +0.033 C 
ATOM      8  CA  UNL     1     -35.233  26.066   2.283  0.00  0.00    +0.174 C 
ATOM      9  C   UNL     1     -33.017  28.432   4.261  0.00  0.00    +0.002 C 
ATOM     10  C   UNL     1     -33.775  25.921   5.702  0.00  0.00    +0.020 C 
ATOM     11  C   UNL     1     -32.228  27.968   5.496  0.00  0.00    +0.000 C 
ATOM     12  C   UNL     1     -33.042  27.060   6.431  0.00  0.00    +0.002 C 
ATOM     13  C   UNL     1     -36.279  24.711   4.166  0.00  0.00    +0.206 C 
BRANCH   8  15
ATOM     14  OXT UNL     1     -34.065  23.975   1.943  0.00  0.00    -0.248 OA
ATOM     15  C   UNL     1     -34.427  25.061   1.514  0.00  0.00    +0.332 C 
BRANCH  15  16
ATOM     16  O   UNL     1     -34.149  25.522   0.270  0.00  0.00    -0.479 OA
ATOM     17  H   UNL     1     -33.323  25.331  -0.126  0.00  0.00    +0.295 HD
ENDBRANCH  15  16
ENDBRANCH   8  15
ENDBRANCH   1  13
BRANCH   1  18
ATOM     18  N   UNL     1     -37.314  22.728   3.359  0.00  0.00    +0.399 N 
ATOM     19  H1  UNL     1     -38.280  22.450   3.531  0.00  0.00    -0.083 HD
ATOM     20  H2  UNL     1     -36.726  22.491   4.159  0.00  0.00    -0.083 HD
BRANCH  18  21
ATOM     21  CA  UNL     1     -36.813  22.015   2.190  0.00  0.00    +0.041 C 
BRANCH  21  23
ATOM     22  OXT UNL     1     -38.187  21.385   0.281  0.00  0.00    -0.253 OA
ATOM     23  C   UNL     1     -38.019  21.407   1.494  0.00  0.00    +0.293 C 
BRANCH  23  24
ATOM     24  O   UNL     1     -38.899  20.855   2.367  0.00  0.00    -0.482 OA
ATOM     25  H   UNL     1     -39.750  20.593   2.072  0.00  0.00    +0.295 HD
ENDBRANCH  23  24
ENDBRANCH  21  23
BRANCH  21  26
ATOM     26  C   UNL     1     -35.829  20.929   2.642  0.00  0.00    -0.006 C 
BRANCH  26  27
ATOM     27  C   UNL     1     -35.556  19.839   1.592  0.00  0.00    +0.025 C 
BRANCH  27  28
ATOM     28  C   UNL     1     -34.122  19.762   1.127  0.00  0.00    -0.022 C 
ATOM     29  C   UNL     1     -33.565  20.820   0.408  0.00  0.00    -0.004 C 
ATOM     30  C   UNL     1     -33.355  18.635   1.418  0.00  0.00    -0.004 C 
ATOM     31  C   UNL     1     -32.240  20.749  -0.022  0.00  0.00    -0.000 C 
ATOM     32  C   UNL     1     -32.029  18.564   0.989  0.00  0.00    -0.000 C 
ATOM     33  C   UNL     1     -31.472  19.622   0.269  0.00  0.00    -0.000 C 
ENDBRANCH  27  28
ENDBRANCH  26  27
ENDBRANCH  21  26
ENDBRANCH  18  21
ENDBRANCH   1  18
TORSDOF 10
ENDMDL
MODEL 5
REMARK VINA RESULT:      -6.4      5.289      7.566
REMARK  Name = 5464097
REMARK  10 active torsions:
REMARK  status: ('A' for Active; 'I' for Inactive)
REMARK    1  A    between atoms: CA_1  and  C_13
REMARK    2  A    between atoms: CA_1  and  N_18
REMARK    3  A    between atoms: CA_8  and  C_15
REMARK    4  A    between atoms: C_15  and  O_16
REMARK    5  A    between atoms: N_18  and  CA_21
REMARK    6  A    between atoms: CA_21  and  C_23
REMARK    7  A    between atoms: CA_21  and  C_26
REMARK    8  A    between atoms: C_23  and  O_24
REMARK    9  A    between atoms: C_26  and  C_27
REMARK   10  A    between atoms: C_27  and  C_28
REMARK                            x       y       z     vdW  Elec       q    Type
REMARK                         _______ _______ _______ _____ _____    ______ ____
ROOT
ATOM      1  CA  UNL     1     -35.198  28.195   2.541  0.00  0.00    +0.018 C 
ATOM      2  CB  UNL     1     -34.092  28.252   1.507  0.00  0.00    -0.014 C 
ENDROOT
BRANCH   1  13
ATOM      3  O   UNL     1     -34.150  27.246   4.446  0.00  0.00    -0.277 OA
ATOM      4  N   UNL     1     -35.624  25.889   3.280  0.00  0.00    -0.275 N 
ATOM      5  C   UNL     1     -36.313  23.648   3.421  0.00  0.00    +0.020 C 
ATOM      6  C   UNL     1     -35.217  24.617   3.870  0.00  0.00    +0.076 C 
ATOM      7  C   UNL     1     -36.596  24.122   2.002  0.00  0.00    +0.033 C 
ATOM      8  CA  UNL     1     -36.570  25.649   2.179  0.00  0.00    +0.174 C 
ATOM      9  C   UNL     1     -35.868  22.214   3.638  0.00  0.00    +0.002 C 
ATOM     10  C   UNL     1     -35.067  24.508   5.384  0.00  0.00    +0.020 C 
ATOM     11  C   UNL     1     -35.608  22.003   5.137  0.00  0.00    +0.000 C 
ATOM     12  C   UNL     1     -34.679  23.064   5.748  0.00  0.00    +0.002 C 
ATOM     13  C   UNL     1     -34.937  27.073   3.515  0.00  0.00    +0.206 C 
BRANCH   8  15
ATOM     14  OXT UNL     1     -38.775  26.572   1.815  0.00  0.00    -0.248 OA
ATOM     15  C   UNL     1     -37.919  26.161   2.585  0.00  0.00    +0.332 C 
BRANCH  15  16
ATOM     16  O   UNL     1     -38.065  26.111   3.932  0.00  0.00    -0.479 OA
ATOM     17  H   UNL     1     -37.757  25.367   4.408  0.00  0.00    +0.295 HD
ENDBRANCH  15  16
ENDBRANCH   8  15
ENDBRANCH   1  13
BRANCH   1  18
ATOM     18  N   UNL     1     -35.253  29.422   3.317  0.00  0.00    +0.399 N 
ATOM     19  H1  UNL     1     -34.531  29.392   4.037  0.00  0.00    -0.083 HD
ATOM     20  H2  UNL     1     -36.178  29.496   3.741  0.00  0.00    -0.083 HD
BRANCH  18  21
ATOM     21  CA  UNL     1     -35.036  30.590   2.472  0.00  0.00    +0.041 C 
BRANCH  21  23
ATOM     22  OXT UNL     1     -33.452  32.430   2.648  0.00  0.00    -0.253 OA
ATOM     23  C   UNL     1     -33.905  31.386   3.099  0.00  0.00    +0.293 C 
BRANCH  23  24
ATOM     24  O   UNL     1     -33.452  30.827   4.250  0.00  0.00    -0.482 OA
ATOM     25  H   UNL     1     -32.530  30.732   4.395  0.00  0.00    +0.295 HD
ENDBRANCH  23  24
ENDBRANCH  21  23
BRANCH  21  26
ATOM     26  C   UNL     1     -36.327  31.417   2.412  0.00  0.00    -0.006 C 
BRANCH  26  27
ATOM     27  C   UNL     1     -36.496  32.242   1.126  0.00  0.00    +0.025 C 
BRANCH  27  28
ATOM     28  C   UNL     1     -37.180  33.573   1.321  0.00  0.00    -0.022 C 
ATOM     29  C   UNL     1     -38.420  33.633   1.957  0.00  0.00    -0.004 C 
ATOM     30  C   UNL     1     -36.571  34.743   0.865  0.00  0.00    -0.004 C 
ATOM     31  C   UNL     1     -39.052  34.864   2.137  0.00  0.00    -0.000 C 
ATOM     32  C   UNL     1     -37.203  35.973   1.046  0.00  0.00    -0.000 C 
ATOM     33  C   UNL     1     -38.443  36.033   1.682  0.00  0.00    -0.000 C 
ENDBRANCH  27  28
ENDBRANCH  26  27
ENDBRANCH  21  26
ENDBRANCH  18  21
ENDBRANCH   1  18
TORSDOF 10
ENDMDL
MODEL 6
REMARK VINA RESULT:      -6.3      2.544      6.665
REMARK  Name = 5464097
REMARK  10 active torsions:
REMARK  status: ('A' for Active; 'I' for Inactive)
REMARK    1  A    between atoms: CA_1  and  C_13
REMARK    2  A    between atoms: CA_1  and  N_18
REMARK    3  A    between atoms: CA_8  and  C_15
REMARK    4  A    between atoms: C_15  and  O_16
REMARK    5  A    between atoms: N_18  and  CA_21
REMARK    6  A    between atoms: CA_21  and  C_23
REMARK    7  A    between atoms: CA_21  and  C_26
REMARK    8  A    between atoms: C_23  and  O_24
REMARK    9  A    between atoms: C_26  and  C_27
REMARK   10  A    between atoms: C_27  and  C_28
REMARK                            x       y       z     vdW  Elec       q    Type
REMARK                         _______ _______ _______ _____ _____    ______ ____
ROOT
ATOM      1  CA  UNL     1     -34.878  25.397   4.556  0.00  0.00    +0.018 C 
ATOM      2  CB  UNL     1     -36.264  25.571   5.144  0.00  0.00    -0.014 C 
ENDROOT
BRANCH   1  13
ATOM      3  O   UNL     1     -33.818  26.292   6.481  0.00  0.00    -0.277 OA
ATOM      4  N   UNL     1     -33.152  27.143   4.429  0.00  0.00    -0.275 N 
ATOM      5  C   UNL     1     -31.701  28.844   3.708  0.00  0.00    +0.020 C 
ATOM      6  C   UNL     1     -32.463  28.329   4.932  0.00  0.00    +0.076 C 
ATOM      7  C   UNL     1     -32.693  28.585   2.583  0.00  0.00    +0.033 C 
ATOM      8  CA  UNL     1     -33.230  27.195   2.962  0.00  0.00    +0.174 C 
ATOM      9  C   UNL     1     -31.220  30.263   3.948  0.00  0.00    +0.002 C 
ATOM     10  C   UNL     1     -31.480  28.189   6.089  0.00  0.00    +0.020 C 
ATOM     11  C   UNL     1     -30.270  30.261   5.155  0.00  0.00    +0.000 C 
ATOM     12  C   UNL     1     -30.861  29.564   6.392  0.00  0.00    +0.002 C 
ATOM     13  C   UNL     1     -33.903  26.314   5.252  0.00  0.00    +0.206 C 
BRANCH   8  15
ATOM     14  OXT UNL     1     -31.177  25.951   2.673  0.00  0.00    -0.248 OA
ATOM     15  C   UNL     1     -32.356  26.115   2.397  0.00  0.00    +0.332 C 
BRANCH  15  16
ATOM     16  O   UNL     1     -33.052  25.341   1.529  0.00  0.00    -0.479 OA
ATOM     17  H   UNL     1     -33.798  24.859   1.826  0.00  0.00    +0.295 HD
ENDBRANCH  15  16
ENDBRANCH   8  15
ENDBRANCH   1  13
BRANCH   1  18
ATOM     18  N   UNL     1     -34.393  24.041   4.751  0.00  0.00    +0.399 N 
ATOM     19  H1  UNL     1     -33.997  23.961   5.688  0.00  0.00    -0.083 HD
ATOM     20  H2  UNL     1     -33.684  23.847   4.045  0.00  0.00    -0.083 HD
BRANCH  18  21
ATOM     21  CA  UNL     1     -35.471  23.070   4.604  0.00  0.00    +0.041 C 
BRANCH  21  23
ATOM     22  OXT UNL     1     -35.287  22.273   6.897  0.00  0.00    -0.253 OA
ATOM     23  C   UNL     1     -35.283  22.032   5.697  0.00  0.00    +0.293 C 
BRANCH  23  24
ATOM     24  O   UNL     1     -35.132  20.777   5.201  0.00  0.00    -0.482 OA
ATOM     25  H   UNL     1     -34.676  20.128   5.700  0.00  0.00    +0.295 HD
ENDBRANCH  23  24
ENDBRANCH  21  23
BRANCH  21  26
ATOM     26  C   UNL     1     -35.388  22.430   3.212  0.00  0.00    -0.006 C 
BRANCH  26  27
ATOM     27  C   UNL     1     -36.729  22.354   2.465  0.00  0.00    +0.025 C 
BRANCH  27  28
ATOM     28  C   UNL     1     -37.403  23.687   2.249  0.00  0.00    -0.022 C 
ATOM     29  C   UNL     1     -36.765  24.677   1.501  0.00  0.00    -0.004 C 
ATOM     30  C   UNL     1     -38.662  23.929   2.796  0.00  0.00    -0.004 C 
ATOM     31  C   UNL     1     -37.387  25.909   1.300  0.00  0.00    -0.000 C 
ATOM     32  C   UNL     1     -39.285  25.161   2.595  0.00  0.00    -0.000 C 
ATOM     33  C   UNL     1     -38.647  26.151   1.847  0.00  0.00    -0.000 C 
ENDBRANCH  27  28
ENDBRANCH  26  27
ENDBRANCH  21  26
ENDBRANCH  18  21
ENDBRANCH   1  18
TORSDOF 10
ENDMDL
MODEL 7
REMARK VINA RESULT:      -6.2      4.131      8.271
REMARK  Name = 5464097
REMARK  10 active torsions:
REMARK  status: ('A' for Active; 'I' for Inactive)
REMARK    1  A    between atoms: CA_1  and  C_13
REMARK    2  A    between atoms: CA_1  and  N_18
REMARK    3  A    between atoms: CA_8  and  C_15
REMARK    4  A    between atoms: C_15  and  O_16
REMARK    5  A    between atoms: N_18  and  CA_21
REMARK    6  A    between atoms: CA_21  and  C_23
REMARK    7  A    between atoms: CA_21  and  C_26
REMARK    8  A    between atoms: C_23  and  O_24
REMARK    9  A    between atoms: C_26  and  C_27
REMARK   10  A    between atoms: C_27  and  C_28
REMARK                            x       y       z     vdW  Elec       q    Type
REMARK                         _______ _______ _______ _____ _____    ______ ____
ROOT
ATOM      1  CA  UNL     1     -33.679  27.542   3.716  0.00  0.00    +0.018 C 
ATOM      2  CB  UNL     1     -33.200  26.597   2.633  0.00  0.00    -0.014 C 
ENDROOT
BRANCH   1  13
ATOM      3  O   UNL     1     -33.750  29.707   2.747  0.00  0.00    -0.277 OA
ATOM      4  N   UNL     1     -31.929  29.227   4.100  0.00  0.00    -0.275 N 
ATOM      5  C   UNL     1     -29.954  30.340   4.714  0.00  0.00    +0.020 C 
ATOM      6  C   UNL     1     -31.084  30.342   3.682  0.00  0.00    +0.076 C 
ATOM      7  C   UNL     1     -29.723  28.851   4.930  0.00  0.00    +0.033 C 
ATOM      8  CA  UNL     1     -31.165  28.320   4.970  0.00  0.00    +0.174 C 
ATOM      9  C   UNL     1     -28.799  31.196   4.230  0.00  0.00    +0.002 C 
ATOM     10  C   UNL     1     -31.675  31.746   3.617  0.00  0.00    +0.020 C 
ATOM     11  C   UNL     1     -29.300  32.638   4.051  0.00  0.00    +0.000 C 
ATOM     12  C   UNL     1     -30.575  32.736   3.199  0.00  0.00    +0.002 C 
ATOM     13  C   UNL     1     -33.131  28.926   3.472  0.00  0.00    +0.206 C 
BRANCH   8  15
ATOM     14  OXT UNL     1     -32.085  29.432   6.910  0.00  0.00    -0.248 OA
ATOM     15  C   UNL     1     -31.725  28.402   6.359  0.00  0.00    +0.332 C 
BRANCH  15  16
ATOM     16  O   UNL     1     -31.776  27.174   6.928  0.00  0.00    -0.479 OA
ATOM     17  H   UNL     1     -31.146  26.931   7.576  0.00  0.00    +0.295 HD
ENDBRANCH  15  16
ENDBRANCH   8  15
ENDBRANCH   1  13
BRANCH   1  18
ATOM     18  N   UNL     1     -35.127  27.656   3.710  0.00  0.00    +0.399 N 
ATOM     19  H1  UNL     1     -35.384  28.613   3.468  0.00  0.00    -0.083 HD
ATOM     20  H2  UNL     1     -35.474  27.416   4.638  0.00  0.00    -0.083 HD
BRANCH  18  21
ATOM     21  CA  UNL     1     -35.722  26.743   2.742  0.00  0.00    +0.041 C 
BRANCH  21  23
ATOM     22  OXT UNL     1     -36.887  27.167   0.646  0.00  0.00    -0.253 OA
ATOM     23  C   UNL     1     -36.390  27.598   1.679  0.00  0.00    +0.293 C 
BRANCH  23  24
ATOM     24  O   UNL     1     -36.404  28.916   2.006  0.00  0.00    -0.482 OA
ATOM     25  H   UNL     1     -35.733  29.486   1.685  0.00  0.00    +0.295 HD
ENDBRANCH  23  24
ENDBRANCH  21  23
BRANCH  21  26
ATOM     26  C   UNL     1     -36.745  25.847   3.454  0.00  0.00    -0.006 C 
BRANCH  26  27
ATOM     27  C   UNL     1     -36.302  25.351   4.839  0.00  0.00    +0.025 C 
BRANCH  27  28
ATOM     28  C   UNL     1     -35.874  23.904   4.880  0.00  0.00    -0.022 C 
ATOM     29  C   UNL     1     -35.389  23.354   6.066  0.00  0.00    -0.004 C 
ATOM     30  C   UNL     1     -35.964  23.118   3.731  0.00  0.00    -0.004 C 
ATOM     31  C   UNL     1     -34.994  22.016   6.104  0.00  0.00    -0.000 C 
ATOM     32  C   UNL     1     -35.569  21.781   3.769  0.00  0.00    -0.000 C 
ATOM     33  C   UNL     1     -35.084  21.230   4.955  0.00  0.00    -0.000 C 
ENDBRANCH  27  28
ENDBRANCH  26  27
ENDBRANCH  21  26
ENDBRANCH  18  21
ENDBRANCH   1  18
TORSDOF 10
ENDMDL
MODEL 8
REMARK VINA RESULT:      -6.2      2.089      3.413
REMARK  Name = 5464097
REMARK  10 active torsions:
REMARK  status: ('A' for Active; 'I' for Inactive)
REMARK    1  A    between atoms: CA_1  and  C_13
REMARK    2  A    between atoms: CA_1  and  N_18
REMARK    3  A    between atoms: CA_8  and  C_15
REMARK    4  A    between atoms: C_15  and  O_16
REMARK    5  A    between atoms: N_18  and  CA_21
REMARK    6  A    between atoms: CA_21  and  C_23
REMARK    7  A    between atoms: CA_21  and  C_26
REMARK    8  A    between atoms: C_23  and  O_24
REMARK    9  A    between atoms: C_26  and  C_27
REMARK   10  A    between atoms: C_27  and  C_28
REMARK                            x       y       z     vdW  Elec       q    Type
REMARK                         _______ _______ _______ _____ _____    ______ ____
ROOT
ATOM      1  CA  UNL     1     -36.287  22.601   2.317  0.00  0.00    +0.018 C 
ATOM      2  CB  UNL     1     -34.889  23.163   2.166  0.00  0.00    -0.014 C 
ENDROOT
BRANCH   1  13
ATOM      3  O   UNL     1     -35.508  20.384   1.989  0.00  0.00    -0.277 OA
ATOM      4  N   UNL     1     -37.415  21.004   0.825  0.00  0.00    -0.275 N 
ATOM      5  C   UNL     1     -38.802  19.999  -0.782  0.00  0.00    +0.020 C 
ATOM      6  C   UNL     1     -37.421  19.898  -0.128  0.00  0.00    +0.076 C 
ATOM      7  C   UNL     1     -38.991  21.505  -0.896  0.00  0.00    +0.033 C 
ATOM      8  CA  UNL     1     -38.447  21.986   0.459  0.00  0.00    +0.174 C 
ATOM      9  C   UNL     1     -38.849  19.158  -2.044  0.00  0.00    +0.002 C 
ATOM     10  C   UNL     1     -37.230  18.472   0.377  0.00  0.00    +0.020 C 
ATOM     11  C   UNL     1     -38.589  17.692  -1.666  0.00  0.00    +0.000 C 
ATOM     12  C   UNL     1     -37.325  17.500  -0.811  0.00  0.00    +0.002 C 
ATOM     13  C   UNL     1     -36.360  21.226   1.701  0.00  0.00    +0.206 C 
BRANCH   8  15
ATOM     14  OXT UNL     1     -40.480  22.721   1.542  0.00  0.00    -0.248 OA
ATOM     15  C   UNL     1     -39.523  21.962   1.503  0.00  0.00    +0.332 C 
BRANCH  15  16
ATOM     16  O   UNL     1     -39.291  20.979   2.408  0.00  0.00    -0.479 OA
ATOM     17  H   UNL     1     -39.891  20.840   3.112  0.00  0.00    +0.295 HD
ENDBRANCH  15  16
ENDBRANCH   8  15
ENDBRANCH   1  13
BRANCH   1  18
ATOM     18  N   UNL     1     -36.645  22.454   3.717  0.00  0.00    +0.399 N 
ATOM     19  H1  UNL     1     -36.788  21.465   3.922  0.00  0.00    -0.083 HD
ATOM     20  H2  UNL     1     -37.500  22.983   3.890  0.00  0.00    -0.083 HD
BRANCH  18  21
ATOM     21  CA  UNL     1     -35.596  22.974   4.586  0.00  0.00    +0.041 C 
BRANCH  21  23
ATOM     22  OXT UNL     1     -35.214  22.084   6.820  0.00  0.00    -0.253 OA
ATOM     23  C   UNL     1     -35.297  21.896   5.613  0.00  0.00    +0.293 C 
BRANCH  23  24
ATOM     24  O   UNL     1     -35.152  20.669   5.050  0.00  0.00    -0.482 OA
ATOM     25  H   UNL     1     -35.571  19.924   5.436  0.00  0.00    +0.295 HD
ENDBRANCH  23  24
ENDBRANCH  21  23
BRANCH  21  26
ATOM     26  C   UNL     1     -36.090  24.260   5.262  0.00  0.00    -0.006 C 
BRANCH  26  27
ATOM     27  C   UNL     1     -35.863  25.539   4.440  0.00  0.00    +0.025 C 
BRANCH  27  28
ATOM     28  C   UNL     1     -34.630  26.320   4.824  0.00  0.00    -0.022 C 
ATOM     29  C   UNL     1     -34.105  26.205   6.112  0.00  0.00    -0.004 C 
ATOM     30  C   UNL     1     -34.015  27.155   3.892  0.00  0.00    -0.004 C 
ATOM     31  C   UNL     1     -32.964  26.926   6.466  0.00  0.00    -0.000 C 
ATOM     32  C   UNL     1     -32.875  27.876   4.246  0.00  0.00    -0.000 C 
ATOM     33  C   UNL     1     -32.350  27.762   5.534  0.00  0.00    -0.000 C 
ENDBRANCH  27  28
ENDBRANCH  26  27
ENDBRANCH  21  26
ENDBRANCH  18  21
ENDBRANCH   1  18
TORSDOF 10
ENDMDL
MODEL 9
REMARK VINA RESULT:      -6.1      4.248      7.042
REMARK  Name = 5464097
REMARK  10 active torsions:
REMARK  status: ('A' for Active; 'I' for Inactive)
REMARK    1  A    between atoms: CA_1  and  C_13
REMARK    2  A    between atoms: CA_1  and  N_18
REMARK    3  A    between atoms: CA_8  and  C_15
REMARK    4  A    between atoms: C_15  and  O_16
REMARK    5  A    between atoms: N_18  and  CA_21
REMARK    6  A    between atoms: CA_21  and  C_23
REMARK    7  A    between atoms: CA_21  and  C_26
REMARK    8  A    between atoms: C_23  and  O_24
REMARK    9  A    between atoms: C_26  and  C_27
REMARK   10  A    between atoms: C_27  and  C_28
REMARK                            x       y       z     vdW  Elec       q    Type
REMARK                         _______ _______ _______ _____ _____    ______ ____
ROOT
ATOM      1  CA  UNL     1     -32.599  28.285   4.067  0.00  0.00    +0.018 C 
ATOM      2  CB  UNL     1     -31.227  27.996   3.492  0.00  0.00    -0.014 C 
ENDROOT
BRANCH   1  13
ATOM      3  O   UNL     1     -32.980  26.823   5.897  0.00  0.00    -0.277 OA
ATOM      4  N   UNL     1     -33.877  26.195   3.853  0.00  0.00    -0.275 N 
ATOM      5  C   UNL     1     -35.036  24.324   3.031  0.00  0.00    +0.020 C 
ATOM      6  C   UNL     1     -34.156  24.802   4.189  0.00  0.00    +0.076 C 
ATOM      7  C   UNL     1     -34.401  25.026   1.839  0.00  0.00    +0.033 C 
ATOM      8  CA  UNL     1     -34.117  26.420   2.419  0.00  0.00    +0.174 C 
ATOM      9  C   UNL     1     -35.124  22.810   3.027  0.00  0.00    +0.002 C 
ATOM     10  C   UNL     1     -34.865  24.475   5.499  0.00  0.00    +0.020 C 
ATOM     11  C   UNL     1     -35.760  22.353   4.349  0.00  0.00    +0.000 C 
ATOM     12  C   UNL     1     -35.080  22.955   5.590  0.00  0.00    +0.002 C 
ATOM     13  C   UNL     1     -33.166  27.037   4.698  0.00  0.00    +0.206 C 
BRANCH   8  15
ATOM     14  OXT UNL     1     -35.648  27.866   1.230  0.00  0.00    -0.248 OA
ATOM     15  C   UNL     1     -35.312  27.314   2.267  0.00  0.00    +0.332 C 
BRANCH  15  16
ATOM     16  O   UNL     1     -35.974  27.431   3.444  0.00  0.00    -0.479 OA
ATOM     17  H   UNL     1     -35.569  27.149   4.239  0.00  0.00    +0.295 HD
ENDBRANCH  15  16
ENDBRANCH   8  15
ENDBRANCH   1  13
BRANCH   1  18
ATOM     18  N   UNL     1     -32.528  29.290   5.113  0.00  0.00    +0.399 N 
ATOM     19  H1  UNL     1     -32.838  28.877   5.993  0.00  0.00    -0.083 HD
ATOM     20  H2  UNL     1     -33.129  30.071   4.852  0.00  0.00    -0.083 HD
BRANCH  18  21
ATOM     21  CA  UNL     1     -31.167  29.788   5.273  0.00  0.00    +0.041 C 
BRANCH  21  23
ATOM     22  OXT UNL     1     -29.572  29.503   7.091  0.00  0.00    -0.253 OA
ATOM     23  C   UNL     1     -30.719  29.407   6.674  0.00  0.00    +0.293 C 
BRANCH  23  24
ATOM     24  O   UNL     1     -31.745  28.964   7.445  0.00  0.00    -0.482 OA
ATOM     25  H   UNL     1     -32.251  28.224   7.172  0.00  0.00    +0.295 HD
ENDBRANCH  23  24
ENDBRANCH  21  23
BRANCH  21  26
ATOM     26  C   UNL     1     -31.159  31.310   5.084  0.00  0.00    -0.006 C 
BRANCH  26  27
ATOM     27  C   UNL     1     -30.831  31.773   3.656  0.00  0.00    +0.025 C 
BRANCH  27  28
ATOM     28  C   UNL     1     -31.755  32.836   3.113  0.00  0.00    -0.022 C 
ATOM     29  C   UNL     1     -31.398  34.182   3.203  0.00  0.00    -0.004 C 
ATOM     30  C   UNL     1     -32.965  32.472   2.523  0.00  0.00    -0.004 C 
ATOM     31  C   UNL     1     -32.251  35.164   2.701  0.00  0.00    -0.000 C 
ATOM     32  C   UNL     1     -33.818  33.455   2.021  0.00  0.00    -0.000 C 
ATOM     33  C   UNL     1     -33.461  34.800   2.110  0.00  0.00    -0.000 C 
ENDBRANCH  27  28
ENDBRANCH  26  27
ENDBRANCH  21  26
ENDBRANCH  18  21
ENDBRANCH   1  18
TORSDOF 10
ENDMDL
