MODEL 1
REMARK VINA RESULT:      -6.5      0.000      0.000
REMARK  Name = 5282033
REMARK  6 active torsions:
REMARK  status: ('A' for Active; 'I' for Inactive)
REMARK    1  A    between atoms: C_4  and  O_23
REMARK    2  A    between atoms: C_12  and  C_19
REMARK    3  A    between atoms: C_19  and  O_21
REMARK    4  A    between atoms: O_23  and  C_27
REMARK    5  A    between atoms: C_25  and  N_31
REMARK    6  A    between atoms: C_26  and  O_35
REMARK                            x       y       z     vdW  Elec       q    Type
REMARK                         _______ _______ _______ _____ _____    ______ ____
ROOT
ATOM      1  O   UNL     1     -33.388  28.048   4.495  0.00  0.00    -0.449 OA
ATOM      2  O   UNL     1     -33.011  25.838   3.943  0.00  0.00    -0.250 OA
ATOM      3  O   UNL     1     -33.784  29.438  -0.451  0.00  0.00    -0.291 OA
ATOM      4  C   UNL     1     -35.866  26.006   3.061  0.00  0.00    +0.128 C 
ATOM      5  C   UNL     1     -35.584  26.806   1.755  0.00  0.00    +0.028 C 
ATOM      6  C   UNL     1     -35.269  26.636   4.342  0.00  0.00    +0.126 C 
ATOM      7  C   UNL     1     -36.354  28.152   1.703  0.00  0.00    +0.010 C 
ATOM      8  C   UNL     1     -35.949  29.088   0.543  0.00  0.00    +0.062 C 
ATOM      9  C   UNL     1     -35.948  25.937   0.541  0.00  0.00    +0.003 C 
ATOM     10  C   UNL     1     -35.579  25.820   5.598  0.00  0.00    +0.014 C 
ATOM     11  C   UNL     1     -33.759  26.763   4.233  0.00  0.00    +0.319 C 
ATOM     12  C   UNL     1     -32.006  28.420   4.268  0.00  0.00    +0.199 C 
ATOM     13  C   UNL     1     -36.811  30.351   0.536  0.00  0.00    +0.008 C 
ATOM     14  C   UNL     1     -34.472  29.483   0.567  0.00  0.00    +0.172 C 
ATOM     15  C   UNL     1     -31.986  29.787   3.536  0.00  0.00    +0.065 C 
ATOM     16  C   UNL     1     -33.898  29.929   1.866  0.00  0.00    +0.033 C 
ATOM     17  C   UNL     1     -32.637  29.598   2.177  0.00  0.00    -0.020 C 
ATOM     18  C   UNL     1     -32.596  30.923   4.366  0.00  0.00    +0.008 C 
ENDROOT
BRANCH  12  19
ATOM     19  C   UNL     1     -31.294  28.438   5.615  0.00  0.00    +0.151 C 
ATOM     20  C   UNL     1     -32.168  27.870   6.722  0.00  0.00    +0.036 C 
BRANCH  19  21
ATOM     21  O   UNL     1     -30.098  27.673   5.521  0.00  0.00    -0.381 OA
ATOM     22  H   UNL     1     -29.339  28.269   5.424  0.00  0.00    +0.210 HD
ENDBRANCH  19  21
ENDBRANCH  12  19
BRANCH   4  23
ATOM     23  O   UNL     1     -37.278  25.854   3.207  0.00  0.00    -0.331 OA
BRANCH  23  27
ATOM     24  O   UNL     1     -36.536  23.662   2.900  0.00  0.00    -0.331 OA
ATOM     25  C   UNL     1     -39.180  22.771   2.205  0.00  0.00    -0.023 C 
ATOM     26  C   UNL     1     -38.823  24.260   2.308  0.00  0.00    +0.148 C 
ATOM     27  C   UNL     1     -37.648  24.477   3.268  0.00  0.00    +0.261 C 
ATOM     28  C   UNL     1     -37.927  21.937   1.929  0.00  0.00    +0.011 C 
ATOM     29  C   UNL     1     -36.836  22.266   2.950  0.00  0.00    +0.116 C 
ATOM     30  C   UNL     1     -35.554  21.504   2.647  0.00  0.00    +0.032 C 
BRANCH  25  31
ATOM     31  N   UNL     1     -40.163  22.543   1.145  0.00  0.00    +0.387 N 
ATOM     32  C   UNL     1     -40.101  21.158   0.681  0.00  0.00    -0.101 C 
ATOM     33  C   UNL     1     -39.940  23.467   0.035  0.00  0.00    -0.101 C 
ATOM     34  H   UNL     1     -41.094  22.714   1.526  0.00  0.00    -0.080 HD
ENDBRANCH  25  31
BRANCH  26  35
ATOM     35  O   UNL     1     -39.939  24.995   2.806  0.00  0.00    -0.381 OA
ATOM     36  H   UNL     1     -39.637  25.852   3.145  0.00  0.00    +0.210 HD
ENDBRANCH  26  35
ENDBRANCH  23  27
ENDBRANCH   4  23
TORSDOF 6
ENDMDL
MODEL 2
REMARK VINA RESULT:      -6.0      4.588      8.039
REMARK  Name = 5282033
REMARK  6 active torsions:
REMARK  status: ('A' for Active; 'I' for Inactive)
REMARK    1  A    between atoms: C_4  and  O_23
REMARK    2  A    between atoms: C_12  and  C_19
REMARK    3  A    between atoms: C_19  and  O_21
REMARK    4  A    between atoms: O_23  and  C_27
REMARK    5  A    between atoms: C_25  and  N_31
REMARK    6  A    between atoms: C_26  and  O_35
REMARK                            x       y       z     vdW  Elec       q    Type
REMARK                         _______ _______ _______ _____ _____    ______ ____
ROOT
ATOM      1  O   UNL     1     -34.588  24.473   3.624  0.00  0.00    -0.449 OA
ATOM      2  O   UNL     1     -35.481  25.849   1.999  0.00  0.00    -0.250 OA
ATOM      3  O   UNL     1     -36.907  20.306   1.671  0.00  0.00    -0.291 OA
ATOM      4  C   UNL     1     -33.639  24.274   0.244  0.00  0.00    +0.128 C 
ATOM      5  C   UNL     1     -34.512  22.985   0.211  0.00  0.00    +0.028 C 
ATOM      6  C   UNL     1     -33.319  24.797   1.664  0.00  0.00    +0.126 C 
ATOM      7  C   UNL     1     -33.750  21.736   0.725  0.00  0.00    +0.010 C 
ATOM      8  C   UNL     1     -34.623  20.477   0.925  0.00  0.00    +0.062 C 
ATOM      9  C   UNL     1     -35.015  22.750  -1.223  0.00  0.00    +0.003 C 
ATOM     10  C   UNL     1     -32.453  26.058   1.645  0.00  0.00    +0.014 C 
ATOM     11  C   UNL     1     -34.593  25.122   2.425  0.00  0.00    +0.319 C 
ATOM     12  C   UNL     1     -35.795  24.508   4.425  0.00  0.00    +0.199 C 
ATOM     13  C   UNL     1     -33.771  19.286   1.362  0.00  0.00    +0.008 C 
ATOM     14  C   UNL     1     -35.763  20.680   1.924  0.00  0.00    +0.172 C 
ATOM     15  C   UNL     1     -36.059  23.078   4.965  0.00  0.00    +0.065 C 
ATOM     16  C   UNL     1     -35.436  21.339   3.218  0.00  0.00    +0.033 C 
ATOM     17  C   UNL     1     -36.325  22.172   3.776  0.00  0.00    -0.020 C 
ATOM     18  C   UNL     1     -34.950  22.573   5.897  0.00  0.00    +0.008 C 
ENDROOT
BRANCH  12  19
ATOM     19  C   UNL     1     -35.606  25.550   5.521  0.00  0.00    +0.151 C 
ATOM     20  C   UNL     1     -34.168  26.039   5.591  0.00  0.00    +0.036 C 
BRANCH  19  21
ATOM     21  O   UNL     1     -36.467  26.654   5.267  0.00  0.00    -0.381 OA
ATOM     22  H   UNL     1     -36.174  27.419   5.786  0.00  0.00    +0.210 HD
ENDBRANCH  19  21
ENDBRANCH  12  19
BRANCH   4  23
ATOM     23  O   UNL     1     -32.427  24.021  -0.467  0.00  0.00    -0.331 OA
BRANCH  23  27
ATOM     24  O   UNL     1     -32.945  25.024  -2.509  0.00  0.00    -0.331 OA
ATOM     25  C   UNL     1     -30.258  26.002  -2.812  0.00  0.00    -0.023 C 
ATOM     26  C   UNL     1     -30.634  24.969  -1.740  0.00  0.00    +0.148 C 
ATOM     27  C   UNL     1     -32.112  25.094  -1.354  0.00  0.00    +0.261 C 
ATOM     28  C   UNL     1     -31.259  25.960  -3.969  0.00  0.00    +0.011 C 
ATOM     29  C   UNL     1     -32.688  26.080  -3.438  0.00  0.00    +0.116 C 
ATOM     30  C   UNL     1     -33.704  25.963  -4.567  0.00  0.00    +0.032 C 
BRANCH  25  31
ATOM     31  N   UNL     1     -28.909  25.755  -3.322  0.00  0.00    +0.387 N 
ATOM     32  C   UNL     1     -28.525  26.795  -4.275  0.00  0.00    -0.101 C 
ATOM     33  C   UNL     1     -28.831  24.434  -3.944  0.00  0.00    -0.101 C 
ATOM     34  H   UNL     1     -28.257  25.781  -2.537  0.00  0.00    -0.080 HD
ENDBRANCH  25  31
BRANCH  26  35
ATOM     35  O   UNL     1     -29.853  25.182  -0.565  0.00  0.00    -0.381 OA
ATOM     36  H   UNL     1     -29.722  26.134  -0.432  0.00  0.00    +0.210 HD
ENDBRANCH  26  35
ENDBRANCH  23  27
ENDBRANCH   4  23
TORSDOF 6
ENDMDL
MODEL 3
REMARK VINA RESULT:      -5.8      2.906      4.396
REMARK  Name = 5282033
REMARK  6 active torsions:
REMARK  status: ('A' for Active; 'I' for Inactive)
REMARK    1  A    between atoms: C_4  and  O_23
REMARK    2  A    between atoms: C_12  and  C_19
REMARK    3  A    between atoms: C_19  and  O_21
REMARK    4  A    between atoms: O_23  and  C_27
REMARK    5  A    between atoms: C_25  and  N_31
REMARK    6  A    between atoms: C_26  and  O_35
REMARK                            x       y       z     vdW  Elec       q    Type
REMARK                         _______ _______ _______ _____ _____    ______ ____
ROOT
ATOM      1  O   UNL     1     -32.191  32.137   2.629  0.00  0.00    -0.449 OA
ATOM      2  O   UNL     1     -31.488  30.220   1.552  0.00  0.00    -0.250 OA
ATOM      3  O   UNL     1     -35.984  32.912  -0.771  0.00  0.00    -0.291 OA
ATOM      4  C   UNL     1     -34.111  29.191   2.559  0.00  0.00    +0.128 C 
ATOM      5  C   UNL     1     -34.990  29.945   1.518  0.00  0.00    +0.028 C 
ATOM      6  C   UNL     1     -33.125  30.092   3.339  0.00  0.00    +0.126 C 
ATOM      7  C   UNL     1     -36.039  30.872   2.184  0.00  0.00    +0.010 C 
ATOM      8  C   UNL     1     -36.790  31.810   1.212  0.00  0.00    +0.062 C 
ATOM      9  C   UNL     1     -35.686  28.920   0.607  0.00  0.00    +0.003 C 
ATOM     10  C   UNL     1     -32.290  29.309   4.355  0.00  0.00    +0.014 C 
ATOM     11  C   UNL     1     -32.164  30.794   2.395  0.00  0.00    +0.319 C 
ATOM     12  C   UNL     1     -31.480  33.005   1.713  0.00  0.00    +0.199 C 
ATOM     13  C   UNL     1     -37.847  32.628   1.952  0.00  0.00    +0.008 C 
ATOM     14  C   UNL     1     -35.865  32.753   0.442  0.00  0.00    +0.172 C 
ATOM     15  C   UNL     1     -32.393  34.215   1.385  0.00  0.00    +0.065 C 
ATOM     16  C   UNL     1     -34.820  33.478   1.215  0.00  0.00    +0.033 C 
ATOM     17  C   UNL     1     -33.619  33.692   0.659  0.00  0.00    -0.020 C 
ATOM     18  C   UNL     1     -32.716  35.075   2.614  0.00  0.00    +0.008 C 
ENDROOT
BRANCH  12  19
ATOM     19  C   UNL     1     -30.157  33.394   2.362  0.00  0.00    +0.151 C 
ATOM     20  C   UNL     1     -30.022  32.812   3.759  0.00  0.00    +0.036 C 
BRANCH  19  21
ATOM     21  O   UNL     1     -29.085  32.928   1.551  0.00  0.00    -0.381 OA
ATOM     22  H   UNL     1     -29.379  32.162   1.034  0.00  0.00    +0.210 HD
ENDBRANCH  19  21
ENDBRANCH  12  19
BRANCH   4  23
ATOM     23  O   UNL     1     -34.970  28.507   3.471  0.00  0.00    -0.331 OA
BRANCH  23  27
ATOM     24  O   UNL     1     -34.072  26.686   2.321  0.00  0.00    -0.331 OA
ATOM     25  C   UNL     1     -35.680  24.832   3.820  0.00  0.00    -0.023 C 
ATOM     26  C   UNL     1     -35.927  26.347   3.864  0.00  0.00    +0.148 C 
ATOM     27  C   UNL     1     -34.641  27.120   3.555  0.00  0.00    +0.261 C 
ATOM     28  C   UNL     1     -34.959  24.444   2.527  0.00  0.00    +0.011 C 
ATOM     29  C   UNL     1     -33.708  25.304   2.339  0.00  0.00    +0.116 C 
ATOM     30  C   UNL     1     -33.018  24.987   1.019  0.00  0.00    +0.032 C 
BRANCH  25  31
ATOM     31  N   UNL     1     -36.941  24.096   3.918  0.00  0.00    +0.387 N 
ATOM     32  C   UNL     1     -36.762  22.716   3.470  0.00  0.00    -0.101 C 
ATOM     33  C   UNL     1     -37.982  24.759   3.134  0.00  0.00    -0.101 C 
ATOM     34  H   UNL     1     -37.232  24.082   4.895  0.00  0.00    -0.080 HD
ENDBRANCH  25  31
BRANCH  26  35
ATOM     35  O   UNL     1     -36.368  26.730   5.165  0.00  0.00    -0.381 OA
ATOM     36  H   UNL     1     -35.634  27.140   5.648  0.00  0.00    +0.210 HD
ENDBRANCH  26  35
ENDBRANCH  23  27
ENDBRANCH   4  23
TORSDOF 6
ENDMDL
MODEL 4
REMARK VINA RESULT:      -5.8      3.709      9.357
REMARK  Name = 5282033
REMARK  6 active torsions:
REMARK  status: ('A' for Active; 'I' for Inactive)
REMARK    1  A    between atoms: C_4  and  O_23
REMARK    2  A    between atoms: C_12  and  C_19
REMARK    3  A    between atoms: C_19  and  O_21
REMARK    4  A    between atoms: O_23  and  C_27
REMARK    5  A    between atoms: C_25  and  N_31
REMARK    6  A    between atoms: C_26  and  O_35
REMARK                            x       y       z     vdW  Elec       q    Type
REMARK                         _______ _______ _______ _____ _____    ______ ____
ROOT
ATOM      1  O   UNL     1     -38.413  19.804  -0.292  0.00  0.00    -0.449 OA
ATOM      2  O   UNL     1     -38.511  22.077  -0.682  0.00  0.00    -0.250 OA
ATOM      3  O   UNL     1     -33.443  19.573  -1.634  0.00  0.00    -0.291 OA
ATOM      4  C   UNL     1     -36.711  22.144   1.708  0.00  0.00    +0.128 C 
ATOM      5  C   UNL     1     -35.434  21.657   0.961  0.00  0.00    +0.028 C 
ATOM      6  C   UNL     1     -37.949  21.234   1.524  0.00  0.00    +0.126 C 
ATOM      7  C   UNL     1     -34.837  20.366   1.580  0.00  0.00    +0.010 C 
ATOM      8  C   UNL     1     -33.706  19.712   0.756  0.00  0.00    +0.062 C 
ATOM      9  C   UNL     1     -34.387  22.782   0.962  0.00  0.00    +0.003 C 
ATOM     10  C   UNL     1     -39.174  21.748   2.283  0.00  0.00    +0.014 C 
ATOM     11  C   UNL     1     -38.327  21.119   0.058  0.00  0.00    +0.319 C 
ATOM     12  C   UNL     1     -38.587  19.479  -1.692  0.00  0.00    +0.199 C 
ATOM     13  C   UNL     1     -33.138  18.493   1.482  0.00  0.00    +0.008 C 
ATOM     14  C   UNL     1     -34.137  19.307  -0.654  0.00  0.00    +0.172 C 
ATOM     15  C   UNL     1     -37.626  18.313  -2.042  0.00  0.00    +0.065 C 
ATOM     16  C   UNL     1     -35.424  18.572  -0.798  0.00  0.00    +0.033 C 
ATOM     17  C   UNL     1     -36.203  18.811  -1.862  0.00  0.00    -0.020 C 
ATOM     18  C   UNL     1     -37.937  17.025  -1.270  0.00  0.00    +0.008 C 
ENDROOT
BRANCH  12  19
ATOM     19  C   UNL     1     -40.057  19.149  -1.922  0.00  0.00    +0.151 C 
ATOM     20  C   UNL     1     -40.919  20.401  -1.945  0.00  0.00    +0.036 C 
BRANCH  19  21
ATOM     21  O   UNL     1     -40.192  18.462  -3.161  0.00  0.00    -0.381 OA
ATOM     22  H   UNL     1     -39.685  18.925  -3.845  0.00  0.00    +0.210 HD
ENDBRANCH  19  21
ENDBRANCH  12  19
BRANCH   4  23
ATOM     23  O   UNL     1     -36.405  22.274   3.096  0.00  0.00    -0.331 OA
BRANCH  23  27
ATOM     24  O   UNL     1     -36.933  24.449   2.437  0.00  0.00    -0.331 OA
ATOM     25  C   UNL     1     -35.164  25.571   4.406  0.00  0.00    -0.023 C 
ATOM     26  C   UNL     1     -35.156  24.075   4.060  0.00  0.00    +0.148 C 
ATOM     27  C   UNL     1     -36.522  23.629   3.529  0.00  0.00    +0.261 C 
ATOM     28  C   UNL     1     -35.728  26.386   3.240  0.00  0.00    +0.011 C 
ATOM     29  C   UNL     1     -37.081  25.822   2.805  0.00  0.00    +0.116 C 
ATOM     30  C   UNL     1     -37.624  26.572   1.596  0.00  0.00    +0.032 C 
BRANCH  25  31
ATOM     31  N   UNL     1     -33.814  26.039   4.723  0.00  0.00    +0.387 N 
ATOM     32  C   UNL     1     -33.727  26.432   6.128  0.00  0.00    -0.101 C 
ATOM     33  C   UNL     1     -33.442  27.153   3.854  0.00  0.00    -0.101 C 
ATOM     34  H   UNL     1     -33.160  25.272   4.563  0.00  0.00    -0.080 HD
ENDBRANCH  25  31
BRANCH  26  35
ATOM     35  O   UNL     1     -34.867  23.308   5.228  0.00  0.00    -0.381 OA
ATOM     36  H   UNL     1     -35.536  23.487   5.907  0.00  0.00    +0.210 HD
ENDBRANCH  26  35
ENDBRANCH  23  27
ENDBRANCH   4  23
TORSDOF 6
ENDMDL
MODEL 5
REMARK VINA RESULT:      -5.8      7.081      9.405
REMARK  Name = 5282033
REMARK  6 active torsions:
REMARK  status: ('A' for Active; 'I' for Inactive)
REMARK    1  A    between atoms: C_4  and  O_23
REMARK    2  A    between atoms: C_12  and  C_19
REMARK    3  A    between atoms: C_19  and  O_21
REMARK    4  A    between atoms: O_23  and  C_27
REMARK    5  A    between atoms: C_25  and  N_31
REMARK    6  A    between atoms: C_26  and  O_35
REMARK                            x       y       z     vdW  Elec       q    Type
REMARK                         _______ _______ _______ _____ _____    ______ ____
ROOT
ATOM      1  O   UNL     1     -44.606  30.068   5.456  0.00  0.00    -0.449 OA
ATOM      2  O   UNL     1     -42.449  29.272   5.250  0.00  0.00    -0.250 OA
ATOM      3  O   UNL     1     -43.821  33.731   1.918  0.00  0.00    -0.291 OA
ATOM      4  C   UNL     1     -43.454  28.447   2.555  0.00  0.00    +0.128 C 
ATOM      5  C   UNL     1     -43.425  29.873   1.929  0.00  0.00    +0.028 C 
ATOM      6  C   UNL     1     -44.233  28.347   3.888  0.00  0.00    +0.126 C 
ATOM      7  C   UNL     1     -44.811  30.318   1.394  0.00  0.00    +0.010 C 
ATOM      8  C   UNL     1     -44.898  31.799   0.964  0.00  0.00    +0.062 C 
ATOM      9  C   UNL     1     -42.382  29.909   0.800  0.00  0.00    +0.003 C 
ATOM     10  C   UNL     1     -44.242  26.928   4.459  0.00  0.00    +0.014 C 
ATOM     11  C   UNL     1     -43.633  29.265   4.939  0.00  0.00    +0.319 C 
ATOM     12  C   UNL     1     -44.208  31.139   6.345  0.00  0.00    +0.199 C 
ATOM     13  C   UNL     1     -46.277  32.119   0.387  0.00  0.00    +0.008 C 
ATOM     14  C   UNL     1     -44.580  32.780   2.094  0.00  0.00    +0.172 C 
ATOM     15  C   UNL     1     -44.983  32.419   5.940  0.00  0.00    +0.065 C 
ATOM     16  C   UNL     1     -45.230  32.547   3.413  0.00  0.00    +0.033 C 
ATOM     17  C   UNL     1     -44.548  32.804   4.537  0.00  0.00    -0.020 C 
ATOM     18  C   UNL     1     -46.503  32.279   6.104  0.00  0.00    +0.008 C 
ENDROOT
BRANCH  12  19
ATOM     19  C   UNL     1     -44.476  30.690   7.777  0.00  0.00    +0.151 C 
ATOM     20  C   UNL     1     -45.318  29.425   7.822  0.00  0.00    +0.036 C 
BRANCH  19  21
ATOM     21  O   UNL     1     -43.235  30.453   8.431  0.00  0.00    -0.381 OA
ATOM     22  H   UNL     1     -42.950  31.259   8.887  0.00  0.00    +0.210 HD
ENDBRANCH  19  21
ENDBRANCH  12  19
BRANCH   4  23
ATOM     23  O   UNL     1     -44.007  27.542   1.599  0.00  0.00    -0.331 OA
BRANCH  23  27
ATOM     24  O   UNL     1     -41.886  26.665   2.022  0.00  0.00    -0.331 OA
ATOM     25  C   UNL     1     -41.864  25.272  -0.494  0.00  0.00    -0.023 C 
ATOM     26  C   UNL     1     -42.919  26.336  -0.160  0.00  0.00    +0.148 C 
ATOM     27  C   UNL     1     -43.128  26.445   1.354  0.00  0.00    +0.261 C 
ATOM     28  C   UNL     1     -40.601  25.490   0.343  0.00  0.00    +0.011 C 
ATOM     29  C   UNL     1     -40.959  25.595   1.826  0.00  0.00    +0.116 C 
ATOM     30  C   UNL     1     -39.725  25.889   2.669  0.00  0.00    +0.032 C 
BRANCH  25  31
ATOM     31  N   UNL     1     -41.522  25.306  -1.916  0.00  0.00    +0.387 N 
ATOM     32  C   UNL     1     -40.691  24.156  -2.269  0.00  0.00    -0.101 C 
ATOM     33  C   UNL     1     -40.837  26.555  -2.247  0.00  0.00    -0.101 C 
ATOM     34  H   UNL     1     -42.385  25.259  -2.458  0.00  0.00    -0.080 HD
ENDBRANCH  25  31
BRANCH  26  35
ATOM     35  O   UNL     1     -44.168  25.985  -0.752  0.00  0.00    -0.381 OA
ATOM     36  H   UNL     1     -44.032  25.270  -1.394  0.00  0.00    +0.210 HD
ENDBRANCH  26  35
ENDBRANCH  23  27
ENDBRANCH   4  23
TORSDOF 6
ENDMDL
MODEL 6
REMARK VINA RESULT:      -5.7      4.228      8.031
REMARK  Name = 5282033
REMARK  6 active torsions:
REMARK  status: ('A' for Active; 'I' for Inactive)
REMARK    1  A    between atoms: C_4  and  O_23
REMARK    2  A    between atoms: C_12  and  C_19
REMARK    3  A    between atoms: C_19  and  O_21
REMARK    4  A    between atoms: O_23  and  C_27
REMARK    5  A    between atoms: C_25  and  N_31
REMARK    6  A    between atoms: C_26  and  O_35
REMARK                            x       y       z     vdW  Elec       q    Type
REMARK                         _______ _______ _______ _____ _____    ______ ____
ROOT
ATOM      1  O   UNL     1     -39.073  23.796   0.637  0.00  0.00    -0.449 OA
ATOM      2  O   UNL     1     -39.441  21.521   0.785  0.00  0.00    -0.250 OA
ATOM      3  O   UNL     1     -36.579  23.902   5.144  0.00  0.00    -0.291 OA
ATOM      4  C   UNL     1     -36.473  21.438   0.414  0.00  0.00    +0.128 C 
ATOM      5  C   UNL     1     -36.117  21.890   1.861  0.00  0.00    +0.028 C 
ATOM      6  C   UNL     1     -37.459  22.373  -0.326  0.00  0.00    +0.126 C 
ATOM      7  C   UNL     1     -35.246  23.172   1.889  0.00  0.00    +0.010 C 
ATOM      8  C   UNL     1     -35.046  23.793   3.289  0.00  0.00    +0.062 C 
ATOM      9  C   UNL     1     -35.397  20.741   2.587  0.00  0.00    +0.003 C 
ATOM     10  C   UNL     1     -37.770  21.895  -1.745  0.00  0.00    +0.014 C 
ATOM     11  C   UNL     1     -38.774  22.482   0.425  0.00  0.00    +0.319 C 
ATOM     12  C   UNL     1     -40.198  24.111   1.494  0.00  0.00    +0.199 C 
ATOM     13  C   UNL     1     -34.119  25.006   3.220  0.00  0.00    +0.008 C 
ATOM     14  C   UNL     1     -36.355  24.194   3.970  0.00  0.00    +0.172 C 
ATOM     15  C   UNL     1     -39.771  25.251   2.454  0.00  0.00    +0.065 C 
ATOM     16  C   UNL     1     -37.348  24.955   3.163  0.00  0.00    +0.033 C 
ATOM     17  C   UNL     1     -38.656  24.723   3.339  0.00  0.00    -0.020 C 
ATOM     18  C   UNL     1     -39.422  26.554   1.722  0.00  0.00    +0.008 C 
ENDROOT
BRANCH  12  19
ATOM     19  C   UNL     1     -41.383  24.471   0.605  0.00  0.00    +0.151 C 
ATOM     20  C   UNL     1     -40.934  25.046  -0.728  0.00  0.00    +0.036 C 
BRANCH  19  21
ATOM     21  O   UNL     1     -42.165  23.305   0.376  0.00  0.00    -0.381 OA
ATOM     22  H   UNL     1     -42.935  23.310   0.965  0.00  0.00    +0.210 HD
ENDBRANCH  19  21
ENDBRANCH  12  19
BRANCH   4  23
ATOM     23  O   UNL     1     -35.264  21.315  -0.335  0.00  0.00    -0.331 OA
BRANCH  23  27
ATOM     24  O   UNL     1     -36.132  19.149  -0.323  0.00  0.00    -0.331 OA
ATOM     25  C   UNL     1     -33.517  18.005  -0.670  0.00  0.00    -0.023 C 
ATOM     26  C   UNL     1     -33.719  19.486  -0.322  0.00  0.00    +0.148 C 
ATOM     27  C   UNL     1     -35.083  19.982  -0.813  0.00  0.00    +0.261 C 
ATOM     28  C   UNL     1     -34.728  17.181  -0.228  0.00  0.00    +0.011 C 
ATOM     29  C   UNL     1     -36.017  17.798  -0.775  0.00  0.00    +0.116 C 
ATOM     30  C   UNL     1     -37.240  17.037  -0.282  0.00  0.00    +0.032 C 
BRANCH  25  31
ATOM     31  N   UNL     1     -32.308  17.480  -0.033  0.00  0.00    +0.387 N 
ATOM     32  C   UNL     1     -32.269  16.022  -0.135  0.00  0.00    -0.101 C 
ATOM     33  C   UNL     1     -32.247  17.898   1.367  0.00  0.00    -0.101 C 
ATOM     34  H   UNL     1     -31.495  17.859  -0.519  0.00  0.00    -0.080 HD
ENDBRANCH  25  31
BRANCH  26  35
ATOM     35  O   UNL     1     -32.711  20.275  -0.952  0.00  0.00    -0.381 OA
ATOM     36  H   UNL     1     -33.121  20.860  -1.608  0.00  0.00    +0.210 HD
ENDBRANCH  26  35
ENDBRANCH  23  27
ENDBRANCH   4  23
TORSDOF 6
ENDMDL
MODEL 7
REMARK VINA RESULT:      -5.7      3.071      7.647
REMARK  Name = 5282033
REMARK  6 active torsions:
REMARK  status: ('A' for Active; 'I' for Inactive)
REMARK    1  A    between atoms: C_4  and  O_23
REMARK    2  A    between atoms: C_12  and  C_19
REMARK    3  A    between atoms: C_19  and  O_21
REMARK    4  A    between atoms: O_23  and  C_27
REMARK    5  A    between atoms: C_25  and  N_31
REMARK    6  A    between atoms: C_26  and  O_35
REMARK                            x       y       z     vdW  Elec       q    Type
REMARK                         _______ _______ _______ _____ _____    ______ ____
ROOT
ATOM      1  O   UNL     1     -35.021  23.544   3.643  0.00  0.00    -0.449 OA
ATOM      2  O   UNL     1     -36.222  25.134   4.807  0.00  0.00    -0.250 OA
ATOM      3  O   UNL     1     -38.496  23.394  -0.159  0.00  0.00    -0.291 OA
ATOM      4  C   UNL     1     -35.408  26.844   2.490  0.00  0.00    +0.128 C 
ATOM      5  C   UNL     1     -36.418  26.231   1.475  0.00  0.00    +0.028 C 
ATOM      6  C   UNL     1     -34.518  25.807   3.215  0.00  0.00    +0.126 C 
ATOM      7  C   UNL     1     -35.722  25.643   0.221  0.00  0.00    +0.010 C 
ATOM      8  C   UNL     1     -36.643  24.828  -0.713  0.00  0.00    +0.062 C 
ATOM      9  C   UNL     1     -37.437  27.307   1.064  0.00  0.00    +0.003 C 
ATOM     10  C   UNL     1     -33.536  26.456   4.193  0.00  0.00    +0.014 C 
ATOM     11  C   UNL     1     -35.362  24.815   3.996  0.00  0.00    +0.319 C 
ATOM     12  C   UNL     1     -35.833  22.454   4.142  0.00  0.00    +0.199 C 
ATOM     13  C   UNL     1     -35.882  24.354  -1.951  0.00  0.00    +0.008 C 
ATOM     14  C   UNL     1     -37.296  23.627  -0.028  0.00  0.00    +0.172 C 
ATOM     15  C   UNL     1     -36.098  21.471   2.972  0.00  0.00    +0.065 C 
ATOM     16  C   UNL     1     -36.425  22.746   0.797  0.00  0.00    +0.033 C 
ATOM     17  C   UNL     1     -36.912  22.204   1.921  0.00  0.00    -0.020 C 
ATOM     18  C   UNL     1     -34.817  20.825   2.427  0.00  0.00    +0.008 C 
ENDROOT
BRANCH  12  19
ATOM     19  C   UNL     1     -35.102  21.820   5.319  0.00  0.00    +0.151 C 
ATOM     20  C   UNL     1     -35.294  22.618   6.598  0.00  0.00    +0.036 C 
BRANCH  19  21
ATOM     21  O   UNL     1     -35.589  20.496   5.512  0.00  0.00    -0.381 OA
ATOM     22  H   UNL     1     -36.542  20.473   5.335  0.00  0.00    +0.210 HD
ENDBRANCH  19  21
ENDBRANCH  12  19
BRANCH   4  23
ATOM     23  O   UNL     1     -34.591  27.791   1.803  0.00  0.00    -0.331 OA
BRANCH  23  27
ATOM     24  O   UNL     1     -35.685  29.851   1.874  0.00  0.00    -0.331 OA
ATOM     25  C   UNL     1     -33.295  31.191   2.745  0.00  0.00    -0.023 C 
ATOM     26  C   UNL     1     -33.276  29.748   2.221  0.00  0.00    +0.148 C 
ATOM     27  C   UNL     1     -34.633  29.070   2.436  0.00  0.00    +0.261 C 
ATOM     28  C   UNL     1     -34.514  31.942   2.202  0.00  0.00    +0.011 C 
ATOM     29  C   UNL     1     -35.791  31.144   2.473  0.00  0.00    +0.116 C 
ATOM     30  C   UNL     1     -37.007  31.837   1.873  0.00  0.00    +0.032 C 
BRANCH  25  31
ATOM     31  N   UNL     1     -32.073  31.900   2.363  0.00  0.00    +0.387 N 
ATOM     32  C   UNL     1     -31.324  32.302   3.552  0.00  0.00    -0.101 C 
ATOM     33  C   UNL     1     -32.394  33.065   1.540  0.00  0.00    -0.101 C 
ATOM     34  H   UNL     1     -31.491  31.268   1.814  0.00  0.00    -0.080 HD
ENDBRANCH  25  31
BRANCH  26  35
ATOM     35  O   UNL     1     -32.289  28.991   2.919  0.00  0.00    -0.381 OA
ATOM     36  H   UNL     1     -31.503  28.891   2.359  0.00  0.00    +0.210 HD
ENDBRANCH  26  35
ENDBRANCH  23  27
ENDBRANCH   4  23
TORSDOF 6
ENDMDL
MODEL 8
REMARK VINA RESULT:      -5.7      3.583      6.101
REMARK  Name = 5282033
REMARK  6 active torsions:
REMARK  status: ('A' for Active; 'I' for Inactive)
REMARK    1  A    between atoms: C_4  and  O_23
REMARK    2  A    between atoms: C_12  and  C_19
REMARK    3  A    between atoms: C_19  and  O_21
REMARK    4  A    between atoms: O_23  and  C_27
REMARK    5  A    between atoms: C_25  and  N_31
REMARK    6  A    between atoms: C_26  and  O_35
REMARK                            x       y       z     vdW  Elec       q    Type
REMARK                         _______ _______ _______ _____ _____    ______ ____
ROOT
ATOM      1  O   UNL     1     -33.722  25.537   1.327  0.00  0.00    -0.449 OA
ATOM      2  O   UNL     1     -35.142  24.961  -0.400  0.00  0.00    -0.250 OA
ATOM      3  O   UNL     1     -37.381  24.774   4.875  0.00  0.00    -0.291 OA
ATOM      4  C   UNL     1     -34.913  22.260   0.868  0.00  0.00    +0.128 C 
ATOM      5  C   UNL     1     -35.845  22.570   2.077  0.00  0.00    +0.028 C 
ATOM      6  C   UNL     1     -33.762  23.274   0.669  0.00  0.00    +0.126 C 
ATOM      7  C   UNL     1     -35.142  22.357   3.442  0.00  0.00    +0.010 C 
ATOM      8  C   UNL     1     -35.937  22.857   4.669  0.00  0.00    +0.062 C 
ATOM      9  C   UNL     1     -37.105  21.693   1.983  0.00  0.00    +0.003 C 
ATOM     10  C   UNL     1     -32.869  22.923  -0.523  0.00  0.00    +0.014 C 
ATOM     11  C   UNL     1     -34.303  24.675   0.445  0.00  0.00    +0.319 C 
ATOM     12  C   UNL     1     -34.233  26.890   1.399  0.00  0.00    +0.199 C 
ATOM     13  C   UNL     1     -35.195  22.537   5.966  0.00  0.00    +0.008 C 
ATOM     14  C   UNL     1     -36.254  24.352   4.621  0.00  0.00    +0.172 C 
ATOM     15  C   UNL     1     -34.371  27.278   2.894  0.00  0.00    +0.065 C 
ATOM     16  C   UNL     1     -35.146  25.280   4.262  0.00  0.00    +0.033 C 
ATOM     17  C   UNL     1     -35.410  26.364   3.519  0.00  0.00    -0.020 C 
ATOM     18  C   UNL     1     -33.029  27.296   3.637  0.00  0.00    +0.008 C 
ENDROOT
BRANCH  12  19
ATOM     19  C   UNL     1     -33.287  27.795   0.618  0.00  0.00    +0.151 C 
ATOM     20  C   UNL     1     -32.007  27.072   0.232  0.00  0.00    +0.036 C 
BRANCH  19  21
ATOM     21  O   UNL     1     -33.944  28.251  -0.560  0.00  0.00    -0.381 OA
ATOM     22  H   UNL     1     -34.900  28.291  -0.403  0.00  0.00    +0.210 HD
ENDBRANCH  19  21
ENDBRANCH  12  19
BRANCH   4  23
ATOM     23  O   UNL     1     -34.382  20.945   1.029  0.00  0.00    -0.331 OA
BRANCH  23  27
ATOM     24  O   UNL     1     -35.818  20.698  -0.793  0.00  0.00    -0.331 OA
ATOM     25  C   UNL     1     -35.742  17.832  -0.578  0.00  0.00    -0.023 C 
ATOM     26  C   UNL     1     -35.185  18.747   0.521  0.00  0.00    +0.148 C 
ATOM     27  C   UNL     1     -34.753  20.098  -0.058  0.00  0.00    +0.261 C 
ATOM     28  C   UNL     1     -36.794  18.571  -1.408  0.00  0.00    +0.011 C 
ATOM     29  C   UNL     1     -36.234  19.904  -1.907  0.00  0.00    +0.116 C 
ATOM     30  C   UNL     1     -37.290  20.691  -2.671  0.00  0.00    +0.032 C 
BRANCH  25  31
ATOM     31  N   UNL     1     -36.335  16.625   0.001  0.00  0.00    +0.387 N 
ATOM     32  C   UNL     1     -35.589  15.439  -0.418  0.00  0.00    -0.101 C 
ATOM     33  C   UNL     1     -37.740  16.510  -0.385  0.00  0.00    -0.101 C 
ATOM     34  H   UNL     1     -36.284  16.695   1.017  0.00  0.00    -0.080 HD
ENDBRANCH  25  31
BRANCH  26  35
ATOM     35  O   UNL     1     -34.043  18.142   1.125  0.00  0.00    -0.381 OA
ATOM     36  H   UNL     1     -33.926  17.246   0.770  0.00  0.00    +0.210 HD
ENDBRANCH  26  35
ENDBRANCH  23  27
ENDBRANCH   4  23
TORSDOF 6
ENDMDL
MODEL 9
REMARK VINA RESULT:      -5.6      5.981     10.618
REMARK  Name = 5282033
REMARK  6 active torsions:
REMARK  status: ('A' for Active; 'I' for Inactive)
REMARK    1  A    between atoms: C_4  and  O_23
REMARK    2  A    between atoms: C_12  and  C_19
REMARK    3  A    between atoms: C_19  and  O_21
REMARK    4  A    between atoms: O_23  and  C_27
REMARK    5  A    between atoms: C_25  and  N_31
REMARK    6  A    between atoms: C_26  and  O_35
REMARK                            x       y       z     vdW  Elec       q    Type
REMARK                         _______ _______ _______ _____ _____    ______ ____
ROOT
ATOM      1  O   UNL     1     -34.569  16.729  -1.435  0.00  0.00    -0.449 OA
ATOM      2  O   UNL     1     -35.250  18.702  -2.422  0.00  0.00    -0.250 OA
ATOM      3  O   UNL     1     -29.587  17.926  -1.982  0.00  0.00    -0.291 OA
ATOM      4  C   UNL     1     -34.106  19.866   0.086  0.00  0.00    +0.128 C 
ATOM      5  C   UNL     1     -32.613  19.698  -0.325  0.00  0.00    +0.028 C 
ATOM      6  C   UNL     1     -34.949  18.574  -0.017  0.00  0.00    +0.126 C 
ATOM      7  C   UNL     1     -31.808  18.844   0.688  0.00  0.00    +0.010 C 
ATOM      8  C   UNL     1     -30.385  18.457   0.228  0.00  0.00    +0.062 C 
ATOM      9  C   UNL     1     -31.971  21.087  -0.480  0.00  0.00    +0.003 C 
ATOM     10  C   UNL     1     -36.404  18.786   0.406  0.00  0.00    +0.014 C 
ATOM     11  C   UNL     1     -34.954  18.038  -1.437  0.00  0.00    +0.319 C 
ATOM     12  C   UNL     1     -34.335  16.083  -2.710  0.00  0.00    +0.199 C 
ATOM     13  C   UNL     1     -29.651  17.680   1.321  0.00  0.00    +0.008 C 
ATOM     14  C   UNL     1     -30.364  17.648  -1.070  0.00  0.00    +0.172 C 
ATOM     15  C   UNL     1     -33.021  15.267  -2.605  0.00  0.00    +0.065 C 
ATOM     16  C   UNL     1     -31.314  16.508  -1.188  0.00  0.00    +0.033 C 
ATOM     17  C   UNL     1     -31.882  16.244  -2.372  0.00  0.00    -0.020 C 
ATOM     18  C   UNL     1     -33.095  14.138  -1.569  0.00  0.00    +0.008 C 
ENDROOT
BRANCH  12  19
ATOM     19  C   UNL     1     -35.557  15.234  -3.041  0.00  0.00    +0.151 C 
ATOM     20  C   UNL     1     -36.490  15.100  -1.849  0.00  0.00    +0.036 C 
BRANCH  19  21
ATOM     21  O   UNL     1     -36.260  15.832  -4.125  0.00  0.00    -0.381 OA
ATOM     22  H   UNL     1     -35.629  16.107  -4.808  0.00  0.00    +0.210 HD
ENDBRANCH  19  21
ENDBRANCH  12  19
BRANCH   4  23
ATOM     23  O   UNL     1     -34.156  20.376   1.419  0.00  0.00    -0.331 OA
BRANCH  23  27
ATOM     24  O   UNL     1     -34.259  22.670   1.003  0.00  0.00    -0.331 OA
ATOM     25  C   UNL     1     -36.125  23.066   3.154  0.00  0.00    -0.023 C 
ATOM     26  C   UNL     1     -35.365  21.745   2.967  0.00  0.00    +0.148 C 
ATOM     27  C   UNL     1     -34.977  21.541   1.499  0.00  0.00    +0.261 C 
ATOM     28  C   UNL     1     -35.364  24.219   2.496  0.00  0.00    +0.011 C 
ATOM     29  C   UNL     1     -35.029  23.873   1.044  0.00  0.00    +0.116 C 
ATOM     30  C   UNL     1     -34.205  24.975   0.394  0.00  0.00    +0.032 C 
BRANCH  25  31
ATOM     31  N   UNL     1     -36.321  23.357   4.575  0.00  0.00    +0.387 N 
ATOM     32  C   UNL     1     -36.622  24.774   4.769  0.00  0.00    -0.101 C 
ATOM     33  C   UNL     1     -35.138  22.973   5.343  0.00  0.00    -0.101 C 
ATOM     34  H   UNL     1     -37.115  22.810   4.910  0.00  0.00    -0.080 HD
ENDBRANCH  25  31
BRANCH  26  35
ATOM     35  O   UNL     1     -36.191  20.650   3.360  0.00  0.00    -0.381 OA
ATOM     36  H   UNL     1     -35.950  19.863   2.846  0.00  0.00    +0.210 HD
ENDBRANCH  26  35
ENDBRANCH  23  27
ENDBRANCH   4  23
TORSDOF 6
ENDMDL
