MODEL 1
REMARK VINA RESULT:      -5.4      0.000      0.000
REMARK  Name = 542027
REMARK  8 active torsions:
REMARK  status: ('A' for Active; 'I' for Inactive)
REMARK    1  A    between atoms: CA_1  and  N_3
REMARK    2  A    between atoms: CA_1  and  C_13
REMARK    3  A    between atoms: CA_1  and  CB_16
REMARK    4  A    between atoms: C_4  and  CA_6
REMARK    5  A    between atoms: CA_6  and  N_8
REMARK    6  A    between atoms: C_13  and  O_14
REMARK    7  A    between atoms: CB_16  and  CG_17
REMARK    8  A    between atoms: CG_17  and  CD_20
REMARK                            x       y       z     vdW  Elec       q    Type
REMARK                         _______ _______ _______ _____ _____    ______ ____
ROOT
ATOM      1  CA  GLN A   2     -35.809  22.906   4.276  0.00  0.00    +0.172 C 
ENDROOT
BRANCH   1   3
ATOM      2  O   ALA A   1     -36.714  24.997   2.517  0.00  0.00    -0.277 OA
ATOM      3  N   GLN A   2     -37.151  23.110   3.793  0.00  0.00    -0.298 N 
ATOM      4  C   ALA A   1     -37.499  24.153   2.942  0.00  0.00    +0.202 C 
ATOM      5  H   GLN A   2     -37.854  22.482   4.079  0.00  0.00    +0.150 HD
BRANCH   4   6
ATOM      6  CA  ALA A   1     -38.983  24.144   2.599  0.00  0.00    +0.013 C 
ATOM      7  CB  ALA A   1     -39.453  22.721   2.323  0.00  0.00    -0.015 C 
BRANCH   6   8
ATOM      8  N   ALA A   1     -39.718  24.710   3.728  0.00  0.00    +0.387 N 
ATOM      9  H1  ALA A   1     -39.060  25.111   4.395  0.00  0.00    -0.089 HD
ATOM     10  H2  ALA A   1     -40.260  23.975   4.183  0.00  0.00    -0.089 HD
ATOM     11  H3  ALA A   1     -40.348  25.438   3.392  0.00  0.00    -0.089 HD
ENDBRANCH   6   8
ENDBRANCH   4   6
ENDBRANCH   1   3
BRANCH   1  13
ATOM     12  OXT GLN A   2     -35.328  20.660   3.526  0.00  0.00    -0.248 OA
ATOM     13  C   GLN A   2     -35.471  21.436   4.465  0.00  0.00    +0.332 C 
BRANCH  13  14
ATOM     14  O   GLN A   2     -35.385  21.037   5.756  0.00  0.00    -0.479 OA
ATOM     15  H   GLN A   2     -35.411  21.670   6.446  0.00  0.00    +0.295 HD
ENDBRANCH  13  14
ENDBRANCH   1  13
BRANCH   1  16
ATOM     16  CB  GLN A   2     -35.550  23.699   5.563  0.00  0.00    +0.041 C 
BRANCH  16  17
ATOM     17  CG  GLN A   2     -34.423  24.730   5.439  0.00  0.00    +0.087 C 
BRANCH  17  20
ATOM     18  OE1 GLN A   2     -34.309  27.053   4.823  0.00  0.00    -0.275 OA
ATOM     19  NE2 GLN A   2     -36.332  26.211   5.531  0.00  0.00    -0.329 N 
ATOM     20  CD  GLN A   2     -34.991  26.116   5.233  0.00  0.00    +0.219 C 
ATOM     21 HE21 GLN A   2     -36.799  27.072   5.430  0.00  0.00    +0.145 HD
ATOM     22 HE22 GLN A   2     -36.823  25.418   5.845  0.00  0.00    +0.145 HD
ENDBRANCH  17  20
ENDBRANCH  16  17
ENDBRANCH   1  16
TORSDOF 8
ENDMDL
MODEL 2
REMARK VINA RESULT:      -5.3      2.270      2.626
REMARK  Name = 542027
REMARK  8 active torsions:
REMARK  status: ('A' for Active; 'I' for Inactive)
REMARK    1  A    between atoms: CA_1  and  N_3
REMARK    2  A    between atoms: CA_1  and  C_13
REMARK    3  A    between atoms: CA_1  and  CB_16
REMARK    4  A    between atoms: C_4  and  CA_6
REMARK    5  A    between atoms: CA_6  and  N_8
REMARK    6  A    between atoms: C_13  and  O_14
REMARK    7  A    between atoms: CB_16  and  CG_17
REMARK    8  A    between atoms: CG_17  and  CD_20
REMARK                            x       y       z     vdW  Elec       q    Type
REMARK                         _______ _______ _______ _____ _____    ______ ____
ROOT
ATOM      1  CA  GLN A   2     -35.471  22.640   4.405  0.00  0.00    +0.172 C 
ENDROOT
BRANCH   1   3
ATOM      2  O   ALA A   1     -35.043  20.573   2.447  0.00  0.00    -0.277 OA
ATOM      3  N   GLN A   2     -36.384  22.226   3.369  0.00  0.00    -0.298 N 
ATOM      4  C   ALA A   1     -36.091  21.214   2.463  0.00  0.00    +0.202 C 
ATOM      5  H   GLN A   2     -37.254  22.682   3.300  0.00  0.00    +0.150 HD
BRANCH   4   6
ATOM      6  CA  ALA A   1     -37.222  20.990   1.467  0.00  0.00    +0.013 C 
ATOM      7  CB  ALA A   1     -36.979  19.715   0.669  0.00  0.00    -0.015 C 
BRANCH   6   8
ATOM      8  N   ALA A   1     -38.476  20.890   2.211  0.00  0.00    +0.387 N 
ATOM      9  H1  ALA A   1     -39.210  20.546   1.593  0.00  0.00    -0.089 HD
ATOM     10  H2  ALA A   1     -38.733  21.810   2.567  0.00  0.00    -0.089 HD
ATOM     11  H3  ALA A   1     -38.357  20.244   2.991  0.00  0.00    -0.089 HD
ENDBRANCH   6   8
ENDBRANCH   4   6
ENDBRANCH   1   3
BRANCH   1  13
ATOM     12  OXT GLN A   2     -36.102  22.176   6.691  0.00  0.00    -0.248 OA
ATOM     13  C   GLN A   2     -35.577  21.781   5.656  0.00  0.00    +0.332 C 
BRANCH  13  14
ATOM     14  O   GLN A   2     -35.003  20.559   5.552  0.00  0.00    -0.479 OA
ATOM     15  H   GLN A   2     -34.100  20.444   5.775  0.00  0.00    +0.295 HD
ENDBRANCH  13  14
ENDBRANCH   1  13
BRANCH   1  16
ATOM     16  CB  GLN A   2     -35.642  24.126   4.743  0.00  0.00    +0.041 C 
BRANCH  16  17
ATOM     17  CG  GLN A   2     -34.342  24.820   5.157  0.00  0.00    +0.087 C 
BRANCH  17  20
ATOM     18  OE1 GLN A   2     -33.631  27.088   5.533  0.00  0.00    -0.275 OA
ATOM     19  NE2 GLN A   2     -35.844  26.710   5.024  0.00  0.00    -0.329 N 
ATOM     20  CD  GLN A   2     -34.548  26.314   5.267  0.00  0.00    +0.219 C 
ATOM     21 HE21 GLN A   2     -36.085  27.664   5.070  0.00  0.00    +0.145 HD
ATOM     22 HE22 GLN A   2     -36.530  26.039   4.805  0.00  0.00    +0.145 HD
ENDBRANCH  17  20
ENDBRANCH  16  17
ENDBRANCH   1  16
TORSDOF 8
ENDMDL
MODEL 3
REMARK VINA RESULT:      -5.2      1.263      1.561
REMARK  Name = 542027
REMARK  8 active torsions:
REMARK  status: ('A' for Active; 'I' for Inactive)
REMARK    1  A    between atoms: CA_1  and  N_3
REMARK    2  A    between atoms: CA_1  and  C_13
REMARK    3  A    between atoms: CA_1  and  CB_16
REMARK    4  A    between atoms: C_4  and  CA_6
REMARK    5  A    between atoms: CA_6  and  N_8
REMARK    6  A    between atoms: C_13  and  O_14
REMARK    7  A    between atoms: CB_16  and  CG_17
REMARK    8  A    between atoms: CG_17  and  CD_20
REMARK                            x       y       z     vdW  Elec       q    Type
REMARK                         _______ _______ _______ _____ _____    ______ ____
ROOT
ATOM      1  CA  GLN A   2     -35.465  23.370   4.732  0.00  0.00    +0.172 C 
ENDROOT
BRANCH   1   3
ATOM      2  O   ALA A   1     -36.816  22.428   2.371  0.00  0.00    -0.277 OA
ATOM      3  N   GLN A   2     -36.707  23.862   4.191  0.00  0.00    -0.298 N 
ATOM      4  C   ALA A   1     -37.288  23.345   3.039  0.00  0.00    +0.202 C 
ATOM      5  H   GLN A   2     -37.164  24.599   4.658  0.00  0.00    +0.150 HD
BRANCH   4   6
ATOM      6  CA  ALA A   1     -38.587  24.056   2.682  0.00  0.00    +0.013 C 
ATOM      7  CB  ALA A   1     -39.653  23.042   2.286  0.00  0.00    -0.015 C 
BRANCH   6   8
ATOM      8  N   ALA A   1     -39.025  24.823   3.846  0.00  0.00    +0.387 N 
ATOM      9  H1  ALA A   1     -39.900  24.436   4.198  0.00  0.00    -0.089 HD
ATOM     10  H2  ALA A   1     -39.167  25.796   3.577  0.00  0.00    -0.089 HD
ATOM     11  H3  ALA A   1     -38.313  24.771   4.574  0.00  0.00    -0.089 HD
ENDBRANCH   6   8
ENDBRANCH   4   6
ENDBRANCH   1   3
BRANCH   1  13
ATOM     12  OXT GLN A   2     -35.948  21.995   6.659  0.00  0.00    -0.248 OA
ATOM     13  C   GLN A   2     -35.631  22.054   5.476  0.00  0.00    +0.332 C 
BRANCH  13  14
ATOM     14  O   GLN A   2     -35.355  20.951   4.741  0.00  0.00    -0.479 OA
ATOM     15  H   GLN A   2     -35.808  20.149   4.911  0.00  0.00    +0.295 HD
ENDBRANCH  13  14
ENDBRANCH   1  13
BRANCH   1  16
ATOM     16  CB  GLN A   2     -34.784  24.420   5.618  0.00  0.00    +0.041 C 
BRANCH  16  17
ATOM     17  CG  GLN A   2     -35.333  25.838   5.431  0.00  0.00    +0.087 C 
BRANCH  17  20
ATOM     18  OE1 GLN A   2     -33.235  26.406   4.401  0.00  0.00    -0.275 OA
ATOM     19  NE2 GLN A   2     -35.097  27.632   3.828  0.00  0.00    -0.329 N 
ATOM     20  CD  GLN A   2     -34.435  26.641   4.517  0.00  0.00    +0.219 C 
ATOM     21 HE21 GLN A   2     -34.603  28.213   3.205  0.00  0.00    +0.145 HD
ATOM     22 HE22 GLN A   2     -36.064  27.760   3.959  0.00  0.00    +0.145 HD
ENDBRANCH  17  20
ENDBRANCH  16  17
ENDBRANCH   1  16
TORSDOF 8
ENDMDL
MODEL 4
REMARK VINA RESULT:      -5.0      3.198      6.561
REMARK  Name = 542027
REMARK  8 active torsions:
REMARK  status: ('A' for Active; 'I' for Inactive)
REMARK    1  A    between atoms: CA_1  and  N_3
REMARK    2  A    between atoms: CA_1  and  C_13
REMARK    3  A    between atoms: CA_1  and  CB_16
REMARK    4  A    between atoms: C_4  and  CA_6
REMARK    5  A    between atoms: CA_6  and  N_8
REMARK    6  A    between atoms: C_13  and  O_14
REMARK    7  A    between atoms: CB_16  and  CG_17
REMARK    8  A    between atoms: CG_17  and  CD_20
REMARK                            x       y       z     vdW  Elec       q    Type
REMARK                         _______ _______ _______ _____ _____    ______ ____
ROOT
ATOM      1  CA  GLN A   2     -33.588  26.647   4.773  0.00  0.00    +0.172 C 
ENDROOT
BRANCH   1   3
ATOM      2  O   ALA A   1     -30.965  27.771   4.391  0.00  0.00    -0.277 OA
ATOM      3  N   GLN A   2     -33.002  27.744   5.500  0.00  0.00    -0.298 N 
ATOM      4  C   ALA A   1     -31.722  28.223   5.247  0.00  0.00    +0.202 C 
ATOM      5  H   GLN A   2     -33.533  28.174   6.210  0.00  0.00    +0.150 HD
BRANCH   4   6
ATOM      6  CA  ALA A   1     -31.347  29.376   6.168  0.00  0.00    +0.013 C 
ATOM      7  CB  ALA A   1     -32.065  30.650   5.741  0.00  0.00    -0.015 C 
BRANCH   6   8
ATOM      8  N   ALA A   1     -31.726  29.015   7.533  0.00  0.00    +0.387 N 
ATOM      9  H1  ALA A   1     -32.730  28.841   7.571  0.00  0.00    -0.089 HD
ATOM     10  H2  ALA A   1     -31.488  29.780   8.164  0.00  0.00    -0.089 HD
ATOM     11  H3  ALA A   1     -31.224  28.173   7.813  0.00  0.00    -0.089 HD
ENDBRANCH   6   8
ENDBRANCH   4   6
ENDBRANCH   1   3
BRANCH   1  13
ATOM     12  OXT GLN A   2     -34.109  27.307   2.507  0.00  0.00    -0.248 OA
ATOM     13  C   GLN A   2     -34.504  27.110   3.651  0.00  0.00    +0.332 C 
BRANCH  13  14
ATOM     14  O   GLN A   2     -35.786  27.334   4.025  0.00  0.00    -0.479 OA
ATOM     15  H   GLN A   2     -36.336  26.616   4.270  0.00  0.00    +0.295 HD
ENDBRANCH  13  14
ENDBRANCH   1  13
BRANCH   1  16
ATOM     16  CB  GLN A   2     -34.315  25.676   5.711  0.00  0.00    +0.041 C 
BRANCH  16  17
ATOM     17  CG  GLN A   2     -34.461  24.260   5.145  0.00  0.00    +0.087 C 
BRANCH  17  20
ATOM     18  OE1 GLN A   2     -36.813  24.609   4.779  0.00  0.00    -0.275 OA
ATOM     19  NE2 GLN A   2     -36.119  22.537   5.502  0.00  0.00    -0.329 N 
ATOM     20  CD  GLN A   2     -35.915  23.844   5.122  0.00  0.00    +0.219 C 
ATOM     21 HE21 GLN A   2     -37.030  22.166   5.520  0.00  0.00    +0.145 HD
ATOM     22 HE22 GLN A   2     -35.352  21.973   5.755  0.00  0.00    +0.145 HD
ENDBRANCH  17  20
ENDBRANCH  16  17
ENDBRANCH   1  16
TORSDOF 8
ENDMDL
MODEL 5
REMARK VINA RESULT:      -4.9      2.323      4.545
REMARK  Name = 542027
REMARK  8 active torsions:
REMARK  status: ('A' for Active; 'I' for Inactive)
REMARK    1  A    between atoms: CA_1  and  N_3
REMARK    2  A    between atoms: CA_1  and  C_13
REMARK    3  A    between atoms: CA_1  and  CB_16
REMARK    4  A    between atoms: C_4  and  CA_6
REMARK    5  A    between atoms: CA_6  and  N_8
REMARK    6  A    between atoms: C_13  and  O_14
REMARK    7  A    between atoms: CB_16  and  CG_17
REMARK    8  A    between atoms: CG_17  and  CD_20
REMARK                            x       y       z     vdW  Elec       q    Type
REMARK                         _______ _______ _______ _____ _____    ______ ____
ROOT
ATOM      1  CA  GLN A   2     -35.845  22.839   4.421  0.00  0.00    +0.172 C 
ENDROOT
BRANCH   1   3
ATOM      2  O   ALA A   1     -37.255  25.329   4.105  0.00  0.00    -0.277 OA
ATOM      3  N   GLN A   2     -35.388  24.148   4.813  0.00  0.00    -0.298 N 
ATOM      4  C   ALA A   1     -36.140  25.302   4.620  0.00  0.00    +0.202 C 
ATOM      5  H   GLN A   2     -34.502  24.230   5.235  0.00  0.00    +0.150 HD
BRANCH   4   6
ATOM      6  CA  ALA A   1     -35.416  26.549   5.110  0.00  0.00    +0.013 C 
ATOM      7  CB  ALA A   1     -34.065  26.175   5.708  0.00  0.00    -0.015 C 
BRANCH   6   8
ATOM      8  N   ALA A   1     -35.235  27.450   3.975  0.00  0.00    +0.387 N 
ATOM      9  H1  ALA A   1     -34.946  28.368   4.312  0.00  0.00    -0.089 HD
ATOM     10  H2  ALA A   1     -36.114  27.536   3.466  0.00  0.00    -0.089 HD
ATOM     11  H3  ALA A   1     -34.517  27.075   3.354  0.00  0.00    -0.089 HD
ENDBRANCH   6   8
ENDBRANCH   4   6
ENDBRANCH   1   3
BRANCH   1  13
ATOM     12  OXT GLN A   2     -35.895  21.990   6.683  0.00  0.00    -0.248 OA
ATOM     13  C   GLN A   2     -35.624  21.794   5.503  0.00  0.00    +0.332 C 
BRANCH  13  14
ATOM     14  O   GLN A   2     -35.060  20.642   5.069  0.00  0.00    -0.479 OA
ATOM     15  H   GLN A   2     -34.128  20.568   5.010  0.00  0.00    +0.295 HD
ENDBRANCH  13  14
ENDBRANCH   1  13
BRANCH   1  16
ATOM     16  CB  GLN A   2     -35.216  22.399   3.095  0.00  0.00    +0.041 C 
BRANCH  16  17
ATOM     17  CG  GLN A   2     -36.230  22.196   1.965  0.00  0.00    +0.087 C 
BRANCH  17  20
ATOM     18  OE1 GLN A   2     -36.347  19.819   2.318  0.00  0.00    -0.275 OA
ATOM     19  NE2 GLN A   2     -38.317  20.978   2.048  0.00  0.00    -0.329 N 
ATOM     20  CD  GLN A   2     -36.947  20.874   2.124  0.00  0.00    +0.219 C 
ATOM     21 HE21 GLN A   2     -38.878  20.175   2.139  0.00  0.00    +0.145 HD
ATOM     22 HE22 GLN A   2     -38.735  21.857   1.901  0.00  0.00    +0.145 HD
ENDBRANCH  17  20
ENDBRANCH  16  17
ENDBRANCH   1  16
TORSDOF 8
ENDMDL
MODEL 6
REMARK VINA RESULT:      -4.9      2.595      5.115
REMARK  Name = 542027
REMARK  8 active torsions:
REMARK  status: ('A' for Active; 'I' for Inactive)
REMARK    1  A    between atoms: CA_1  and  N_3
REMARK    2  A    between atoms: CA_1  and  C_13
REMARK    3  A    between atoms: CA_1  and  CB_16
REMARK    4  A    between atoms: C_4  and  CA_6
REMARK    5  A    between atoms: CA_6  and  N_8
REMARK    6  A    between atoms: C_13  and  O_14
REMARK    7  A    between atoms: CB_16  and  CG_17
REMARK    8  A    between atoms: CG_17  and  CD_20
REMARK                            x       y       z     vdW  Elec       q    Type
REMARK                         _______ _______ _______ _____ _____    ______ ____
ROOT
ATOM      1  CA  GLN A   2     -36.011  25.892   3.913  0.00  0.00    +0.172 C 
ENDROOT
BRANCH   1   3
ATOM      2  O   ALA A   1     -34.058  26.862   2.034  0.00  0.00    -0.277 OA
ATOM      3  N   GLN A   2     -35.455  27.220   3.851  0.00  0.00    -0.298 N 
ATOM      4  C   ALA A   1     -34.512  27.602   2.904  0.00  0.00    +0.202 C 
ATOM      5  H   GLN A   2     -35.758  27.887   4.509  0.00  0.00    +0.150 HD
BRANCH   4   6
ATOM      6  CA  ALA A   1     -34.084  29.054   3.072  0.00  0.00    +0.013 C 
ATOM      7  CB  ALA A   1     -33.318  29.525   1.843  0.00  0.00    -0.015 C 
BRANCH   6   8
ATOM      8  N   ALA A   1     -35.283  29.866   3.264  0.00  0.00    +0.387 N 
ATOM      9  H1  ALA A   1     -35.455  29.989   4.262  0.00  0.00    -0.089 HD
ATOM     10  H2  ALA A   1     -36.082  29.399   2.836  0.00  0.00    -0.089 HD
ATOM     11  H3  ALA A   1     -35.149  30.778   2.828  0.00  0.00    -0.089 HD
ENDBRANCH   6   8
ENDBRANCH   4   6
ENDBRANCH   1   3
BRANCH   1  13
ATOM     12  OXT GLN A   2     -37.895  26.556   2.554  0.00  0.00    -0.248 OA
ATOM     13  C   GLN A   2     -37.457  25.839   3.447  0.00  0.00    +0.332 C 
BRANCH  13  14
ATOM     14  O   GLN A   2     -38.239  24.969   4.129  0.00  0.00    -0.479 OA
ATOM     15  H   GLN A   2     -38.074  24.048   4.076  0.00  0.00    +0.295 HD
ENDBRANCH  13  14
ENDBRANCH   1  13
BRANCH   1  16
ATOM     16  CB  GLN A   2     -35.862  25.287   5.314  0.00  0.00    +0.041 C 
BRANCH  16  17
ATOM     17  CG  GLN A   2     -34.954  24.055   5.365  0.00  0.00    +0.087 C 
BRANCH  17  20
ATOM     18  OE1 GLN A   2     -35.856  22.183   6.576  0.00  0.00    -0.275 OA
ATOM     19  NE2 GLN A   2     -36.422  22.420   4.357  0.00  0.00    -0.329 N 
ATOM     20  CD  GLN A   2     -35.775  22.794   5.513  0.00  0.00    +0.219 C 
ATOM     21 HE21 GLN A   2     -36.984  21.612   4.347  0.00  0.00    +0.145 HD
ATOM     22 HE22 GLN A   2     -36.323  22.962   3.541  0.00  0.00    +0.145 HD
ENDBRANCH  17  20
ENDBRANCH  16  17
ENDBRANCH   1  16
TORSDOF 8
ENDMDL
MODEL 7
REMARK VINA RESULT:      -4.8      1.978      4.813
REMARK  Name = 542027
REMARK  8 active torsions:
REMARK  status: ('A' for Active; 'I' for Inactive)
REMARK    1  A    between atoms: CA_1  and  N_3
REMARK    2  A    between atoms: CA_1  and  C_13
REMARK    3  A    between atoms: CA_1  and  CB_16
REMARK    4  A    between atoms: C_4  and  CA_6
REMARK    5  A    between atoms: CA_6  and  N_8
REMARK    6  A    between atoms: C_13  and  O_14
REMARK    7  A    between atoms: CB_16  and  CG_17
REMARK    8  A    between atoms: CG_17  and  CD_20
REMARK                            x       y       z     vdW  Elec       q    Type
REMARK                         _______ _______ _______ _____ _____    ______ ____
ROOT
ATOM      1  CA  GLN A   2     -36.831  22.930   3.137  0.00  0.00    +0.172 C 
ENDROOT
BRANCH   1   3
ATOM      2  O   ALA A   1     -35.988  23.116   5.884  0.00  0.00    -0.277 OA
ATOM      3  N   GLN A   2     -36.326  24.100   3.811  0.00  0.00    -0.298 N 
ATOM      4  C   ALA A   1     -35.941  24.098   5.147  0.00  0.00    +0.202 C 
ATOM      5  H   GLN A   2     -36.252  24.940   3.302  0.00  0.00    +0.150 HD
BRANCH   4   6
ATOM      6  CA  ALA A   1     -35.461  25.468   5.609  0.00  0.00    +0.013 C 
ATOM      7  CB  ALA A   1     -34.128  25.809   4.956  0.00  0.00    -0.015 C 
BRANCH   6   8
ATOM      8  N   ALA A   1     -36.473  26.456   5.241  0.00  0.00    +0.387 N 
ATOM      9  H1  ALA A   1     -36.578  26.473   4.227  0.00  0.00    -0.089 HD
ATOM     10  H2  ALA A   1     -36.182  27.377   5.569  0.00  0.00    -0.089 HD
ATOM     11  H3  ALA A   1     -37.363  26.207   5.671  0.00  0.00    -0.089 HD
ENDBRANCH   6   8
ENDBRANCH   4   6
ENDBRANCH   1   3
BRANCH   1  13
ATOM     12  OXT GLN A   2     -34.950  21.967   1.965  0.00  0.00    -0.248 OA
ATOM     13  C   GLN A   2     -35.752  21.887   2.889  0.00  0.00    +0.332 C 
BRANCH  13  14
ATOM     14  O   GLN A   2     -35.776  20.836   3.741  0.00  0.00    -0.479 OA
ATOM     15  H   GLN A   2     -35.914  19.969   3.414  0.00  0.00    +0.295 HD
ENDBRANCH  13  14
ENDBRANCH   1  13
BRANCH   1  16
ATOM     16  CB  GLN A   2     -37.549  23.299   1.834  0.00  0.00    +0.041 C 
BRANCH  16  17
ATOM     17  CG  GLN A   2     -38.348  22.146   1.219  0.00  0.00    +0.087 C 
BRANCH  17  20
ATOM     18  OE1 GLN A   2     -40.269  21.116   2.237  0.00  0.00    -0.275 OA
ATOM     19  NE2 GLN A   2     -40.394  23.347   1.682  0.00  0.00    -0.329 N 
ATOM     20  CD  GLN A   2     -39.760  22.128   1.761  0.00  0.00    +0.219 C 
ATOM     21 HE21 GLN A   2     -41.318  23.443   2.009  0.00  0.00    +0.145 HD
ATOM     22 HE22 GLN A   2     -39.924  24.122   1.299  0.00  0.00    +0.145 HD
ENDBRANCH  17  20
ENDBRANCH  16  17
ENDBRANCH   1  16
TORSDOF 8
ENDMDL
MODEL 8
REMARK VINA RESULT:      -4.7      2.260      3.864
REMARK  Name = 542027
REMARK  8 active torsions:
REMARK  status: ('A' for Active; 'I' for Inactive)
REMARK    1  A    between atoms: CA_1  and  N_3
REMARK    2  A    between atoms: CA_1  and  C_13
REMARK    3  A    between atoms: CA_1  and  CB_16
REMARK    4  A    between atoms: C_4  and  CA_6
REMARK    5  A    between atoms: CA_6  and  N_8
REMARK    6  A    between atoms: C_13  and  O_14
REMARK    7  A    between atoms: CB_16  and  CG_17
REMARK    8  A    between atoms: CG_17  and  CD_20
REMARK                            x       y       z     vdW  Elec       q    Type
REMARK                         _______ _______ _______ _____ _____    ______ ____
ROOT
ATOM      1  CA  GLN A   2     -35.728  23.346   3.530  0.00  0.00    +0.172 C 
ENDROOT
BRANCH   1   3
ATOM      2  O   ALA A   1     -35.285  20.525   3.886  0.00  0.00    -0.277 OA
ATOM      3  N   GLN A   2     -35.592  22.355   2.494  0.00  0.00    -0.298 N 
ATOM      4  C   ALA A   1     -35.378  21.007   2.759  0.00  0.00    +0.202 C 
ATOM      5  H   GLN A   2     -35.653  22.644   1.554  0.00  0.00    +0.150 HD
BRANCH   4   6
ATOM      6  CA  ALA A   1     -35.257  20.182   1.485  0.00  0.00    +0.013 C 
ATOM      7  CB  ALA A   1     -33.966  19.373   1.499  0.00  0.00    -0.015 C 
BRANCH   6   8
ATOM      8  N   ALA A   1     -36.412  19.290   1.403  0.00  0.00    +0.387 N 
ATOM      9  H1  ALA A   1     -37.052  19.494   2.170  0.00  0.00    -0.089 HD
ATOM     10  H2  ALA A   1     -36.098  18.322   1.469  0.00  0.00    -0.089 HD
ATOM     11  H3  ALA A   1     -36.890  19.434   0.514  0.00  0.00    -0.089 HD
ENDBRANCH   6   8
ENDBRANCH   4   6
ENDBRANCH   1   3
BRANCH   1  13
ATOM     12  OXT GLN A   2     -37.483  24.709   4.481  0.00  0.00    -0.248 OA
ATOM     13  C   GLN A   2     -37.168  23.796   3.725  0.00  0.00    +0.332 C 
BRANCH  13  14
ATOM     14  O   GLN A   2     -38.083  23.078   3.032  0.00  0.00    -0.479 OA
ATOM     15  H   GLN A   2     -38.017  22.145   2.995  0.00  0.00    +0.295 HD
ENDBRANCH  13  14
ENDBRANCH   1  13
BRANCH   1  16
ATOM     16  CB  GLN A   2     -34.806  24.546   3.282  0.00  0.00    +0.041 C 
BRANCH  16  17
ATOM     17  CG  GLN A   2     -34.053  25.017   4.530  0.00  0.00    +0.087 C 
BRANCH  17  20
ATOM     18  OE1 GLN A   2     -33.369  27.233   5.167  0.00  0.00    -0.275 OA
ATOM     19  NE2 GLN A   2     -35.527  26.930   4.424  0.00  0.00    -0.329 N 
ATOM     20  CD  GLN A   2     -34.261  26.498   4.751  0.00  0.00    +0.219 C 
ATOM     21 HE21 GLN A   2     -35.766  27.879   4.530  0.00  0.00    +0.145 HD
ATOM     22 HE22 GLN A   2     -36.192  26.290   4.084  0.00  0.00    +0.145 HD
ENDBRANCH  17  20
ENDBRANCH  16  17
ENDBRANCH   1  16
TORSDOF 8
ENDMDL
MODEL 9
REMARK VINA RESULT:      -4.7      2.340      5.771
REMARK  Name = 542027
REMARK  8 active torsions:
REMARK  status: ('A' for Active; 'I' for Inactive)
REMARK    1  A    between atoms: CA_1  and  N_3
REMARK    2  A    between atoms: CA_1  and  C_13
REMARK    3  A    between atoms: CA_1  and  CB_16
REMARK    4  A    between atoms: C_4  and  CA_6
REMARK    5  A    between atoms: CA_6  and  N_8
REMARK    6  A    between atoms: C_13  and  O_14
REMARK    7  A    between atoms: CB_16  and  CG_17
REMARK    8  A    between atoms: CG_17  and  CD_20
REMARK                            x       y       z     vdW  Elec       q    Type
REMARK                         _______ _______ _______ _____ _____    ______ ____
ROOT
ATOM      1  CA  GLN A   2     -38.259  24.696   2.827  0.00  0.00    +0.172 C 
ENDROOT
BRANCH   1   3
ATOM      2  O   ALA A   1     -35.745  23.317   3.080  0.00  0.00    -0.277 OA
ATOM      3  N   GLN A   2     -37.505  24.486   4.037  0.00  0.00    -0.298 N 
ATOM      4  C   ALA A   1     -36.294  23.804   4.065  0.00  0.00    +0.202 C 
ATOM      5  H   GLN A   2     -37.865  24.841   4.882  0.00  0.00    +0.150 HD
BRANCH   4   6
ATOM      6  CA  ALA A   1     -35.719  23.713   5.473  0.00  0.00    +0.013 C 
ATOM      7  CB  ALA A   1     -35.391  22.265   5.817  0.00  0.00    -0.015 C 
BRANCH   6   8
ATOM      8  N   ALA A   1     -34.511  24.532   5.529  0.00  0.00    +0.387 N 
ATOM      9  H1  ALA A   1     -33.922  24.326   4.723  0.00  0.00    -0.089 HD
ATOM     10  H2  ALA A   1     -33.999  24.324   6.387  0.00  0.00    -0.089 HD
ATOM     11  H3  ALA A   1     -34.769  25.519   5.518  0.00  0.00    -0.089 HD
ENDBRANCH   6   8
ENDBRANCH   4   6
ENDBRANCH   1   3
BRANCH   1  13
ATOM     12  OXT GLN A   2     -39.804  26.540   2.602  0.00  0.00    -0.248 OA
ATOM     13  C   GLN A   2     -38.640  26.154   2.620  0.00  0.00    +0.332 C 
BRANCH  13  14
ATOM     14  O   GLN A   2     -37.594  26.988   2.411  0.00  0.00    -0.479 OA
ATOM     15  H   GLN A   2     -37.293  27.545   3.101  0.00  0.00    +0.295 HD
ENDBRANCH  13  14
ENDBRANCH   1  13
BRANCH   1  16
ATOM     16  CB  GLN A   2     -39.495  23.791   2.772  0.00  0.00    +0.041 C 
BRANCH  16  17
ATOM     17  CG  GLN A   2     -39.694  23.095   1.421  0.00  0.00    +0.087 C 
BRANCH  17  20
ATOM     18  OE1 GLN A   2     -40.579  20.875   1.155  0.00  0.00    -0.275 OA
ATOM     19  NE2 GLN A   2     -38.573  21.123   2.256  0.00  0.00    -0.329 N 
ATOM     20  CD  GLN A   2     -39.682  21.593   1.590  0.00  0.00    +0.219 C 
ATOM     21 HE21 GLN A   2     -38.468  20.157   2.418  0.00  0.00    +0.145 HD
ATOM     22 HE22 GLN A   2     -37.885  21.752   2.569  0.00  0.00    +0.145 HD
ENDBRANCH  17  20
ENDBRANCH  16  17
ENDBRANCH   1  16
TORSDOF 8
ENDMDL
