MODEL 1
REMARK VINA RESULT:      -6.1      0.000      0.000
REMARK  Name = 194055
REMARK  7 active torsions:
REMARK  status: ('A' for Active; 'I' for Inactive)
REMARK    1  A    between atoms: N_1  and  C_6
REMARK    2  A    between atoms: N_1  and  C_15
REMARK    3  A    between atoms: C_10  and  N_14
REMARK    4  A    between atoms: C_15  and  C_16
REMARK    5  A    between atoms: C_16  and  S_17
REMARK    6  A    between atoms: S_17  and  S_18
REMARK    7  A    between atoms: S_18  and  C_20
REMARK                            x       y       z     vdW  Elec       q    Type
REMARK                         _______ _______ _______ _____ _____    ______ ____
ROOT
ATOM      1  N   UNL     1     -35.490  27.529   3.742  0.00  0.00    -0.331 N 
ATOM      2  H   UNL     1     -35.683  28.228   4.408  0.00  0.00    +0.147 HD
ENDROOT
BRANCH   1   6
ATOM      3  O   UNL     1     -38.038  24.162   2.625  0.00  0.00    -0.241 OA
ATOM      4  N   UNL     1     -37.431  25.400   2.745  0.00  0.00    -0.047 NA
ATOM      5  N   UNL     1     -37.455  23.220   3.455  0.00  0.00    -0.047 NA
ATOM      6  C   UNL     1     -35.539  26.189   4.147  0.00  0.00    +0.068 C 
ATOM      7  C   UNL     1     -36.459  25.245   3.652  0.00  0.00    +0.158 A 
ATOM      8  C   UNL     1     -36.474  23.860   4.103  0.00  0.00    +0.167 A 
ATOM      9  C   UNL     1     -34.644  25.679   5.107  0.00  0.00    +0.018 C 
ATOM     10  C   UNL     1     -35.570  23.371   5.064  0.00  0.00    +0.165 C 
ATOM     11  C   UNL     1     -34.659  24.329   5.545  0.00  0.00    +0.027 C 
BRANCH  10  14
ATOM     12  O   UNL     1     -35.968  21.760   6.665  0.00  0.00    -0.126 OA
ATOM     13  O   UNL     1     -35.222  21.120   4.702  0.00  0.00    -0.126 OA
ATOM     14  N   UNL     1     -35.588  22.026   5.495  0.00  0.00    +0.059 N 
ENDBRANCH  10  14
ENDBRANCH   1   6
BRANCH   1  15
ATOM     15  C   UNL     1     -35.173  27.934   2.403  0.00  0.00    +0.100 C 
BRANCH  15  16
ATOM     16  C   UNL     1     -34.033  27.132   1.791  0.00  0.00    +0.090 C 
BRANCH  16  17
ATOM     17  S   UNL     1     -32.475  28.071   1.753  0.00  0.00    -0.074 S 
BRANCH  17  18
ATOM     18  S   UNL     1     -33.057  29.860   2.578  0.00  0.00    -0.036 S 
BRANCH  18  20
ATOM     19  N   UNL     1     -32.502  28.431   4.772  0.00  0.00    -0.237 NA
ATOM     20  C   UNL     1     -32.506  29.685   4.265  0.00  0.00    +0.116 C 
ATOM     21  C   UNL     1     -32.111  30.809   4.973  0.00  0.00    +0.026 C 
ATOM     22  C   UNL     1     -31.686  30.635   6.286  0.00  0.00    +0.004 C 
ATOM     23  C   UNL     1     -31.668  29.361   6.842  0.00  0.00    +0.021 C 
ATOM     24  C   UNL     1     -32.083  28.302   6.051  0.00  0.00    +0.099 C 
ENDBRANCH  18  20
ENDBRANCH  17  18
ENDBRANCH  16  17
ENDBRANCH  15  16
ENDBRANCH   1  15
TORSDOF 7
ENDMDL
MODEL 2
REMARK VINA RESULT:      -5.9      2.090      2.367
REMARK  Name = 194055
REMARK  7 active torsions:
REMARK  status: ('A' for Active; 'I' for Inactive)
REMARK    1  A    between atoms: N_1  and  C_6
REMARK    2  A    between atoms: N_1  and  C_15
REMARK    3  A    between atoms: C_10  and  N_14
REMARK    4  A    between atoms: C_15  and  C_16
REMARK    5  A    between atoms: C_16  and  S_17
REMARK    6  A    between atoms: S_17  and  S_18
REMARK    7  A    between atoms: S_18  and  C_20
REMARK                            x       y       z     vdW  Elec       q    Type
REMARK                         _______ _______ _______ _____ _____    ______ ____
ROOT
ATOM      1  N   UNL     1     -35.132  27.756   3.830  0.00  0.00    -0.331 N 
ATOM      2  H   UNL     1     -35.737  28.422   4.230  0.00  0.00    +0.147 HD
ENDROOT
BRANCH   1   6
ATOM      3  O   UNL     1     -38.148  24.716   2.966  0.00  0.00    -0.241 OA
ATOM      4  N   UNL     1     -37.400  25.879   3.037  0.00  0.00    -0.047 NA
ATOM      5  N   UNL     1     -37.572  23.689   3.693  0.00  0.00    -0.047 NA
ATOM      6  C   UNL     1     -35.276  26.414   4.207  0.00  0.00    +0.068 C 
ATOM      7  C   UNL     1     -36.346  25.590   3.810  0.00  0.00    +0.158 A 
ATOM      8  C   UNL     1     -36.455  24.198   4.227  0.00  0.00    +0.167 A 
ATOM      9  C   UNL     1     -34.330  25.778   5.034  0.00  0.00    +0.018 C 
ATOM     10  C   UNL     1     -35.498  23.583   5.054  0.00  0.00    +0.165 C 
ATOM     11  C   UNL     1     -34.437  24.422   5.439  0.00  0.00    +0.027 C 
BRANCH  10  14
ATOM     12  O   UNL     1     -36.040  21.964   6.604  0.00  0.00    -0.126 OA
ATOM     13  O   UNL     1     -35.273  21.324   4.650  0.00  0.00    -0.126 OA
ATOM     14  N   UNL     1     -35.608  22.232   5.453  0.00  0.00    +0.059 N 
ENDBRANCH  10  14
ENDBRANCH   1   6
BRANCH   1  15
ATOM     15  C   UNL     1     -34.147  28.207   2.891  0.00  0.00    +0.100 C 
BRANCH  15  16
ATOM     16  C   UNL     1     -33.135  29.167   3.502  0.00  0.00    +0.090 C 
BRANCH  16  17
ATOM     17  S   UNL     1     -31.944  28.314   4.580  0.00  0.00    -0.074 S 
BRANCH  17  18
ATOM     18  S   UNL     1     -30.876  29.896   5.340  0.00  0.00    -0.036 S 
BRANCH  18  20
ATOM     19  N   UNL     1     -29.237  27.829   5.795  0.00  0.00    -0.237 NA
ATOM     20  C   UNL     1     -29.568  29.066   6.225  0.00  0.00    +0.116 C 
ATOM     21  C   UNL     1     -28.955  29.706   7.291  0.00  0.00    +0.026 C 
ATOM     22  C   UNL     1     -27.938  29.031   7.958  0.00  0.00    +0.004 C 
ATOM     23  C   UNL     1     -27.570  27.756   7.544  0.00  0.00    +0.021 C 
ATOM     24  C   UNL     1     -28.245  27.203   6.467  0.00  0.00    +0.099 C 
ENDBRANCH  18  20
ENDBRANCH  17  18
ENDBRANCH  16  17
ENDBRANCH  15  16
ENDBRANCH   1  15
TORSDOF 7
ENDMDL
MODEL 3
REMARK VINA RESULT:      -5.7      2.330      4.829
REMARK  Name = 194055
REMARK  7 active torsions:
REMARK  status: ('A' for Active; 'I' for Inactive)
REMARK    1  A    between atoms: N_1  and  C_6
REMARK    2  A    between atoms: N_1  and  C_15
REMARK    3  A    between atoms: C_10  and  N_14
REMARK    4  A    between atoms: C_15  and  C_16
REMARK    5  A    between atoms: C_16  and  S_17
REMARK    6  A    between atoms: S_17  and  S_18
REMARK    7  A    between atoms: S_18  and  C_20
REMARK                            x       y       z     vdW  Elec       q    Type
REMARK                         _______ _______ _______ _____ _____    ______ ____
ROOT
ATOM      1  N   UNL     1     -35.248  27.868   3.800  0.00  0.00    -0.331 N 
ATOM      2  H   UNL     1     -35.731  28.547   4.324  0.00  0.00    +0.147 HD
ENDROOT
BRANCH   1   6
ATOM      3  O   UNL     1     -38.265  24.796   3.069  0.00  0.00    -0.241 OA
ATOM      4  N   UNL     1     -37.527  25.967   3.107  0.00  0.00    -0.047 NA
ATOM      5  N   UNL     1     -37.647  23.775   3.771  0.00  0.00    -0.047 NA
ATOM      6  C   UNL     1     -35.360  26.525   4.184  0.00  0.00    +0.068 C 
ATOM      7  C   UNL     1     -36.438  25.690   3.835  0.00  0.00    +0.158 A 
ATOM      8  C   UNL     1     -36.515  24.297   4.257  0.00  0.00    +0.167 A 
ATOM      9  C   UNL     1     -34.374  25.901   4.970  0.00  0.00    +0.018 C 
ATOM     10  C   UNL     1     -35.516  23.693   5.042  0.00  0.00    +0.165 C 
ATOM     11  C   UNL     1     -34.448  24.544   5.380  0.00  0.00    +0.027 C 
BRANCH  10  14
ATOM     12  O   UNL     1     -35.194  21.441   4.664  0.00  0.00    -0.126 OA
ATOM     13  O   UNL     1     -36.064  22.065   6.581  0.00  0.00    -0.126 OA
ATOM     14  N   UNL     1     -35.595  22.342   5.446  0.00  0.00    +0.059 N 
ENDBRANCH  10  14
ENDBRANCH   1   6
BRANCH   1  15
ATOM     15  C   UNL     1     -34.462  28.303   2.682  0.00  0.00    +0.100 C 
BRANCH  15  16
ATOM     16  C   UNL     1     -35.214  28.232   1.360  0.00  0.00    +0.090 C 
BRANCH  16  17
ATOM     17  S   UNL     1     -34.515  26.982   0.238  0.00  0.00    -0.074 S 
BRANCH  17  18
ATOM     18  S   UNL     1     -36.213  26.029  -0.420  0.00  0.00    -0.036 S 
BRANCH  18  20
ATOM     19  N   UNL     1     -37.014  23.519   0.051  0.00  0.00    -0.237 NA
ATOM     20  C   UNL     1     -36.001  24.391   0.253  0.00  0.00    +0.116 C 
ATOM     21  C   UNL     1     -34.836  24.081   0.936  0.00  0.00    +0.026 C 
ATOM     22  C   UNL     1     -34.703  22.794   1.446  0.00  0.00    +0.004 C 
ATOM     23  C   UNL     1     -35.724  21.869   1.259  0.00  0.00    +0.021 C 
ATOM     24  C   UNL     1     -36.850  22.278   0.561  0.00  0.00    +0.099 C 
ENDBRANCH  18  20
ENDBRANCH  17  18
ENDBRANCH  16  17
ENDBRANCH  15  16
ENDBRANCH   1  15
TORSDOF 7
ENDMDL
MODEL 4
REMARK VINA RESULT:      -5.6      4.520      6.685
REMARK  Name = 194055
REMARK  7 active torsions:
REMARK  status: ('A' for Active; 'I' for Inactive)
REMARK    1  A    between atoms: N_1  and  C_6
REMARK    2  A    between atoms: N_1  and  C_15
REMARK    3  A    between atoms: C_10  and  N_14
REMARK    4  A    between atoms: C_15  and  C_16
REMARK    5  A    between atoms: C_16  and  S_17
REMARK    6  A    between atoms: S_17  and  S_18
REMARK    7  A    between atoms: S_18  and  C_20
REMARK                            x       y       z     vdW  Elec       q    Type
REMARK                         _______ _______ _______ _____ _____    ______ ____
ROOT
ATOM      1  N   UNL     1     -35.487  20.859   1.952  0.00  0.00    -0.331 N 
ATOM      2  H   UNL     1     -34.710  20.311   1.697  0.00  0.00    +0.147 HD
ENDROOT
BRANCH   1   6
ATOM      3  O   UNL     1     -35.374  21.650   6.246  0.00  0.00    -0.241 OA
ATOM      4  N   UNL     1     -35.476  21.070   4.993  0.00  0.00    -0.047 NA
ATOM      5  N   UNL     1     -35.107  23.005   6.167  0.00  0.00    -0.047 NA
ATOM      6  C   UNL     1     -35.266  22.019   2.708  0.00  0.00    +0.068 C 
ATOM      7  C   UNL     1     -35.272  22.060   4.115  0.00  0.00    +0.158 A 
ATOM      8  C   UNL     1     -35.037  23.289   4.861  0.00  0.00    +0.167 A 
ATOM      9  C   UNL     1     -35.016  23.260   2.093  0.00  0.00    +0.018 C 
ATOM     10  C   UNL     1     -34.789  24.519   4.225  0.00  0.00    +0.165 C 
ATOM     11  C   UNL     1     -34.787  24.457   2.819  0.00  0.00    +0.027 C 
BRANCH  10  14
ATOM     12  O   UNL     1     -33.392  25.986   5.327  0.00  0.00    -0.126 OA
ATOM     13  O   UNL     1     -35.531  26.466   5.215  0.00  0.00    -0.126 OA
ATOM     14  N   UNL     1     -34.561  25.708   4.953  0.00  0.00    +0.059 N 
ENDBRANCH  10  14
ENDBRANCH   1   6
BRANCH   1  15
ATOM     15  C   UNL     1     -36.790  20.431   1.533  0.00  0.00    +0.100 C 
BRANCH  15  16
ATOM     16  C   UNL     1     -37.157  20.917   0.138  0.00  0.00    +0.090 C 
BRANCH  16  17
ATOM     17  S   UNL     1     -38.929  21.303  -0.011  0.00  0.00    -0.074 S 
BRANCH  17  18
ATOM     18  S   UNL     1     -39.408  21.777   1.930  0.00  0.00    -0.036 S 
BRANCH  18  20
ATOM     19  N   UNL     1     -38.667  23.974   3.267  0.00  0.00    -0.237 NA
ATOM     20  C   UNL     1     -38.900  23.483   2.029  0.00  0.00    +0.116 C 
ATOM     21  C   UNL     1     -38.765  24.222   0.865  0.00  0.00    +0.026 C 
ATOM     22  C   UNL     1     -38.365  25.550   0.979  0.00  0.00    +0.004 C 
ATOM     23  C   UNL     1     -38.117  26.090   2.235  0.00  0.00    +0.021 C 
ATOM     24  C   UNL     1     -38.281  25.267   3.339  0.00  0.00    +0.099 C 
ENDBRANCH  18  20
ENDBRANCH  17  18
ENDBRANCH  16  17
ENDBRANCH  15  16
ENDBRANCH   1  15
TORSDOF 7
ENDMDL
MODEL 5
REMARK VINA RESULT:      -5.5      4.771      7.271
REMARK  Name = 194055
REMARK  7 active torsions:
REMARK  status: ('A' for Active; 'I' for Inactive)
REMARK    1  A    between atoms: N_1  and  C_6
REMARK    2  A    between atoms: N_1  and  C_15
REMARK    3  A    between atoms: C_10  and  N_14
REMARK    4  A    between atoms: C_15  and  C_16
REMARK    5  A    between atoms: C_16  and  S_17
REMARK    6  A    between atoms: S_17  and  S_18
REMARK    7  A    between atoms: S_18  and  C_20
REMARK                            x       y       z     vdW  Elec       q    Type
REMARK                         _______ _______ _______ _____ _____    ______ ____
ROOT
ATOM      1  N   UNL     1     -37.604  21.815   2.735  0.00  0.00    -0.331 N 
ATOM      2  H   UNL     1     -38.539  21.785   3.040  0.00  0.00    +0.147 HD
ENDROOT
BRANCH   1   6
ATOM      3  O   UNL     1     -37.508  26.168   2.388  0.00  0.00    -0.241 OA
ATOM      4  N   UNL     1     -37.819  24.822   2.287  0.00  0.00    -0.047 NA
ATOM      5  N   UNL     1     -36.399  26.381   3.188  0.00  0.00    -0.047 NA
ATOM      6  C   UNL     1     -36.760  22.800   3.265  0.00  0.00    +0.068 C 
ATOM      7  C   UNL     1     -36.906  24.179   3.026  0.00  0.00    +0.158 A 
ATOM      8  C   UNL     1     -36.004  25.170   3.598  0.00  0.00    +0.167 A 
ATOM      9  C   UNL     1     -35.676  22.468   4.099  0.00  0.00    +0.018 C 
ATOM     10  C   UNL     1     -34.926  24.815   4.429  0.00  0.00    +0.165 C 
ATOM     11  C   UNL     1     -34.798  23.433   4.657  0.00  0.00    +0.027 C 
BRANCH  10  14
ATOM     12  O   UNL     1     -32.979  26.051   4.391  0.00  0.00    -0.126 OA
ATOM     13  O   UNL     1     -34.374  26.351   6.059  0.00  0.00    -0.126 OA
ATOM     14  N   UNL     1     -34.056  25.781   4.983  0.00  0.00    +0.059 N 
ENDBRANCH  10  14
ENDBRANCH   1   6
BRANCH   1  15
ATOM     15  C   UNL     1     -37.172  20.848   1.767  0.00  0.00    +0.100 C 
BRANCH  15  16
ATOM     16  C   UNL     1     -37.147  21.395   0.347  0.00  0.00    +0.090 C 
BRANCH  16  17
ATOM     17  S   UNL     1     -35.750  20.741  -0.617  0.00  0.00    -0.074 S 
BRANCH  17  18
ATOM     18  S   UNL     1     -34.153  21.620   0.331  0.00  0.00    -0.036 S 
BRANCH  18  20
ATOM     19  N   UNL     1     -31.817  20.348   0.029  0.00  0.00    -0.237 NA
ATOM     20  C   UNL     1     -33.054  20.234   0.563  0.00  0.00    +0.116 C 
ATOM     21  C   UNL     1     -33.496  19.124   1.264  0.00  0.00    +0.026 C 
ATOM     22  C   UNL     1     -32.612  18.063   1.428  0.00  0.00    +0.004 C 
ATOM     23  C   UNL     1     -31.332  18.143   0.892  0.00  0.00    +0.021 C 
ATOM     24  C   UNL     1     -30.986  19.297   0.207  0.00  0.00    +0.099 C 
ENDBRANCH  18  20
ENDBRANCH  17  18
ENDBRANCH  16  17
ENDBRANCH  15  16
ENDBRANCH   1  15
TORSDOF 7
ENDMDL
MODEL 6
REMARK VINA RESULT:      -5.5      6.940      8.819
REMARK  Name = 194055
REMARK  7 active torsions:
REMARK  status: ('A' for Active; 'I' for Inactive)
REMARK    1  A    between atoms: N_1  and  C_6
REMARK    2  A    between atoms: N_1  and  C_15
REMARK    3  A    between atoms: C_10  and  N_14
REMARK    4  A    between atoms: C_15  and  C_16
REMARK    5  A    between atoms: C_16  and  S_17
REMARK    6  A    between atoms: S_17  and  S_18
REMARK    7  A    between atoms: S_18  and  C_20
REMARK                            x       y       z     vdW  Elec       q    Type
REMARK                         _______ _______ _______ _____ _____    ______ ____
ROOT
ATOM      1  N   UNL     1     -42.258  26.819   2.478  0.00  0.00    -0.331 N 
ATOM      2  H   UNL     1     -42.326  27.118   1.543  0.00  0.00    +0.147 HD
ENDROOT
BRANCH   1   6
ATOM      3  O   UNL     1     -42.751  29.851   5.583  0.00  0.00    -0.241 OA
ATOM      4  N   UNL     1     -42.279  29.042   4.563  0.00  0.00    -0.047 NA
ATOM      5  N   UNL     1     -44.031  29.496   5.970  0.00  0.00    -0.047 NA
ATOM      6  C   UNL     1     -43.305  27.130   3.356  0.00  0.00    +0.068 C 
ATOM      7  C   UNL     1     -43.261  28.172   4.302  0.00  0.00    +0.158 A 
ATOM      8  C   UNL     1     -44.375  28.460   5.196  0.00  0.00    +0.167 A 
ATOM      9  C   UNL     1     -44.508  26.400   3.352  0.00  0.00    +0.018 C 
ATOM     10  C   UNL     1     -45.569  27.717   5.175  0.00  0.00    +0.165 C 
ATOM     11  C   UNL     1     -45.593  26.682   4.223  0.00  0.00    +0.027 C 
BRANCH  10  14
ATOM     12  O   UNL     1     -46.646  27.520   7.205  0.00  0.00    -0.126 OA
ATOM     13  O   UNL     1     -47.587  28.735   5.638  0.00  0.00    -0.126 OA
ATOM     14  N   UNL     1     -46.647  28.003   6.043  0.00  0.00    +0.059 N 
ENDBRANCH  10  14
ENDBRANCH   1   6
BRANCH   1  15
ATOM     15  C   UNL     1     -41.091  26.086   2.876  0.00  0.00    +0.100 C 
BRANCH  15  16
ATOM     16  C   UNL     1     -40.798  24.895   1.973  0.00  0.00    +0.090 C 
BRANCH  16  17
ATOM     17  S   UNL     1     -39.327  23.970   2.511  0.00  0.00    -0.074 S 
BRANCH  17  18
ATOM     18  S   UNL     1     -38.089  25.492   3.121  0.00  0.00    -0.036 S 
BRANCH  18  20
ATOM     19  N   UNL     1     -36.792  23.273   3.867  0.00  0.00    -0.237 NA
ATOM     20  C   UNL     1     -36.853  24.610   4.057  0.00  0.00    +0.116 C 
ATOM     21  C   UNL     1     -36.024  25.310   4.920  0.00  0.00    +0.026 C 
ATOM     22  C   UNL     1     -35.071  24.590   5.633  0.00  0.00    +0.004 C 
ATOM     23  C   UNL     1     -34.977  23.214   5.464  0.00  0.00    +0.021 C 
ATOM     24  C   UNL     1     -35.854  22.608   4.578  0.00  0.00    +0.099 C 
ENDBRANCH  18  20
ENDBRANCH  17  18
ENDBRANCH  16  17
ENDBRANCH  15  16
ENDBRANCH   1  15
TORSDOF 7
ENDMDL
MODEL 7
REMARK VINA RESULT:      -5.5      6.027      8.128
REMARK  Name = 194055
REMARK  7 active torsions:
REMARK  status: ('A' for Active; 'I' for Inactive)
REMARK    1  A    between atoms: N_1  and  C_6
REMARK    2  A    between atoms: N_1  and  C_15
REMARK    3  A    between atoms: C_10  and  N_14
REMARK    4  A    between atoms: C_15  and  C_16
REMARK    5  A    between atoms: C_16  and  S_17
REMARK    6  A    between atoms: S_17  and  S_18
REMARK    7  A    between atoms: S_18  and  C_20
REMARK                            x       y       z     vdW  Elec       q    Type
REMARK                         _______ _______ _______ _____ _____    ______ ____
ROOT
ATOM      1  N   UNL     1     -37.082  20.624   0.220  0.00  0.00    -0.331 N 
ATOM      2  H   UNL     1     -36.426  20.647  -0.513  0.00  0.00    +0.147 HD
ENDROOT
BRANCH   1   6
ATOM      3  O   UNL     1     -38.436  24.083   2.518  0.00  0.00    -0.241 OA
ATOM      4  N   UNL     1     -38.249  23.101   1.560  0.00  0.00    -0.047 NA
ATOM      5  N   UNL     1     -37.593  23.912   3.602  0.00  0.00    -0.047 NA
ATOM      6  C   UNL     1     -36.712  21.153   1.464  0.00  0.00    +0.068 C 
ATOM      7  C   UNL     1     -37.286  22.303   2.037  0.00  0.00    +0.158 A 
ATOM      8  C   UNL     1     -36.869  22.819   3.335  0.00  0.00    +0.167 A 
ATOM      9  C   UNL     1     -35.709  20.553   2.248  0.00  0.00    +0.018 C 
ATOM     10  C   UNL     1     -35.864  22.202   4.102  0.00  0.00    +0.165 C 
ATOM     11  C   UNL     1     -35.304  21.055   3.512  0.00  0.00    +0.027 C 
BRANCH  10  14
ATOM     12  O   UNL     1     -34.651  23.664   5.411  0.00  0.00    -0.126 OA
ATOM     13  O   UNL     1     -35.933  22.186   6.408  0.00  0.00    -0.126 OA
ATOM     14  N   UNL     1     -35.466  22.706   5.361  0.00  0.00    +0.059 N 
ENDBRANCH  10  14
ENDBRANCH   1   6
BRANCH   1  15
ATOM     15  C   UNL     1     -38.371  20.049  -0.037  0.00  0.00    +0.100 C 
BRANCH  15  16
ATOM     16  C   UNL     1     -38.297  18.735  -0.802  0.00  0.00    +0.090 C 
BRANCH  16  17
ATOM     17  S   UNL     1     -36.808  18.630  -1.842  0.00  0.00    -0.074 S 
BRANCH  17  18
ATOM     18  S   UNL     1     -35.667  17.287  -0.786  0.00  0.00    -0.036 S 
BRANCH  18  20
ATOM     19  N   UNL     1     -34.161  19.498  -0.873  0.00  0.00    -0.237 NA
ATOM     20  C   UNL     1     -34.296  18.300  -0.262  0.00  0.00    +0.116 C 
ATOM     21  C   UNL     1     -33.444  17.834   0.728  0.00  0.00    +0.026 C 
ATOM     22  C   UNL     1     -32.386  18.651   1.113  0.00  0.00    +0.004 C 
ATOM     23  C   UNL     1     -32.216  19.891   0.507  0.00  0.00    +0.021 C 
ATOM     24  C   UNL     1     -33.122  20.264  -0.472  0.00  0.00    +0.099 C 
ENDBRANCH  18  20
ENDBRANCH  17  18
ENDBRANCH  16  17
ENDBRANCH  15  16
ENDBRANCH   1  15
TORSDOF 7
ENDMDL
MODEL 8
REMARK VINA RESULT:      -5.5      3.344      4.606
REMARK  Name = 194055
REMARK  7 active torsions:
REMARK  status: ('A' for Active; 'I' for Inactive)
REMARK    1  A    between atoms: N_1  and  C_6
REMARK    2  A    between atoms: N_1  and  C_15
REMARK    3  A    between atoms: C_10  and  N_14
REMARK    4  A    between atoms: C_15  and  C_16
REMARK    5  A    between atoms: C_16  and  S_17
REMARK    6  A    between atoms: S_17  and  S_18
REMARK    7  A    between atoms: S_18  and  C_20
REMARK                            x       y       z     vdW  Elec       q    Type
REMARK                         _______ _______ _______ _____ _____    ______ ____
ROOT
ATOM      1  N   UNL     1     -35.184  27.750   3.634  0.00  0.00    -0.331 N 
ATOM      2  H   UNL     1     -35.999  28.295   3.540  0.00  0.00    +0.147 HD
ENDROOT
BRANCH   1   6
ATOM      3  O   UNL     1     -38.214  24.687   2.916  0.00  0.00    -0.241 OA
ATOM      4  N   UNL     1     -37.466  25.853   2.942  0.00  0.00    -0.047 NA
ATOM      5  N   UNL     1     -37.619  23.679   3.654  0.00  0.00    -0.047 NA
ATOM      6  C   UNL     1     -35.316  26.418   4.047  0.00  0.00    +0.068 C 
ATOM      7  C   UNL     1     -36.394  25.584   3.696  0.00  0.00    +0.158 A 
ATOM      8  C   UNL     1     -36.491  24.202   4.149  0.00  0.00    +0.167 A 
ATOM      9  C   UNL     1     -34.350  25.804   4.866  0.00  0.00    +0.018 C 
ATOM     10  C   UNL     1     -35.513  23.608   4.968  0.00  0.00    +0.165 C 
ATOM     11  C   UNL     1     -34.445  24.458   5.307  0.00  0.00    +0.027 C 
BRANCH  10  14
ATOM     12  O   UNL     1     -36.008  22.027   6.572  0.00  0.00    -0.126 OA
ATOM     13  O   UNL     1     -35.301  21.340   4.611  0.00  0.00    -0.126 OA
ATOM     14  N   UNL     1     -35.612  22.267   5.402  0.00  0.00    +0.059 N 
ENDBRANCH  10  14
ENDBRANCH   1   6
BRANCH   1  15
ATOM     15  C   UNL     1     -33.919  28.361   3.342  0.00  0.00    +0.100 C 
BRANCH  15  16
ATOM     16  C   UNL     1     -34.000  29.399   2.231  0.00  0.00    +0.090 C 
BRANCH  16  17
ATOM     17  S   UNL     1     -35.348  30.590   2.501  0.00  0.00    -0.074 S 
BRANCH  17  18
ATOM     18  S   UNL     1     -36.530  30.248   0.855  0.00  0.00    -0.036 S 
BRANCH  18  20
ATOM     19  N   UNL     1     -38.927  31.333   0.365  0.00  0.00    -0.237 NA
ATOM     20  C   UNL     1     -37.754  31.536   1.006  0.00  0.00    +0.116 C 
ATOM     21  C   UNL     1     -37.465  32.665   1.756  0.00  0.00    +0.026 C 
ATOM     22  C   UNL     1     -38.443  33.649   1.853  0.00  0.00    +0.004 C 
ATOM     23  C   UNL     1     -39.662  33.476   1.208  0.00  0.00    +0.021 C 
ATOM     24  C   UNL     1     -39.852  32.311   0.483  0.00  0.00    +0.099 C 
ENDBRANCH  18  20
ENDBRANCH  17  18
ENDBRANCH  16  17
ENDBRANCH  15  16
ENDBRANCH   1  15
TORSDOF 7
ENDMDL
MODEL 9
REMARK VINA RESULT:      -5.5      4.265      7.156
REMARK  Name = 194055
REMARK  7 active torsions:
REMARK  status: ('A' for Active; 'I' for Inactive)
REMARK    1  A    between atoms: N_1  and  C_6
REMARK    2  A    between atoms: N_1  and  C_15
REMARK    3  A    between atoms: C_10  and  N_14
REMARK    4  A    between atoms: C_15  and  C_16
REMARK    5  A    between atoms: C_16  and  S_17
REMARK    6  A    between atoms: S_17  and  S_18
REMARK    7  A    between atoms: S_18  and  C_20
REMARK                            x       y       z     vdW  Elec       q    Type
REMARK                         _______ _______ _______ _____ _____    ______ ____
ROOT
ATOM      1  N   UNL     1     -38.475  24.139   3.366  0.00  0.00    -0.331 N 
ATOM      2  H   UNL     1     -38.733  23.342   3.883  0.00  0.00    +0.147 HD
ENDROOT
BRANCH   1   6
ATOM      3  O   UNL     1     -35.103  23.017   5.907  0.00  0.00    -0.241 OA
ATOM      4  N   UNL     1     -36.306  23.070   5.222  0.00  0.00    -0.047 NA
ATOM      5  N   UNL     1     -34.309  24.118   5.637  0.00  0.00    -0.047 NA
ATOM      6  C   UNL     1     -37.243  24.745   3.647  0.00  0.00    +0.068 C 
ATOM      7  C   UNL     1     -36.275  24.206   4.515  0.00  0.00    +0.158 A 
ATOM      8  C   UNL     1     -35.006  24.872   4.778  0.00  0.00    +0.167 A 
ATOM      9  C   UNL     1     -36.879  25.973   3.063  0.00  0.00    +0.018 C 
ATOM     10  C   UNL     1     -34.662  26.099   4.183  0.00  0.00    +0.165 C 
ATOM     11  C   UNL     1     -35.642  26.621   3.319  0.00  0.00    +0.027 C 
BRANCH  10  14
ATOM     12  O   UNL     1     -33.300  27.428   5.485  0.00  0.00    -0.126 OA
ATOM     13  O   UNL     1     -32.484  26.608   3.620  0.00  0.00    -0.126 OA
ATOM     14  N   UNL     1     -33.429  26.739   4.441  0.00  0.00    +0.059 N 
ENDBRANCH  10  14
ENDBRANCH   1   6
BRANCH   1  15
ATOM     15  C   UNL     1     -39.379  24.623   2.363  0.00  0.00    +0.100 C 
BRANCH  15  16
ATOM     16  C   UNL     1     -40.183  23.513   1.700  0.00  0.00    +0.090 C 
BRANCH  16  17
ATOM     17  S   UNL     1     -39.411  21.881   1.917  0.00  0.00    -0.074 S 
BRANCH  17  18
ATOM     18  S   UNL     1     -38.274  21.737   0.211  0.00  0.00    -0.036 S 
BRANCH  18  20
ATOM     19  N   UNL     1     -36.099  20.197  -0.041  0.00  0.00    -0.237 NA
ATOM     20  C   UNL     1     -36.781  20.979   0.826  0.00  0.00    +0.116 C 
ATOM     21  C   UNL     1     -36.385  21.216   2.133  0.00  0.00    +0.026 C 
ATOM     22  C   UNL     1     -35.215  20.610   2.578  0.00  0.00    +0.004 C 
ATOM     23  C   UNL     1     -34.487  19.799   1.716  0.00  0.00    +0.021 C 
ATOM     24  C   UNL     1     -34.968  19.625   0.428  0.00  0.00    +0.099 C 
ENDBRANCH  18  20
ENDBRANCH  17  18
ENDBRANCH  16  17
ENDBRANCH  15  16
ENDBRANCH   1  15
TORSDOF 7
ENDMDL
