MODEL 1
REMARK VINA RESULT:      -5.5      0.000      0.000
REMARK  Name = 191273
REMARK  3 active torsions:
REMARK  status: ('A' for Active; 'I' for Inactive)
REMARK    1  A    between atoms: C_1  and  C_15
REMARK    2  A    between atoms: C_2  and  C_6
REMARK    3  A    between atoms: C_14  and  N_20
REMARK                            x       y       z     vdW  Elec       q    Type
REMARK                         _______ _______ _______ _____ _____    ______ ____
ROOT
ATOM      1  C   UNL     1     -34.070  25.256   4.830  0.00  0.00    -0.023 C 
ATOM      2  C   UNL     1     -33.540  26.334   4.927  0.00  0.00    -0.024 C 
ENDROOT
BRANCH   2   6
ATOM      3  N   UNL     1     -32.464  27.913   6.279  0.00  0.00    -0.329 NA
ATOM      4  N   UNL     1     -31.689  30.022   5.408  0.00  0.00    -0.170 NA
ATOM      5  N   UNL     1     -31.389  29.468   7.668  0.00  0.00    -0.293 N 
ATOM      6  C   UNL     1     -32.913  27.610   5.042  0.00  0.00    +0.187 C 
ATOM      7  C   UNL     1     -32.788  28.449   3.954  0.00  0.00    +0.063 C 
ATOM      8  C   UNL     1     -31.872  29.117   6.388  0.00  0.00    +0.142 C 
ATOM      9  C   UNL     1     -32.162  29.654   4.198  0.00  0.00    +0.115 C 
ATOM     10  H   UNL     1     -31.495  28.844   8.422  0.00  0.00    +0.155 HD
ATOM     11  H   UNL     1     -30.947  30.337   7.805  0.00  0.00    +0.155 HD
ENDBRANCH   2   6
BRANCH   1  15
ATOM     12  N   UNL     1     -35.003  23.359   3.540  0.00  0.00    -0.244 N 
ATOM     13  N   UNL     1     -35.048  23.263   5.758  0.00  0.00    -0.218 NA
ATOM     14  C   UNL     1     -35.589  22.165   3.852  0.00  0.00    +0.218 C 
ATOM     15  C   UNL     1     -34.699  23.975   4.716  0.00  0.00    +0.181 C 
ATOM     16  C   UNL     1     -34.754  23.872   2.210  0.00  0.00    +0.121 C 
ATOM     17  C   UNL     1     -35.606  22.128   5.225  0.00  0.00    +0.141 C 
BRANCH  14  20
ATOM     18  O   UNL     1     -35.357  20.217   2.640  0.00  0.00    -0.125 OA
ATOM     19  O   UNL     1     -37.135  21.457   2.292  0.00  0.00    -0.125 OA
ATOM     20  N   UNL     1     -36.042  21.249   2.895  0.00  0.00    +0.074 N 
ENDBRANCH  14  20
ENDBRANCH   1  15
TORSDOF 3
ENDMDL
MODEL 2
REMARK VINA RESULT:      -5.3      4.261      7.594
REMARK  Name = 191273
REMARK  3 active torsions:
REMARK  status: ('A' for Active; 'I' for Inactive)
REMARK    1  A    between atoms: C_1  and  C_15
REMARK    2  A    between atoms: C_2  and  C_6
REMARK    3  A    between atoms: C_14  and  N_20
REMARK                            x       y       z     vdW  Elec       q    Type
REMARK                         _______ _______ _______ _____ _____    ______ ____
ROOT
ATOM      1  C   UNL     1     -33.280  26.908   5.306  0.00  0.00    -0.023 C 
ATOM      2  C   UNL     1     -33.993  25.979   5.017  0.00  0.00    -0.024 C 
ENDROOT
BRANCH   2   6
ATOM      3  N   UNL     1     -34.970  23.947   5.643  0.00  0.00    -0.329 NA
ATOM      4  N   UNL     1     -36.422  22.720   4.162  0.00  0.00    -0.170 NA
ATOM      5  N   UNL     1     -35.931  21.913   6.311  0.00  0.00    -0.293 N 
ATOM      6  C   UNL     1     -34.835  24.880   4.677  0.00  0.00    +0.187 C 
ATOM      7  C   UNL     1     -35.453  24.804   3.446  0.00  0.00    +0.063 C 
ATOM      8  C   UNL     1     -35.766  22.909   5.322  0.00  0.00    +0.142 C 
ATOM      9  C   UNL     1     -36.242  23.690   3.242  0.00  0.00    +0.115 C 
ATOM     10  H   UNL     1     -35.475  22.000   7.178  0.00  0.00    +0.155 HD
ATOM     11  H   UNL     1     -36.503  21.132   6.130  0.00  0.00    +0.155 HD
ENDBRANCH   2   6
BRANCH   1  15
ATOM     12  N   UNL     1     -31.753  28.777   4.753  0.00  0.00    -0.244 N 
ATOM     13  N   UNL     1     -32.235  28.390   6.886  0.00  0.00    -0.218 NA
ATOM     14  C   UNL     1     -31.067  29.718   5.469  0.00  0.00    +0.218 C 
ATOM     15  C   UNL     1     -32.434  28.011   5.649  0.00  0.00    +0.181 C 
ATOM     16  C   UNL     1     -31.754  28.625   3.314  0.00  0.00    +0.121 C 
ATOM     17  C   UNL     1     -31.380  29.459   6.782  0.00  0.00    +0.141 C 
BRANCH  14  20
ATOM     18  O   UNL     1     -29.024  30.438   4.677  0.00  0.00    -0.125 OA
ATOM     19  O   UNL     1     -30.730  31.816   4.573  0.00  0.00    -0.125 OA
ATOM     20  N   UNL     1     -30.246  30.690   4.887  0.00  0.00    +0.074 N 
ENDBRANCH  14  20
ENDBRANCH   1  15
TORSDOF 3
ENDMDL
MODEL 3
REMARK VINA RESULT:      -5.3      3.832      8.450
REMARK  Name = 191273
REMARK  3 active torsions:
REMARK  status: ('A' for Active; 'I' for Inactive)
REMARK    1  A    between atoms: C_1  and  C_15
REMARK    2  A    between atoms: C_2  and  C_6
REMARK    3  A    between atoms: C_14  and  N_20
REMARK                            x       y       z     vdW  Elec       q    Type
REMARK                         _______ _______ _______ _____ _____    ______ ____
ROOT
ATOM      1  C   UNL     1     -35.462  21.745   3.046  0.00  0.00    -0.023 C 
ATOM      2  C   UNL     1     -35.526  20.855   2.236  0.00  0.00    -0.024 C 
ENDROOT
BRANCH   2   6
ATOM      3  N   UNL     1     -36.851  19.479   0.883  0.00  0.00    -0.329 NA
ATOM      4  N   UNL     1     -35.892  17.802  -0.557  0.00  0.00    -0.170 NA
ATOM      5  N   UNL     1     -38.215  18.121  -0.458  0.00  0.00    -0.293 N 
ATOM      6  C   UNL     1     -35.601  19.802   1.278  0.00  0.00    +0.187 C 
ATOM      7  C   UNL     1     -34.463  19.179   0.806  0.00  0.00    +0.063 C 
ATOM      8  C   UNL     1     -36.921  18.485  -0.022  0.00  0.00    +0.142 C 
ATOM      9  C   UNL     1     -34.672  18.176  -0.119  0.00  0.00    +0.115 C 
ATOM     10  H   UNL     1     -39.004  18.587  -0.101  0.00  0.00    +0.155 HD
ATOM     11  H   UNL     1     -38.325  17.400  -1.120  0.00  0.00    +0.155 HD
ENDBRANCH   2   6
BRANCH   1  15
ATOM     12  N   UNL     1     -34.837  24.026   3.779  0.00  0.00    -0.244 N 
ATOM     13  N   UNL     1     -35.848  22.682   5.228  0.00  0.00    -0.218 NA
ATOM     14  C   UNL     1     -34.957  24.745   4.935  0.00  0.00    +0.218 C 
ATOM     15  C   UNL     1     -35.386  22.802   4.009  0.00  0.00    +0.181 C 
ATOM     16  C   UNL     1     -34.238  24.483   2.543  0.00  0.00    +0.121 C 
ATOM     17  C   UNL     1     -35.584  23.894   5.814  0.00  0.00    +0.141 C 
BRANCH  14  20
ATOM     18  O   UNL     1     -35.256  27.025   4.773  0.00  0.00    -0.125 OA
ATOM     19  O   UNL     1     -33.336  26.276   5.529  0.00  0.00    -0.125 OA
ATOM     20  N   UNL     1     -34.501  26.059   5.084  0.00  0.00    +0.074 N 
ENDBRANCH  14  20
ENDBRANCH   1  15
TORSDOF 3
ENDMDL
MODEL 4
REMARK VINA RESULT:      -5.1      1.976      2.373
REMARK  Name = 191273
REMARK  3 active torsions:
REMARK  status: ('A' for Active; 'I' for Inactive)
REMARK    1  A    between atoms: C_1  and  C_15
REMARK    2  A    between atoms: C_2  and  C_6
REMARK    3  A    between atoms: C_14  and  N_20
REMARK                            x       y       z     vdW  Elec       q    Type
REMARK                         _______ _______ _______ _____ _____    ______ ____
ROOT
ATOM      1  C   UNL     1     -33.774  26.449   5.133  0.00  0.00    -0.023 C 
ATOM      2  C   UNL     1     -32.927  27.287   5.316  0.00  0.00    -0.024 C 
ENDROOT
BRANCH   2   6
ATOM      3  N   UNL     1     -30.871  27.870   6.271  0.00  0.00    -0.329 NA
ATOM      4  N   UNL     1     -29.929  30.074   6.026  0.00  0.00    -0.170 NA
ATOM      5  N   UNL     1     -28.807  28.412   7.245  0.00  0.00    -0.293 N 
ATOM      6  C   UNL     1     -31.925  28.278   5.533  0.00  0.00    +0.187 C 
ATOM      7  C   UNL     1     -32.050  29.551   5.013  0.00  0.00    +0.063 C 
ATOM      8  C   UNL     1     -29.925  28.806   6.476  0.00  0.00    +0.142 C 
ATOM      9  C   UNL     1     -31.011  30.415   5.295  0.00  0.00    +0.115 C 
ATOM     10  H   UNL     1     -28.751  27.497   7.599  0.00  0.00    +0.155 HD
ATOM     11  H   UNL     1     -28.084  29.057   7.425  0.00  0.00    +0.155 HD
ENDBRANCH   2   6
BRANCH   1  15
ATOM     12  N   UNL     1     -35.757  25.527   3.973  0.00  0.00    -0.244 N 
ATOM     13  N   UNL     1     -34.850  24.355   5.626  0.00  0.00    -0.218 NA
ATOM     14  C   UNL     1     -36.511  24.393   4.084  0.00  0.00    +0.218 C 
ATOM     15  C   UNL     1     -34.780  25.453   4.917  0.00  0.00    +0.181 C 
ATOM     16  C   UNL     1     -35.963  26.605   3.029  0.00  0.00    +0.121 C 
ATOM     17  C   UNL     1     -35.932  23.685   5.111  0.00  0.00    +0.141 C 
BRANCH  14  20
ATOM     18  O   UNL     1     -38.773  24.466   3.646  0.00  0.00    -0.125 OA
ATOM     19  O   UNL     1     -37.456  23.506   2.176  0.00  0.00    -0.125 OA
ATOM     20  N   UNL     1     -37.617  24.112   3.275  0.00  0.00    +0.074 N 
ENDBRANCH  14  20
ENDBRANCH   1  15
TORSDOF 3
ENDMDL
MODEL 5
REMARK VINA RESULT:      -5.1      5.349      7.537
REMARK  Name = 191273
REMARK  3 active torsions:
REMARK  status: ('A' for Active; 'I' for Inactive)
REMARK    1  A    between atoms: C_1  and  C_15
REMARK    2  A    between atoms: C_2  and  C_6
REMARK    3  A    between atoms: C_14  and  N_20
REMARK                            x       y       z     vdW  Elec       q    Type
REMARK                         _______ _______ _______ _____ _____    ______ ____
ROOT
ATOM      1  C   UNL     1     -34.632  19.445   1.311  0.00  0.00    -0.023 C 
ATOM      2  C   UNL     1     -34.990  20.358   2.014  0.00  0.00    -0.024 C 
ENDROOT
BRANCH   2   6
ATOM      3  N   UNL     1     -35.417  21.168   4.167  0.00  0.00    -0.329 NA
ATOM      4  N   UNL     1     -36.201  23.414   4.553  0.00  0.00    -0.170 NA
ATOM      5  N   UNL     1     -35.833  21.940   6.343  0.00  0.00    -0.293 N 
ATOM      6  C   UNL     1     -35.413  21.436   2.844  0.00  0.00    +0.187 C 
ATOM      7  C   UNL     1     -35.783  22.653   2.308  0.00  0.00    +0.063 C 
ATOM      8  C   UNL     1     -35.817  22.186   4.952  0.00  0.00    +0.142 C 
ATOM      9  C   UNL     1     -36.172  23.614   3.219  0.00  0.00    +0.115 C 
ATOM     10  H   UNL     1     -35.562  21.061   6.690  0.00  0.00    +0.155 HD
ATOM     11  H   UNL     1     -36.117  22.651   6.964  0.00  0.00    +0.155 HD
ENDBRANCH   2   6
BRANCH   1  15
ATOM     12  N   UNL     1     -32.991  17.753   0.553  0.00  0.00    -0.244 N 
ATOM     13  N   UNL     1     -34.969  17.845  -0.453  0.00  0.00    -0.218 NA
ATOM     14  C   UNL     1     -32.972  16.774  -0.401  0.00  0.00    +0.218 C 
ATOM     15  C   UNL     1     -34.207  18.361   0.479  0.00  0.00    +0.181 C 
ATOM     16  C   UNL     1     -31.919  18.081   1.468  0.00  0.00    +0.121 C 
ATOM     17  C   UNL     1     -34.203  16.850  -1.008  0.00  0.00    +0.141 C 
BRANCH  14  20
ATOM     18  O   UNL     1     -31.169  16.088  -1.663  0.00  0.00    -0.125 OA
ATOM     19  O   UNL     1     -31.603  15.019   0.205  0.00  0.00    -0.125 OA
ATOM     20  N   UNL     1     -31.878  15.932  -0.627  0.00  0.00    +0.074 N 
ENDBRANCH  14  20
ENDBRANCH   1  15
TORSDOF 3
ENDMDL
MODEL 6
REMARK VINA RESULT:      -5.1      4.661      8.591
REMARK  Name = 191273
REMARK  3 active torsions:
REMARK  status: ('A' for Active; 'I' for Inactive)
REMARK    1  A    between atoms: C_1  and  C_15
REMARK    2  A    between atoms: C_2  and  C_6
REMARK    3  A    between atoms: C_14  and  N_20
REMARK                            x       y       z     vdW  Elec       q    Type
REMARK                         _______ _______ _______ _____ _____    ______ ____
ROOT
ATOM      1  C   UNL     1     -34.841  20.453   2.583  0.00  0.00    -0.023 C 
ATOM      2  C   UNL     1     -34.548  19.692   1.695  0.00  0.00    -0.024 C 
ENDROOT
BRANCH   2   6
ATOM      3  N   UNL     1     -33.284  17.858   0.975  0.00  0.00    -0.329 NA
ATOM      4  N   UNL     1     -33.446  17.000  -1.272  0.00  0.00    -0.170 NA
ATOM      5  N   UNL     1     -31.999  16.017   0.293  0.00  0.00    -0.293 N 
ATOM      6  C   UNL     1     -34.201  18.792   0.644  0.00  0.00    +0.187 C 
ATOM      7  C   UNL     1     -34.779  18.891  -0.605  0.00  0.00    +0.063 C 
ATOM      8  C   UNL     1     -32.957  17.008  -0.017  0.00  0.00    +0.142 C 
ATOM      9  C   UNL     1     -34.358  17.959  -1.533  0.00  0.00    +0.115 C 
ATOM     10  H   UNL     1     -31.609  15.975   1.195  0.00  0.00    +0.155 HD
ATOM     11  H   UNL     1     -31.724  15.368  -0.394  0.00  0.00    +0.155 HD
ENDBRANCH   2   6
BRANCH   1  15
ATOM     12  N   UNL     1     -35.588  22.646   3.456  0.00  0.00    -0.244 N 
ATOM     13  N   UNL     1     -35.158  21.015   4.900  0.00  0.00    -0.218 NA
ATOM     14  C   UNL     1     -35.827  23.171   4.695  0.00  0.00    +0.218 C 
ATOM     15  C   UNL     1     -35.190  21.357   3.636  0.00  0.00    +0.181 C 
ATOM     16  C   UNL     1     -35.728  23.335   2.190  0.00  0.00    +0.121 C 
ATOM     17  C   UNL     1     -35.556  22.146   5.569  0.00  0.00    +0.141 C 
BRANCH  14  20
ATOM     18  O   UNL     1     -35.480  25.313   5.473  0.00  0.00    -0.125 OA
ATOM     19  O   UNL     1     -37.413  24.840   4.546  0.00  0.00    -0.125 OA
ATOM     20  N   UNL     1     -36.254  24.485   4.912  0.00  0.00    +0.074 N 
ENDBRANCH  14  20
ENDBRANCH   1  15
TORSDOF 3
ENDMDL
MODEL 7
REMARK VINA RESULT:      -5.1      4.497      6.347
REMARK  Name = 191273
REMARK  3 active torsions:
REMARK  status: ('A' for Active; 'I' for Inactive)
REMARK    1  A    between atoms: C_1  and  C_15
REMARK    2  A    between atoms: C_2  and  C_6
REMARK    3  A    between atoms: C_14  and  N_20
REMARK                            x       y       z     vdW  Elec       q    Type
REMARK                         _______ _______ _______ _____ _____    ______ ____
ROOT
ATOM      1  C   UNL     1     -35.089  20.685   2.234  0.00  0.00    -0.023 C 
ATOM      2  C   UNL     1     -35.427  21.628   2.904  0.00  0.00    -0.024 C 
ENDROOT
BRANCH   2   6
ATOM      3  N   UNL     1     -37.025  23.272   3.373  0.00  0.00    -0.329 NA
ATOM      4  N   UNL     1     -36.718  24.883   5.140  0.00  0.00    -0.170 NA
ATOM      5  N   UNL     1     -38.653  24.904   3.811  0.00  0.00    -0.293 N 
ATOM      6  C   UNL     1     -35.827  22.743   3.698  0.00  0.00    +0.187 C 
ATOM      7  C   UNL     1     -35.028  23.221   4.717  0.00  0.00    +0.063 C 
ATOM      8  C   UNL     1     -37.403  24.325   4.123  0.00  0.00    +0.142 C 
ATOM      9  C   UNL     1     -35.530  24.304   5.410  0.00  0.00    +0.115 C 
ATOM     10  H   UNL     1     -39.196  24.536   3.078  0.00  0.00    +0.155 HD
ATOM     11  H   UNL     1     -38.979  25.676   4.328  0.00  0.00    +0.155 HD
ENDBRANCH   2   6
BRANCH   1  15
ATOM     12  N   UNL     1     -35.448  18.984   0.471  0.00  0.00    -0.244 N 
ATOM     13  N   UNL     1     -33.519  18.987   1.571  0.00  0.00    -0.218 NA
ATOM     14  C   UNL     1     -34.716  17.956  -0.054  0.00  0.00    +0.218 C 
ATOM     15  C   UNL     1     -34.686  19.565   1.437  0.00  0.00    +0.181 C 
ATOM     16  C   UNL     1     -36.783  19.377   0.074  0.00  0.00    +0.121 C 
ATOM     17  C   UNL     1     -33.530  17.978   0.640  0.00  0.00    +0.141 C 
BRANCH  14  20
ATOM     18  O   UNL     1     -34.961  17.430  -2.285  0.00  0.00    -0.125 OA
ATOM     19  O   UNL     1     -35.800  16.057  -0.791  0.00  0.00    -0.125 OA
ATOM     20  N   UNL     1     -35.175  17.120  -1.078  0.00  0.00    +0.074 N 
ENDBRANCH  14  20
ENDBRANCH   1  15
TORSDOF 3
ENDMDL
MODEL 8
REMARK VINA RESULT:      -5.1      4.591      6.369
REMARK  Name = 191273
REMARK  3 active torsions:
REMARK  status: ('A' for Active; 'I' for Inactive)
REMARK    1  A    between atoms: C_1  and  C_15
REMARK    2  A    between atoms: C_2  and  C_6
REMARK    3  A    between atoms: C_14  and  N_20
REMARK                            x       y       z     vdW  Elec       q    Type
REMARK                         _______ _______ _______ _____ _____    ______ ____
ROOT
ATOM      1  C   UNL     1     -35.881  20.712   1.967  0.00  0.00    -0.023 C 
ATOM      2  C   UNL     1     -35.935  21.600   2.781  0.00  0.00    -0.024 C 
ENDROOT
BRANCH   2   6
ATOM      3  N   UNL     1     -36.751  23.712   3.376  0.00  0.00    -0.329 NA
ATOM      4  N   UNL     1     -36.209  24.739   5.488  0.00  0.00    -0.170 NA
ATOM      5  N   UNL     1     -37.590  25.830   3.935  0.00  0.00    -0.293 N 
ATOM      6  C   UNL     1     -35.998  22.652   3.741  0.00  0.00    +0.187 C 
ATOM      7  C   UNL     1     -35.331  22.564   4.946  0.00  0.00    +0.063 C 
ATOM      8  C   UNL     1     -36.811  24.704   4.283  0.00  0.00    +0.142 C 
ATOM      9  C   UNL     1     -35.474  23.648   5.788  0.00  0.00    +0.115 C 
ATOM     10  H   UNL     1     -38.053  25.858   3.067  0.00  0.00    +0.155 HD
ATOM     11  H   UNL     1     -37.670  26.586   4.561  0.00  0.00    +0.155 HD
ENDBRANCH   2   6
BRANCH   1  15
ATOM     12  N   UNL     1     -34.721  18.887   0.761  0.00  0.00    -0.244 N 
ATOM     13  N   UNL     1     -36.834  19.330   0.244  0.00  0.00    -0.218 NA
ATOM     14  C   UNL     1     -35.060  18.001  -0.223  0.00  0.00    +0.218 C 
ATOM     15  C   UNL     1     -35.818  19.657   1.001  0.00  0.00    +0.181 C 
ATOM     16  C   UNL     1     -33.437  18.987   1.421  0.00  0.00    +0.121 C 
ATOM     17  C   UNL     1     -36.368  18.294  -0.526  0.00  0.00    +0.141 C 
BRANCH  14  20
ATOM     18  O   UNL     1     -33.441  17.335  -1.723  0.00  0.00    -0.125 OA
ATOM     19  O   UNL     1     -34.133  15.889  -0.223  0.00  0.00    -0.125 OA
ATOM     20  N   UNL     1     -34.182  17.043  -0.741  0.00  0.00    +0.074 N 
ENDBRANCH  14  20
ENDBRANCH   1  15
TORSDOF 3
ENDMDL
MODEL 9
REMARK VINA RESULT:      -5.0     16.156     18.403
REMARK  Name = 191273
REMARK  3 active torsions:
REMARK  status: ('A' for Active; 'I' for Inactive)
REMARK    1  A    between atoms: C_1  and  C_15
REMARK    2  A    between atoms: C_2  and  C_6
REMARK    3  A    between atoms: C_14  and  N_20
REMARK                            x       y       z     vdW  Elec       q    Type
REMARK                         _______ _______ _______ _____ _____    ______ ____
ROOT
ATOM      1  C   UNL     1     -32.879  42.206   2.558  0.00  0.00    -0.023 C 
ATOM      2  C   UNL     1     -32.436  41.655   3.534  0.00  0.00    -0.024 C 
ENDROOT
BRANCH   2   6
ATOM      3  N   UNL     1     -32.391  41.457   5.866  0.00  0.00    -0.329 NA
ATOM      4  N   UNL     1     -30.992  39.844   6.982  0.00  0.00    -0.170 NA
ATOM      5  N   UNL     1     -32.376  41.291   8.206  0.00  0.00    -0.293 N 
ATOM      6  C   UNL     1     -31.911  41.004   4.689  0.00  0.00    +0.187 C 
ATOM      7  C   UNL     1     -30.983  39.988   4.579  0.00  0.00    +0.063 C 
ATOM      8  C   UNL     1     -31.895  40.842   6.956  0.00  0.00    +0.142 C 
ATOM      9  C   UNL     1     -30.555  39.440   5.771  0.00  0.00    +0.115 C 
ATOM     10  H   UNL     1     -33.038  42.018   8.246  0.00  0.00    +0.155 HD
ATOM     11  H   UNL     1     -32.048  40.876   9.037  0.00  0.00    +0.155 HD
ENDBRANCH   2   6
BRANCH   1  15
ATOM     12  N   UNL     1     -33.085  44.124   1.005  0.00  0.00    -0.244 N 
ATOM     13  N   UNL     1     -34.264  42.288   0.592  0.00  0.00    -0.218 NA
ATOM     14  C   UNL     1     -33.789  44.380  -0.137  0.00  0.00    +0.218 C 
ATOM     15  C   UNL     1     -33.405  42.861   1.398  0.00  0.00    +0.181 C 
ATOM     16  C   UNL     1     -32.171  45.027   1.671  0.00  0.00    +0.121 C 
ATOM     17  C   UNL     1     -34.509  43.233  -0.372  0.00  0.00    +0.141 C 
BRANCH  14  20
ATOM     18  O   UNL     1     -34.532  46.520  -0.567  0.00  0.00    -0.125 OA
ATOM     19  O   UNL     1     -32.843  45.747  -1.738  0.00  0.00    -0.125 OA
ATOM     20  N   UNL     1     -33.719  45.590  -0.838  0.00  0.00    +0.074 N 
ENDBRANCH  14  20
ENDBRANCH   1  15
TORSDOF 3
ENDMDL
