MODEL 1
REMARK VINA RESULT:      -5.7      0.000      0.000
REMARK  Name = 5491958
REMARK  14 active torsions:
REMARK  status: ('A' for Active; 'I' for Inactive)
REMARK    1  A    between atoms: N_2  and  CA_5
REMARK    2  A    between atoms: C_3  and  C_22
REMARK    3  A    between atoms: CA_5  and  C_9
REMARK    4  A    between atoms: N_8  and  CA_11
REMARK    5  A    between atoms: CA_11  and  C_13
REMARK    6  A    between atoms: CA_11  and  CB_16
REMARK    7  A    between atoms: C_13  and  O_14
REMARK    8  A    between atoms: CB_16  and  CG_17
REMARK    9  A    between atoms: CG_17  and  CD_19
REMARK   10  A    between atoms: CD_19  and  OE1_20
REMARK   11  A    between atoms: C_22  and  O_23
REMARK   12  A    between atoms: O_23  and  C_24
REMARK   13  A    between atoms: C_24  and  C_25
REMARK   14  A    between atoms: C_25  and  N_28
REMARK                            x       y       z     vdW  Elec       q    Type
REMARK                         _______ _______ _______ _____ _____    ______ ____
ROOT
ATOM      1  O   UNL     1     -37.042  25.841  -0.810  0.00  0.00    -0.272 OA
ATOM      2  N   UNL     1     -36.287  24.425   0.874  0.00  0.00    -0.296 N 
ATOM      3  C   ACE A   0     -36.132  25.277  -0.207  0.00  0.00    +0.253 C 
ATOM      4  H   UNL     1     -35.483  24.029   1.280  0.00  0.00    +0.150 HD
ENDROOT
BRANCH   2   5
ATOM      5  CA  UNL     1     -37.577  24.089   1.434  0.00  0.00    +0.149 C 
ATOM      6  CB  UNL     1     -38.183  22.879   0.740  0.00  0.00    +0.031 C 
BRANCH   5   9
ATOM      7  O   UNL     1     -38.194  24.186   3.776  0.00  0.00    -0.273 OA
ATOM      8  N   UNL     1     -36.191  23.173   3.188  0.00  0.00    -0.295 N 
ATOM      9  C   UNL     1     -37.388  23.824   2.923  0.00  0.00    +0.241 C 
ATOM     10  H   UNL     1     -35.612  22.923   2.433  0.00  0.00    +0.150 HD
BRANCH   8  11
ATOM     11  CA  UNL     1     -35.762  22.847   4.529  0.00  0.00    +0.172 C 
BRANCH  11  13
ATOM     12  OXT UNL     1     -35.434  20.625   3.588  0.00  0.00    -0.248 OA
ATOM     13  C   UNL     1     -35.465  21.362   4.565  0.00  0.00    +0.332 C 
BRANCH  13  14
ATOM     14  O   UNL     1     -35.192  20.931   5.823  0.00  0.00    -0.479 OA
ATOM     15  H   UNL     1     -35.077  20.016   5.991  0.00  0.00    +0.295 HD
ENDBRANCH  13  14
ENDBRANCH  11  13
BRANCH  11  16
ATOM     16  CB  UNL     1     -34.598  23.721   5.013  0.00  0.00    +0.043 C 
BRANCH  16  17
ATOM     17  CG  UNL     1     -34.973  25.134   5.479  0.00  0.00    +0.112 C 
BRANCH  17  19
ATOM     18  OE2 UNL     1     -34.160  27.344   4.856  0.00  0.00    -0.250 OA
ATOM     19  CD  UNL     1     -34.533  26.226   4.529  0.00  0.00    +0.314 C 
BRANCH  19  20
ATOM     20  OE1 UNL     1     -34.636  25.833   3.232  0.00  0.00    -0.480 OA
ATOM     21  HE1 UNL     1     -34.111  25.125   2.913  0.00  0.00    +0.295 HD
ENDBRANCH  19  20
ENDBRANCH  17  19
ENDBRANCH  16  17
ENDBRANCH  11  16
ENDBRANCH   8  11
ENDBRANCH   5   9
ENDBRANCH   2   5
BRANCH   3  22
ATOM     22  C   UNL     1     -34.675  25.448  -0.579  0.00  0.00    +0.227 C 
BRANCH  22  23
ATOM     23  O   UNL     1     -33.841  25.263   0.557  0.00  0.00    -0.343 OA
BRANCH  23  24
ATOM     24  C   UNL     1     -32.599  24.671   0.202  0.00  0.00    +0.165 C 
BRANCH  24  25
ATOM     25  C   UNL     1     -32.822  23.654  -0.902  0.00  0.00    +0.134 C 
BRANCH  25  28
ATOM     26  O   UNL     1     -30.474  21.842  -1.202  0.00  0.00    -0.269 OA
ATOM     27  O   UNL     1     -34.725  21.949   0.639  0.00  0.00    -0.269 OA
ATOM     28  N   UNL     1     -32.649  22.298  -0.421  0.00  0.00    -0.220 N 
ATOM     29  C   UNL     1     -31.751  20.269   0.030  0.00  0.00    +0.058 C 
ATOM     30  C   UNL     1     -33.023  20.302   0.581  0.00  0.00    +0.058 C 
ATOM     31  C   UNL     1     -31.505  21.555  -0.621  0.00  0.00    +0.255 C 
ATOM     32  C   UNL     1     -33.609  21.610   0.290  0.00  0.00    +0.255 C 
ATOM     33  C   UNL     1     -30.937  19.159   0.137  0.00  0.00    +0.005 C 
ATOM     34  C   UNL     1     -33.550  19.227   1.267  0.00  0.00    +0.005 C 
ATOM     35  C   UNL     1     -31.451  18.058   0.827  0.00  0.00    +0.000 C 
ATOM     36  C   UNL     1     -32.744  18.091   1.387  0.00  0.00    +0.000 C 
ENDBRANCH  25  28
ENDBRANCH  24  25
ENDBRANCH  23  24
ENDBRANCH  22  23
ENDBRANCH   3  22
TORSDOF 14
ENDMDL
MODEL 2
REMARK VINA RESULT:      -5.6      6.914      9.096
REMARK  Name = 5491958
REMARK  14 active torsions:
REMARK  status: ('A' for Active; 'I' for Inactive)
REMARK    1  A    between atoms: N_2  and  CA_5
REMARK    2  A    between atoms: C_3  and  C_22
REMARK    3  A    between atoms: CA_5  and  C_9
REMARK    4  A    between atoms: N_8  and  CA_11
REMARK    5  A    between atoms: CA_11  and  C_13
REMARK    6  A    between atoms: CA_11  and  CB_16
REMARK    7  A    between atoms: C_13  and  O_14
REMARK    8  A    between atoms: CB_16  and  CG_17
REMARK    9  A    between atoms: CG_17  and  CD_19
REMARK   10  A    between atoms: CD_19  and  OE1_20
REMARK   11  A    between atoms: C_22  and  O_23
REMARK   12  A    between atoms: O_23  and  C_24
REMARK   13  A    between atoms: C_24  and  C_25
REMARK   14  A    between atoms: C_25  and  N_28
REMARK                            x       y       z     vdW  Elec       q    Type
REMARK                         _______ _______ _______ _____ _____    ______ ____
ROOT
ATOM      1  O   UNL     1     -41.876  27.682   1.812  0.00  0.00    -0.272 OA
ATOM      2  N   UNL     1     -42.628  26.855   3.852  0.00  0.00    -0.296 N 
ATOM      3  C   ACE A   0     -41.786  26.897   2.753  0.00  0.00    +0.253 C 
ATOM      4  H   UNL     1     -42.459  26.179   4.547  0.00  0.00    +0.150 HD
ENDROOT
BRANCH   2   5
ATOM      5  CA  UNL     1     -43.745  27.756   4.025  0.00  0.00    +0.149 C 
ATOM      6  CB  UNL     1     -44.910  27.066   4.717  0.00  0.00    +0.031 C 
BRANCH   5   9
ATOM      7  O   UNL     1     -42.074  29.183   5.048  0.00  0.00    -0.273 OA
ATOM      8  N   UNL     1     -44.317  29.708   5.328  0.00  0.00    -0.295 N 
ATOM      9  C   UNL     1     -43.262  28.953   4.835  0.00  0.00    +0.241 C 
ATOM     10  H   UNL     1     -45.236  29.441   5.100  0.00  0.00    +0.150 HD
BRANCH   8  11
ATOM     11  CA  UNL     1     -44.119  30.871   6.162  0.00  0.00    +0.172 C 
BRANCH  11  13
ATOM     12  OXT UNL     1     -45.329  32.273   4.580  0.00  0.00    -0.248 OA
ATOM     13  C   UNL     1     -44.357  32.095   5.301  0.00  0.00    +0.332 C 
BRANCH  13  14
ATOM     14  O   UNL     1     -43.370  33.017   5.449  0.00  0.00    -0.479 OA
ATOM     15  H   UNL     1     -43.571  33.931   5.406  0.00  0.00    +0.295 HD
ENDBRANCH  13  14
ENDBRANCH  11  13
BRANCH  11  16
ATOM     16  CB  UNL     1     -44.966  30.841   7.440  0.00  0.00    +0.043 C 
BRANCH  16  17
ATOM     17  CG  UNL     1     -44.764  29.621   8.347  0.00  0.00    +0.112 C 
BRANCH  17  19
ATOM     18  OE2 UNL     1     -45.636  27.351   8.505  0.00  0.00    -0.250 OA
ATOM     19  CD  UNL     1     -45.738  28.494   8.079  0.00  0.00    +0.314 C 
BRANCH  19  20
ATOM     20  OE1 UNL     1     -46.747  28.889   7.260  0.00  0.00    -0.480 OA
ATOM     21  HE1 UNL     1     -47.638  28.739   7.508  0.00  0.00    +0.295 HD
ENDBRANCH  19  20
ENDBRANCH  17  19
ENDBRANCH  16  17
ENDBRANCH  11  16
ENDBRANCH   8  11
ENDBRANCH   5   9
ENDBRANCH   2   5
BRANCH   3  22
ATOM     22  C   UNL     1     -40.706  25.840   2.834  0.00  0.00    +0.227 C 
BRANCH  22  23
ATOM     23  O   UNL     1     -39.429  26.439   3.013  0.00  0.00    -0.343 OA
BRANCH  23  24
ATOM     24  C   UNL     1     -38.532  26.076   1.972  0.00  0.00    +0.165 C 
BRANCH  24  25
ATOM     25  C   UNL     1     -37.104  26.295   2.437  0.00  0.00    +0.134 C 
BRANCH  25  28
ATOM     26  O   UNL     1     -36.325  26.102   5.308  0.00  0.00    -0.269 OA
ATOM     27  O   UNL     1     -36.574  23.523   1.467  0.00  0.00    -0.269 OA
ATOM     28  N   UNL     1     -36.602  25.150   3.171  0.00  0.00    -0.220 N 
ATOM     29  C   UNL     1     -35.828  23.831   4.842  0.00  0.00    +0.058 C 
ATOM     30  C   UNL     1     -35.903  23.060   3.691  0.00  0.00    +0.058 C 
ATOM     31  C   UNL     1     -36.275  25.184   4.510  0.00  0.00    +0.255 C 
ATOM     32  C   UNL     1     -36.400  23.908   2.608  0.00  0.00    +0.255 C 
ATOM     33  C   UNL     1     -35.391  23.310   6.042  0.00  0.00    +0.005 C 
ATOM     34  C   UNL     1     -35.545  21.727   3.680  0.00  0.00    +0.005 C 
ATOM     35  C   UNL     1     -35.022  21.963   6.055  0.00  0.00    +0.000 C 
ATOM     36  C   UNL     1     -35.099  21.179   4.886  0.00  0.00    +0.000 C 
ENDBRANCH  25  28
ENDBRANCH  24  25
ENDBRANCH  23  24
ENDBRANCH  22  23
ENDBRANCH   3  22
TORSDOF 14
ENDMDL
MODEL 3
REMARK VINA RESULT:      -5.6      7.131      9.227
REMARK  Name = 5491958
REMARK  14 active torsions:
REMARK  status: ('A' for Active; 'I' for Inactive)
REMARK    1  A    between atoms: N_2  and  CA_5
REMARK    2  A    between atoms: C_3  and  C_22
REMARK    3  A    between atoms: CA_5  and  C_9
REMARK    4  A    between atoms: N_8  and  CA_11
REMARK    5  A    between atoms: CA_11  and  C_13
REMARK    6  A    between atoms: CA_11  and  CB_16
REMARK    7  A    between atoms: C_13  and  O_14
REMARK    8  A    between atoms: CB_16  and  CG_17
REMARK    9  A    between atoms: CG_17  and  CD_19
REMARK   10  A    between atoms: CD_19  and  OE1_20
REMARK   11  A    between atoms: C_22  and  O_23
REMARK   12  A    between atoms: O_23  and  C_24
REMARK   13  A    between atoms: C_24  and  C_25
REMARK   14  A    between atoms: C_25  and  N_28
REMARK                            x       y       z     vdW  Elec       q    Type
REMARK                         _______ _______ _______ _____ _____    ______ ____
ROOT
ATOM      1  O   UNL     1     -42.878  28.022   1.044  0.00  0.00    -0.272 OA
ATOM      2  N   UNL     1     -42.723  27.051   3.152  0.00  0.00    -0.296 N 
ATOM      3  C   ACE A   0     -42.366  27.224   1.825  0.00  0.00    +0.253 C 
ATOM      4  H   UNL     1     -42.241  26.378   3.685  0.00  0.00    +0.150 HD
ENDROOT
BRANCH   2   5
ATOM      5  CA  UNL     1     -43.771  27.813   3.792  0.00  0.00    +0.149 C 
ATOM      6  CB  UNL     1     -44.717  26.910   4.568  0.00  0.00    +0.031 C 
BRANCH   5   9
ATOM      7  O   UNL     1     -41.897  28.932   4.846  0.00  0.00    -0.273 OA
ATOM      8  N   UNL     1     -44.051  29.593   5.401  0.00  0.00    -0.295 N 
ATOM      9  C   UNL     1     -43.115  28.834   4.714  0.00  0.00    +0.241 C 
ATOM     10  H   UNL     1     -45.007  29.438   5.224  0.00  0.00    +0.150 HD
BRANCH   8  11
ATOM     11  CA  UNL     1     -43.680  30.600   6.368  0.00  0.00    +0.172 C 
BRANCH  11  13
ATOM     12  OXT UNL     1     -45.509  32.151   5.946  0.00  0.00    -0.248 OA
ATOM     13  C   UNL     1     -44.310  31.906   5.931  0.00  0.00    +0.332 C 
BRANCH  13  14
ATOM     14  O   UNL     1     -43.377  32.816   5.548  0.00  0.00    -0.479 OA
ATOM     15  H   UNL     1     -42.609  32.535   5.089  0.00  0.00    +0.295 HD
ENDBRANCH  13  14
ENDBRANCH  11  13
BRANCH  11  16
ATOM     16  CB  UNL     1     -44.021  30.201   7.809  0.00  0.00    +0.043 C 
BRANCH  16  17
ATOM     17  CG  UNL     1     -45.190  29.222   7.971  0.00  0.00    +0.112 C 
BRANCH  17  19
ATOM     18  OE2 UNL     1     -47.399  29.218   9.000  0.00  0.00    -0.250 OA
ATOM     19  CD  UNL     1     -46.417  29.835   8.611  0.00  0.00    +0.314 C 
BRANCH  19  20
ATOM     20  OE1 UNL     1     -46.324  31.189   8.674  0.00  0.00    -0.480 OA
ATOM     21  HE1 UNL     1     -45.509  31.593   8.901  0.00  0.00    +0.295 HD
ENDBRANCH  19  20
ENDBRANCH  17  19
ENDBRANCH  16  17
ENDBRANCH  11  16
ENDBRANCH   8  11
ENDBRANCH   5   9
ENDBRANCH   2   5
BRANCH   3  22
ATOM     22  C   UNL     1     -41.240  26.295   1.423  0.00  0.00    +0.227 C 
BRANCH  22  23
ATOM     23  O   UNL     1     -39.991  26.791   1.884  0.00  0.00    -0.343 OA
BRANCH  23  24
ATOM     24  C   UNL     1     -39.333  25.851   2.723  0.00  0.00    +0.165 C 
BRANCH  24  25
ATOM     25  C   UNL     1     -37.841  25.887   2.449  0.00  0.00    +0.134 C 
BRANCH  25  28
ATOM     26  O   UNL     1     -37.321  23.049   1.700  0.00  0.00    -0.269 OA
ATOM     27  O   UNL     1     -36.546  26.063   5.132  0.00  0.00    -0.269 OA
ATOM     28  N   UNL     1     -37.138  24.861   3.193  0.00  0.00    -0.220 N 
ATOM     29  C   UNL     1     -36.198  22.886   3.782  0.00  0.00    +0.058 C 
ATOM     30  C   UNL     1     -35.967  23.789   4.808  0.00  0.00    +0.058 C 
ATOM     31  C   UNL     1     -36.958  23.572   2.737  0.00  0.00    +0.255 C 
ATOM     32  C   UNL     1     -36.575  25.066   4.434  0.00  0.00    +0.255 C 
ATOM     33  C   UNL     1     -35.745  21.584   3.838  0.00  0.00    +0.005 C 
ATOM     34  C   UNL     1     -35.271  23.438   5.947  0.00  0.00    +0.005 C 
ATOM     35  C   UNL     1     -35.037  21.206   4.982  0.00  0.00    +0.000 C 
ATOM     36  C   UNL     1     -34.802  22.124   6.026  0.00  0.00    +0.000 C 
ENDBRANCH  25  28
ENDBRANCH  24  25
ENDBRANCH  23  24
ENDBRANCH  22  23
ENDBRANCH   3  22
TORSDOF 14
ENDMDL
MODEL 4
REMARK VINA RESULT:      -5.6      2.165      3.228
REMARK  Name = 5491958
REMARK  14 active torsions:
REMARK  status: ('A' for Active; 'I' for Inactive)
REMARK    1  A    between atoms: N_2  and  CA_5
REMARK    2  A    between atoms: C_3  and  C_22
REMARK    3  A    between atoms: CA_5  and  C_9
REMARK    4  A    between atoms: N_8  and  CA_11
REMARK    5  A    between atoms: CA_11  and  C_13
REMARK    6  A    between atoms: CA_11  and  CB_16
REMARK    7  A    between atoms: C_13  and  O_14
REMARK    8  A    between atoms: CB_16  and  CG_17
REMARK    9  A    between atoms: CG_17  and  CD_19
REMARK   10  A    between atoms: CD_19  and  OE1_20
REMARK   11  A    between atoms: C_22  and  O_23
REMARK   12  A    between atoms: O_23  and  C_24
REMARK   13  A    between atoms: C_24  and  C_25
REMARK   14  A    between atoms: C_25  and  N_28
REMARK                            x       y       z     vdW  Elec       q    Type
REMARK                         _______ _______ _______ _____ _____    ______ ____
ROOT
ATOM      1  O   UNL     1     -38.090  21.896  -0.601  0.00  0.00    -0.272 OA
ATOM      2  N   UNL     1     -37.872  21.752   1.710  0.00  0.00    -0.296 N 
ATOM      3  C   ACE A   0     -37.783  21.274   0.413  0.00  0.00    +0.253 C 
ATOM      4  H   UNL     1     -37.598  21.161   2.448  0.00  0.00    +0.150 HD
ENDROOT
BRANCH   2   5
ATOM      5  CA  UNL     1     -38.351  23.077   2.031  0.00  0.00    +0.149 C 
ATOM      6  CB  UNL     1     -39.864  23.097   2.184  0.00  0.00    +0.031 C 
BRANCH   5   9
ATOM      7  O   UNL     1     -38.025  24.510   3.958  0.00  0.00    -0.273 OA
ATOM      8  N   UNL     1     -36.588  22.716   3.642  0.00  0.00    -0.295 N 
ATOM      9  C   UNL     1     -37.668  23.524   3.318  0.00  0.00    +0.241 C 
ATOM     10  H   UNL     1     -36.383  21.947   3.064  0.00  0.00    +0.150 HD
BRANCH   8  11
ATOM     11  CA  UNL     1     -35.751  22.959   4.795  0.00  0.00    +0.172 C 
BRANCH  11  13
ATOM     12  OXT UNL     1     -35.120  20.619   4.549  0.00  0.00    -0.248 OA
ATOM     13  C   UNL     1     -35.196  21.623   5.245  0.00  0.00    +0.332 C 
BRANCH  13  14
ATOM     14  O   UNL     1     -34.742  21.669   6.525  0.00  0.00    -0.479 OA
ATOM     15  H   UNL     1     -35.053  22.332   7.109  0.00  0.00    +0.295 HD
ENDBRANCH  13  14
ENDBRANCH  11  13
BRANCH  11  16
ATOM     16  CB  UNL     1     -34.675  24.021   4.540  0.00  0.00    +0.043 C 
BRANCH  16  17
ATOM     17  CG  UNL     1     -34.661  25.205   5.514  0.00  0.00    +0.112 C 
BRANCH  17  19
ATOM     18  OE2 UNL     1     -34.716  27.283   4.243  0.00  0.00    -0.250 OA
ATOM     19  CD  UNL     1     -35.285  26.465   4.952  0.00  0.00    +0.314 C 
BRANCH  19  20
ATOM     20  OE1 UNL     1     -36.571  26.613   5.364  0.00  0.00    -0.480 OA
ATOM     21  HE1 UNL     1     -37.003  27.438   5.266  0.00  0.00    +0.295 HD
ENDBRANCH  19  20
ENDBRANCH  17  19
ENDBRANCH  16  17
ENDBRANCH  11  16
ENDBRANCH   8  11
ENDBRANCH   5   9
ENDBRANCH   2   5
BRANCH   3  22
ATOM     22  C   UNL     1     -37.251  19.857   0.373  0.00  0.00    +0.227 C 
BRANCH  22  23
ATOM     23  O   UNL     1     -35.971  19.819  -0.245  0.00  0.00    -0.343 OA
BRANCH  23  24
ATOM     24  C   UNL     1     -35.154  18.797   0.310  0.00  0.00    +0.165 C 
BRANCH  24  25
ATOM     25  C   UNL     1     -34.198  19.408   1.319  0.00  0.00    +0.134 C 
BRANCH  25  28
ATOM     26  O   UNL     1     -31.956  17.448   1.461  0.00  0.00    -0.269 OA
ATOM     27  O   UNL     1     -32.958  21.653  -0.206  0.00  0.00    -0.269 OA
ATOM     28  N   UNL     1     -32.856  19.517   0.783  0.00  0.00    -0.220 N 
ATOM     29  C   UNL     1     -30.712  19.044   0.225  0.00  0.00    +0.058 C 
ATOM     30  C   UNL     1     -31.014  20.303  -0.273  0.00  0.00    +0.058 C 
ATOM     31  C   UNL     1     -31.899  18.533   0.911  0.00  0.00    +0.255 C 
ATOM     32  C   UNL     1     -32.397  20.614   0.087  0.00  0.00    +0.255 C 
ATOM     33  C   UNL     1     -29.472  18.466   0.048  0.00  0.00    +0.005 C 
ATOM     34  C   UNL     1     -30.090  21.050  -0.975  0.00  0.00    +0.005 C 
ATOM     35  C   UNL     1     -28.521  19.205  -0.661  0.00  0.00    +0.000 C 
ATOM     36  C   UNL     1     -28.827  20.484  -1.168  0.00  0.00    +0.000 C 
ENDBRANCH  25  28
ENDBRANCH  24  25
ENDBRANCH  23  24
ENDBRANCH  22  23
ENDBRANCH   3  22
TORSDOF 14
ENDMDL
MODEL 5
REMARK VINA RESULT:      -5.5      0.933      1.863
REMARK  Name = 5491958
REMARK  14 active torsions:
REMARK  status: ('A' for Active; 'I' for Inactive)
REMARK    1  A    between atoms: N_2  and  CA_5
REMARK    2  A    between atoms: C_3  and  C_22
REMARK    3  A    between atoms: CA_5  and  C_9
REMARK    4  A    between atoms: N_8  and  CA_11
REMARK    5  A    between atoms: CA_11  and  C_13
REMARK    6  A    between atoms: CA_11  and  CB_16
REMARK    7  A    between atoms: C_13  and  O_14
REMARK    8  A    between atoms: CB_16  and  CG_17
REMARK    9  A    between atoms: CG_17  and  CD_19
REMARK   10  A    between atoms: CD_19  and  OE1_20
REMARK   11  A    between atoms: C_22  and  O_23
REMARK   12  A    between atoms: O_23  and  C_24
REMARK   13  A    between atoms: C_24  and  C_25
REMARK   14  A    between atoms: C_25  and  N_28
REMARK                            x       y       z     vdW  Elec       q    Type
REMARK                         _______ _______ _______ _____ _____    ______ ____
ROOT
ATOM      1  O   UNL     1     -35.942  27.254   1.381  0.00  0.00    -0.272 OA
ATOM      2  N   UNL     1     -35.840  24.931   1.371  0.00  0.00    -0.296 N 
ATOM      3  C   ACE A   0     -35.313  26.207   1.257  0.00  0.00    +0.253 C 
ATOM      4  H   UNL     1     -35.238  24.161   1.251  0.00  0.00    +0.150 HD
ENDROOT
BRANCH   2   5
ATOM      5  CA  UNL     1     -37.234  24.676   1.657  0.00  0.00    +0.149 C 
ATOM      6  CB  UNL     1     -37.860  23.778   0.601  0.00  0.00    +0.031 C 
BRANCH   5   9
ATOM      7  O   UNL     1     -38.355  24.008   3.700  0.00  0.00    -0.273 OA
ATOM      8  N   UNL     1     -36.096  23.535   3.457  0.00  0.00    -0.295 N 
ATOM      9  C   UNL     1     -37.321  24.035   3.037  0.00  0.00    +0.241 C 
ATOM     10  H   UNL     1     -35.324  23.605   2.851  0.00  0.00    +0.150 HD
BRANCH   8  11
ATOM     11  CA  UNL     1     -35.909  22.917   4.749  0.00  0.00    +0.172 C 
BRANCH  11  13
ATOM     12  OXT UNL     1     -35.497  20.918   3.421  0.00  0.00    -0.248 OA
ATOM     13  C   UNL     1     -35.524  21.471   4.512  0.00  0.00    +0.332 C 
BRANCH  13  14
ATOM     14  O   UNL     1     -35.164  20.848   5.664  0.00  0.00    -0.479 OA
ATOM     15  H   UNL     1     -35.012  19.923   5.669  0.00  0.00    +0.295 HD
ENDBRANCH  13  14
ENDBRANCH  11  13
BRANCH  11  16
ATOM     16  CB  UNL     1     -34.921  23.681   5.640  0.00  0.00    +0.043 C 
BRANCH  16  17
ATOM     17  CG  UNL     1     -34.085  24.758   4.939  0.00  0.00    +0.112 C 
BRANCH  17  19
ATOM     18  OE2 UNL     1     -35.639  26.627   4.779  0.00  0.00    -0.250 OA
ATOM     19  CD  UNL     1     -34.579  26.168   5.180  0.00  0.00    +0.314 C 
BRANCH  19  20
ATOM     20  OE1 UNL     1     -33.673  26.902   5.878  0.00  0.00    -0.480 OA
ATOM     21  HE1 UNL     1     -33.021  27.398   5.424  0.00  0.00    +0.295 HD
ENDBRANCH  19  20
ENDBRANCH  17  19
ENDBRANCH  16  17
ENDBRANCH  11  16
ENDBRANCH   8  11
ENDBRANCH   5   9
ENDBRANCH   2   5
BRANCH   3  22
ATOM     22  C   UNL     1     -33.830  26.175   0.954  0.00  0.00    +0.227 C 
BRANCH  22  23
ATOM     23  O   UNL     1     -33.582  25.490  -0.266  0.00  0.00    -0.343 OA
BRANCH  23  24
ATOM     24  C   UNL     1     -32.381  24.731  -0.204  0.00  0.00    +0.165 C 
BRANCH  24  25
ATOM     25  C   UNL     1     -32.417  23.641  -1.259  0.00  0.00    +0.134 C 
BRANCH  25  28
ATOM     26  O   UNL     1     -34.527  22.210   0.286  0.00  0.00    -0.269 OA
ATOM     27  O   UNL     1     -30.192  21.653  -1.252  0.00  0.00    -0.269 OA
ATOM     28  N   UNL     1     -32.374  22.321  -0.663  0.00  0.00    -0.220 N 
ATOM     29  C   UNL     1     -32.963  20.435   0.445  0.00  0.00    +0.058 C 
ATOM     30  C   UNL     1     -31.665  20.270  -0.016  0.00  0.00    +0.058 C 
ATOM     31  C   UNL     1     -33.425  21.761   0.032  0.00  0.00    +0.255 C 
ATOM     32  C   UNL     1     -31.279  21.487  -0.730  0.00  0.00    +0.255 C 
ATOM     33  C   UNL     1     -33.614  19.453   1.162  0.00  0.00    +0.005 C 
ATOM     34  C   UNL     1     -30.950  19.113   0.216  0.00  0.00    +0.005 C 
ATOM     35  C   UNL     1     -32.909  18.272   1.409  0.00  0.00    +0.000 C 
ATOM     36  C   UNL     1     -31.590  18.103   0.941  0.00  0.00    +0.000 C 
ENDBRANCH  25  28
ENDBRANCH  24  25
ENDBRANCH  23  24
ENDBRANCH  22  23
ENDBRANCH   3  22
TORSDOF 14
ENDMDL
MODEL 6
REMARK VINA RESULT:      -5.4      1.891      3.926
REMARK  Name = 5491958
REMARK  14 active torsions:
REMARK  status: ('A' for Active; 'I' for Inactive)
REMARK    1  A    between atoms: N_2  and  CA_5
REMARK    2  A    between atoms: C_3  and  C_22
REMARK    3  A    between atoms: CA_5  and  C_9
REMARK    4  A    between atoms: N_8  and  CA_11
REMARK    5  A    between atoms: CA_11  and  C_13
REMARK    6  A    between atoms: CA_11  and  CB_16
REMARK    7  A    between atoms: C_13  and  O_14
REMARK    8  A    between atoms: CB_16  and  CG_17
REMARK    9  A    between atoms: CG_17  and  CD_19
REMARK   10  A    between atoms: CD_19  and  OE1_20
REMARK   11  A    between atoms: C_22  and  O_23
REMARK   12  A    between atoms: O_23  and  C_24
REMARK   13  A    between atoms: C_24  and  C_25
REMARK   14  A    between atoms: C_25  and  N_28
REMARK                            x       y       z     vdW  Elec       q    Type
REMARK                         _______ _______ _______ _____ _____    ______ ____
ROOT
ATOM      1  O   UNL     1     -30.637  26.244   2.662  0.00  0.00    -0.272 OA
ATOM      2  N   UNL     1     -32.550  27.436   2.089  0.00  0.00    -0.296 N 
ATOM      3  C   ACE A   0     -31.476  26.597   1.838  0.00  0.00    +0.253 C 
ATOM      4  H   UNL     1     -33.161  27.652   1.348  0.00  0.00    +0.150 HD
ENDROOT
BRANCH   2   5
ATOM      5  CA  UNL     1     -32.815  28.011   3.389  0.00  0.00    +0.149 C 
ATOM      6  CB  UNL     1     -33.652  29.275   3.274  0.00  0.00    +0.031 C 
BRANCH   5   9
ATOM      7  O   UNL     1     -33.095  26.556   5.307  0.00  0.00    -0.273 OA
ATOM      8  N   UNL     1     -34.684  26.498   3.617  0.00  0.00    -0.295 N 
ATOM      9  C   UNL     1     -33.528  26.961   4.231  0.00  0.00    +0.241 C 
ATOM     10  H   UNL     1     -34.947  26.887   2.752  0.00  0.00    +0.150 HD
BRANCH   8  11
ATOM     11  CA  UNL     1     -35.515  25.468   4.196  0.00  0.00    +0.172 C 
BRANCH  11  13
ATOM     12  OXT UNL     1     -37.244  26.417   2.768  0.00  0.00    -0.248 OA
ATOM     13  C   UNL     1     -36.929  25.692   3.702  0.00  0.00    +0.332 C 
BRANCH  13  14
ATOM     14  O   UNL     1     -37.832  24.953   4.399  0.00  0.00    -0.479 OA
ATOM     15  H   UNL     1     -37.955  24.047   4.193  0.00  0.00    +0.295 HD
ENDBRANCH  13  14
ENDBRANCH  11  13
BRANCH  11  16
ATOM     16  CB  UNL     1     -34.985  24.053   3.932  0.00  0.00    +0.043 C 
BRANCH  16  17
ATOM     17  CG  UNL     1     -34.579  23.249   5.173  0.00  0.00    +0.112 C 
BRANCH  17  19
ATOM     18  OE2 UNL     1     -35.161  20.964   4.560  0.00  0.00    -0.250 OA
ATOM     19  CD  UNL     1     -35.299  21.925   5.305  0.00  0.00    +0.314 C 
BRANCH  19  20
ATOM     20  OE1 UNL     1     -36.170  21.931   6.348  0.00  0.00    -0.480 OA
ATOM     21  HE1 UNL     1     -36.890  22.530   6.355  0.00  0.00    +0.295 HD
ENDBRANCH  19  20
ENDBRANCH  17  19
ENDBRANCH  16  17
ENDBRANCH  11  16
ENDBRANCH   8  11
ENDBRANCH   5   9
ENDBRANCH   2   5
BRANCH   3  22
ATOM     22  C   UNL     1     -31.445  26.145   0.394  0.00  0.00    +0.227 C 
BRANCH  22  23
ATOM     23  O   UNL     1     -31.681  24.747   0.300  0.00  0.00    -0.343 OA
BRANCH  23  24
ATOM     24  C   UNL     1     -33.071  24.453   0.269  0.00  0.00    +0.165 C 
BRANCH  24  25
ATOM     25  C   UNL     1     -33.341  23.397  -0.788  0.00  0.00    +0.134 C 
BRANCH  25  28
ATOM     26  O   UNL     1     -30.819  21.889  -1.289  0.00  0.00    -0.269 OA
ATOM     27  O   UNL     1     -34.883  21.476   0.896  0.00  0.00    -0.269 OA
ATOM     28  N   UNL     1     -32.961  22.076  -0.329  0.00  0.00    -0.220 N 
ATOM     29  C   UNL     1     -31.784  20.175   0.036  0.00  0.00    +0.058 C 
ATOM     30  C   UNL     1     -33.002  20.053   0.689  0.00  0.00    +0.058 C 
ATOM     31  C   UNL     1     -31.754  21.479  -0.627  0.00  0.00    +0.255 C 
ATOM     32  C   UNL     1     -33.767  21.277   0.454  0.00  0.00    +0.255 C 
ATOM     33  C   UNL     1     -30.833  19.176   0.069  0.00  0.00    +0.005 C 
ATOM     34  C   UNL     1     -33.333  18.925   1.411  0.00  0.00    +0.005 C 
ATOM     35  C   UNL     1     -31.147  18.023   0.794  0.00  0.00    +0.000 C 
ATOM     36  C   UNL     1     -32.384  17.899   1.458  0.00  0.00    +0.000 C 
ENDBRANCH  25  28
ENDBRANCH  24  25
ENDBRANCH  23  24
ENDBRANCH  22  23
ENDBRANCH   3  22
TORSDOF 14
ENDMDL
MODEL 7
REMARK VINA RESULT:      -5.3      1.079      1.331
REMARK  Name = 5491958
REMARK  14 active torsions:
REMARK  status: ('A' for Active; 'I' for Inactive)
REMARK    1  A    between atoms: N_2  and  CA_5
REMARK    2  A    between atoms: C_3  and  C_22
REMARK    3  A    between atoms: CA_5  and  C_9
REMARK    4  A    between atoms: N_8  and  CA_11
REMARK    5  A    between atoms: CA_11  and  C_13
REMARK    6  A    between atoms: CA_11  and  CB_16
REMARK    7  A    between atoms: C_13  and  O_14
REMARK    8  A    between atoms: CB_16  and  CG_17
REMARK    9  A    between atoms: CG_17  and  CD_19
REMARK   10  A    between atoms: CD_19  and  OE1_20
REMARK   11  A    between atoms: C_22  and  O_23
REMARK   12  A    between atoms: O_23  and  C_24
REMARK   13  A    between atoms: C_24  and  C_25
REMARK   14  A    between atoms: C_25  and  N_28
REMARK                            x       y       z     vdW  Elec       q    Type
REMARK                         _______ _______ _______ _____ _____    ______ ____
ROOT
ATOM      1  O   UNL     1     -38.182  24.529  -1.137  0.00  0.00    -0.272 OA
ATOM      2  N   UNL     1     -36.891  23.979   0.717  0.00  0.00    -0.296 N 
ATOM      3  C   ACE A   0     -37.093  24.418  -0.581  0.00  0.00    +0.253 C 
ATOM      4  H   UNL     1     -35.969  23.930   1.059  0.00  0.00    +0.150 HD
ENDROOT
BRANCH   2   5
ATOM      5  CA  UNL     1     -37.971  23.588   1.595  0.00  0.00    +0.149 C 
ATOM      6  CB  UNL     1     -38.365  22.136   1.374  0.00  0.00    +0.031 C 
BRANCH   5   9
ATOM      7  O   UNL     1     -38.188  24.426   3.859  0.00  0.00    -0.273 OA
ATOM      8  N   UNL     1     -36.252  23.293   3.265  0.00  0.00    -0.295 N 
ATOM      9  C   UNL     1     -37.516  23.816   3.031  0.00  0.00    +0.241 C 
ATOM     10  H   UNL     1     -35.793  22.820   2.535  0.00  0.00    +0.150 HD
BRANCH   8  11
ATOM     11  CA  UNL     1     -35.581  23.418   4.539  0.00  0.00    +0.172 C 
BRANCH  11  13
ATOM     12  OXT UNL     1     -35.510  21.780   6.340  0.00  0.00    -0.248 OA
ATOM     13  C   UNL     1     -35.487  22.031   5.143  0.00  0.00    +0.332 C 
BRANCH  13  14
ATOM     14  O   UNL     1     -35.414  21.068   4.188  0.00  0.00    -0.479 OA
ATOM     15  H   UNL     1     -35.165  21.292   3.313  0.00  0.00    +0.295 HD
ENDBRANCH  13  14
ENDBRANCH  11  13
BRANCH  11  16
ATOM     16  CB  UNL     1     -34.231  24.139   4.437  0.00  0.00    +0.043 C 
BRANCH  16  17
ATOM     17  CG  UNL     1     -34.132  25.479   5.176  0.00  0.00    +0.112 C 
BRANCH  17  19
ATOM     18  OE2 UNL     1     -36.296  26.230   6.007  0.00  0.00    -0.250 OA
ATOM     19  CD  UNL     1     -35.415  26.282   5.160  0.00  0.00    +0.314 C 
BRANCH  19  20
ATOM     20  OE1 UNL     1     -35.504  27.060   4.050  0.00  0.00    -0.480 OA
ATOM     21  HE1 UNL     1     -36.101  26.834   3.364  0.00  0.00    +0.295 HD
ENDBRANCH  19  20
ENDBRANCH  17  19
ENDBRANCH  16  17
ENDBRANCH  11  16
ENDBRANCH   8  11
ENDBRANCH   5   9
ENDBRANCH   2   5
BRANCH   3  22
ATOM     22  C   UNL     1     -35.787  24.759  -1.266  0.00  0.00    +0.227 C 
BRANCH  22  23
ATOM     23  O   UNL     1     -35.359  23.685  -2.093  0.00  0.00    -0.343 OA
BRANCH  23  24
ATOM     24  C   UNL     1     -33.941  23.581  -2.121  0.00  0.00    +0.165 C 
BRANCH  24  25
ATOM     25  C   UNL     1     -33.408  23.582  -0.700  0.00  0.00    +0.134 C 
BRANCH  25  28
ATOM     26  O   UNL     1     -30.954  21.984  -1.259  0.00  0.00    -0.269 OA
ATOM     27  O   UNL     1     -34.989  21.708   1.001  0.00  0.00    -0.269 OA
ATOM     28  N   UNL     1     -33.070  22.244  -0.256  0.00  0.00    -0.220 N 
ATOM     29  C   UNL     1     -31.957  20.299   0.074  0.00  0.00    +0.058 C 
ATOM     30  C   UNL     1     -33.166  20.218   0.750  0.00  0.00    +0.058 C 
ATOM     31  C   UNL     1     -31.892  21.605  -0.581  0.00  0.00    +0.255 C 
ATOM     32  C   UNL     1     -33.890  21.471   0.537  0.00  0.00    +0.255 C 
ATOM     33  C   UNL     1     -31.044  19.265   0.083  0.00  0.00    +0.005 C 
ATOM     34  C   UNL     1     -33.525  19.097   1.470  0.00  0.00    +0.005 C 
ATOM     35  C   UNL     1     -31.387  18.119   0.806  0.00  0.00    +0.000 C 
ATOM     36  C   UNL     1     -32.615  18.036   1.494  0.00  0.00    +0.000 C 
ENDBRANCH  25  28
ENDBRANCH  24  25
ENDBRANCH  23  24
ENDBRANCH  22  23
ENDBRANCH   3  22
TORSDOF 14
ENDMDL
MODEL 8
REMARK VINA RESULT:      -5.3      5.554      9.864
REMARK  Name = 5491958
REMARK  14 active torsions:
REMARK  status: ('A' for Active; 'I' for Inactive)
REMARK    1  A    between atoms: N_2  and  CA_5
REMARK    2  A    between atoms: C_3  and  C_22
REMARK    3  A    between atoms: CA_5  and  C_9
REMARK    4  A    between atoms: N_8  and  CA_11
REMARK    5  A    between atoms: CA_11  and  C_13
REMARK    6  A    between atoms: CA_11  and  CB_16
REMARK    7  A    between atoms: C_13  and  O_14
REMARK    8  A    between atoms: CB_16  and  CG_17
REMARK    9  A    between atoms: CG_17  and  CD_19
REMARK   10  A    between atoms: CD_19  and  OE1_20
REMARK   11  A    between atoms: C_22  and  O_23
REMARK   12  A    between atoms: O_23  and  C_24
REMARK   13  A    between atoms: C_24  and  C_25
REMARK   14  A    between atoms: C_25  and  N_28
REMARK                            x       y       z     vdW  Elec       q    Type
REMARK                         _______ _______ _______ _____ _____    ______ ____
ROOT
ATOM      1  O   UNL     1     -38.157  26.492   2.521  0.00  0.00    -0.272 OA
ATOM      2  N   UNL     1     -37.775  24.707   3.962  0.00  0.00    -0.296 N 
ATOM      3  C   ACE A   0     -38.562  25.540   3.184  0.00  0.00    +0.253 C 
ATOM      4  H   UNL     1     -38.210  23.973   4.453  0.00  0.00    +0.150 HD
ENDROOT
BRANCH   2   5
ATOM      5  CA  UNL     1     -36.344  24.864   4.088  0.00  0.00    +0.149 C 
ATOM      6  CB  UNL     1     -35.873  24.534   5.496  0.00  0.00    +0.031 C 
BRANCH   5   9
ATOM      7  O   UNL     1     -34.587  24.198   2.557  0.00  0.00    -0.273 OA
ATOM      8  N   UNL     1     -36.469  22.854   2.755  0.00  0.00    -0.295 N 
ATOM      9  C   UNL     1     -35.679  23.952   3.065  0.00  0.00    +0.241 C 
ATOM     10  H   UNL     1     -37.330  22.746   3.218  0.00  0.00    +0.150 HD
BRANCH   8  11
ATOM     11  CA  UNL     1     -36.077  21.864   1.778  0.00  0.00    +0.172 C 
BRANCH  11  13
ATOM     12  OXT UNL     1     -34.804  20.273   3.112  0.00  0.00    -0.248 OA
ATOM     13  C   UNL     1     -35.834  20.565   2.519  0.00  0.00    +0.332 C 
BRANCH  13  14
ATOM     14  O   UNL     1     -36.923  19.753   2.488  0.00  0.00    -0.479 OA
ATOM     15  H   UNL     1     -37.324  19.475   3.288  0.00  0.00    +0.295 HD
ENDBRANCH  13  14
ENDBRANCH  11  13
BRANCH  11  16
ATOM     16  CB  UNL     1     -37.076  21.737   0.621  0.00  0.00    +0.043 C 
BRANCH  16  17
ATOM     17  CG  UNL     1     -38.422  22.443   0.821  0.00  0.00    +0.112 C 
BRANCH  17  19
ATOM     18  OE2 UNL     1     -40.360  21.800   2.151  0.00  0.00    -0.250 OA
ATOM     19  CD  UNL     1     -39.528  21.525   1.298  0.00  0.00    +0.314 C 
BRANCH  19  20
ATOM     20  OE1 UNL     1     -39.471  20.314   0.686  0.00  0.00    -0.480 OA
ATOM     21  HE1 UNL     1     -38.642  19.900   0.540  0.00  0.00    +0.295 HD
ENDBRANCH  19  20
ENDBRANCH  17  19
ENDBRANCH  16  17
ENDBRANCH  11  16
ENDBRANCH   8  11
ENDBRANCH   5   9
ENDBRANCH   2   5
BRANCH   3  22
ATOM     22  C   UNL     1     -40.021  25.143   3.238  0.00  0.00    +0.227 C 
BRANCH  22  23
ATOM     23  O   UNL     1     -40.840  26.159   2.675  0.00  0.00    -0.343 OA
BRANCH  23  24
ATOM     24  C   UNL     1     -41.688  26.747   3.653  0.00  0.00    +0.165 C 
BRANCH  24  25
ATOM     25  C   UNL     1     -42.909  27.339   2.972  0.00  0.00    +0.134 C 
BRANCH  25  28
ATOM     26  O   UNL     1     -44.049  25.185   1.255  0.00  0.00    -0.269 OA
ATOM     27  O   UNL     1     -44.829  27.388   5.256  0.00  0.00    -0.269 OA
ATOM     28  N   UNL     1     -44.088  26.525   3.192  0.00  0.00    -0.220 N 
ATOM     29  C   UNL     1     -45.719  24.976   2.926  0.00  0.00    +0.058 C 
ATOM     30  C   UNL     1     -45.951  25.637   4.123  0.00  0.00    +0.058 C 
ATOM     31  C   UNL     1     -44.517  25.549   2.318  0.00  0.00    +0.255 C 
ATOM     32  C   UNL     1     -44.901  26.640   4.299  0.00  0.00    +0.255 C 
ATOM     33  C   UNL     1     -46.544  23.965   2.477  0.00  0.00    +0.005 C 
ATOM     34  C   UNL     1     -47.021  25.321   4.935  0.00  0.00    +0.005 C 
ATOM     35  C   UNL     1     -47.634  23.629   3.283  0.00  0.00    +0.000 C 
ATOM     36  C   UNL     1     -47.871  24.300   4.500  0.00  0.00    +0.000 C 
ENDBRANCH  25  28
ENDBRANCH  24  25
ENDBRANCH  23  24
ENDBRANCH  22  23
ENDBRANCH   3  22
TORSDOF 14
ENDMDL
MODEL 9
REMARK VINA RESULT:      -5.3      5.601     10.014
REMARK  Name = 5491958
REMARK  14 active torsions:
REMARK  status: ('A' for Active; 'I' for Inactive)
REMARK    1  A    between atoms: N_2  and  CA_5
REMARK    2  A    between atoms: C_3  and  C_22
REMARK    3  A    between atoms: CA_5  and  C_9
REMARK    4  A    between atoms: N_8  and  CA_11
REMARK    5  A    between atoms: CA_11  and  C_13
REMARK    6  A    between atoms: CA_11  and  CB_16
REMARK    7  A    between atoms: C_13  and  O_14
REMARK    8  A    between atoms: CB_16  and  CG_17
REMARK    9  A    between atoms: CG_17  and  CD_19
REMARK   10  A    between atoms: CD_19  and  OE1_20
REMARK   11  A    between atoms: C_22  and  O_23
REMARK   12  A    between atoms: O_23  and  C_24
REMARK   13  A    between atoms: C_24  and  C_25
REMARK   14  A    between atoms: C_25  and  N_28
REMARK                            x       y       z     vdW  Elec       q    Type
REMARK                         _______ _______ _______ _____ _____    ______ ____
ROOT
ATOM      1  O   UNL     1     -38.448  25.597   1.787  0.00  0.00    -0.272 OA
ATOM      2  N   UNL     1     -38.167  25.192   4.060  0.00  0.00    -0.296 N 
ATOM      3  C   ACE A   0     -38.907  25.444   2.917  0.00  0.00    +0.253 C 
ATOM      4  H   UNL     1     -38.644  25.086   4.915  0.00  0.00    +0.150 HD
ENDROOT
BRANCH   2   5
ATOM      5  CA  UNL     1     -36.726  25.078   4.058  0.00  0.00    +0.149 C 
ATOM      6  CB  UNL     1     -36.119  25.718   5.297  0.00  0.00    +0.031 C 
BRANCH   5   9
ATOM      7  O   UNL     1     -36.260  22.883   4.977  0.00  0.00    -0.273 OA
ATOM      8  N   UNL     1     -36.156  23.180   2.678  0.00  0.00    -0.295 N 
ATOM      9  C   UNL     1     -36.372  23.598   3.983  0.00  0.00    +0.241 C 
ATOM     10  H   UNL     1     -36.272  23.830   1.948  0.00  0.00    +0.150 HD
BRANCH   8  11
ATOM     11  CA  UNL     1     -35.765  21.828   2.346  0.00  0.00    +0.172 C 
BRANCH  11  13
ATOM     12  OXT UNL     1     -38.069  21.432   1.662  0.00  0.00    -0.248 OA
ATOM     13  C   UNL     1     -37.033  21.019   2.166  0.00  0.00    +0.332 C 
BRANCH  13  14
ATOM     14  O   UNL     1     -36.883  19.740   2.598  0.00  0.00    -0.479 OA
ATOM     15  H   UNL     1     -36.096  19.269   2.405  0.00  0.00    +0.295 HD
ENDBRANCH  13  14
ENDBRANCH  11  13
BRANCH  11  16
ATOM     16  CB  UNL     1     -34.812  21.758   1.147  0.00  0.00    +0.043 C 
BRANCH  16  17
ATOM     17  CG  UNL     1     -33.926  20.508   1.071  0.00  0.00    +0.112 C 
BRANCH  17  19
ATOM     18  OE2 UNL     1     -34.193  19.577  -1.164  0.00  0.00    -0.250 OA
ATOM     19  CD  UNL     1     -34.384  19.498   0.041  0.00  0.00    +0.314 C 
BRANCH  19  20
ATOM     20  OE1 UNL     1     -35.083  18.483   0.613  0.00  0.00    -0.480 OA
ATOM     21  HE1 UNL     1     -34.690  17.965   1.289  0.00  0.00    +0.295 HD
ENDBRANCH  19  20
ENDBRANCH  17  19
ENDBRANCH  16  17
ENDBRANCH  11  16
ENDBRANCH   8  11
ENDBRANCH   5   9
ENDBRANCH   2   5
BRANCH   3  22
ATOM     22  C   UNL     1     -40.390  25.511   3.213  0.00  0.00    +0.227 C 
BRANCH  22  23
ATOM     23  O   UNL     1     -40.899  26.809   2.933  0.00  0.00    -0.343 OA
BRANCH  23  24
ATOM     24  C   UNL     1     -41.840  27.223   3.914  0.00  0.00    +0.165 C 
BRANCH  24  25
ATOM     25  C   UNL     1     -43.099  27.721   3.228  0.00  0.00    +0.134 C 
BRANCH  25  28
ATOM     26  O   UNL     1     -45.034  27.418   5.475  0.00  0.00    -0.269 OA
ATOM     27  O   UNL     1     -43.990  25.577   1.353  0.00  0.00    -0.269 OA
ATOM     28  N   UNL     1     -44.191  26.779   3.370  0.00  0.00    -0.220 N 
ATOM     29  C   UNL     1     -45.980  25.661   4.194  0.00  0.00    +0.058 C 
ATOM     30  C   UNL     1     -45.666  25.111   2.960  0.00  0.00    +0.058 C 
ATOM     31  C   UNL     1     -45.028  26.737   4.465  0.00  0.00    +0.255 C 
ATOM     32  C   UNL     1     -44.509  25.828   2.424  0.00  0.00    +0.255 C 
ATOM     33  C   UNL     1     -47.033  25.196   4.955  0.00  0.00    +0.005 C 
ATOM     34  C   UNL     1     -46.389  24.066   2.421  0.00  0.00    +0.005 C 
ATOM     35  C   UNL     1     -47.779  24.137   4.430  0.00  0.00    +0.000 C 
ATOM     36  C   UNL     1     -47.460  23.578   3.175  0.00  0.00    +0.000 C 
ENDBRANCH  25  28
ENDBRANCH  24  25
ENDBRANCH  23  24
ENDBRANCH  22  23
ENDBRANCH   3  22
TORSDOF 14
ENDMDL
