MODEL 1
REMARK VINA RESULT:      -5.6      0.000      0.000
REMARK  Name = 194813
REMARK  7 active torsions:
REMARK  status: ('A' for Active; 'I' for Inactive)
REMARK    1  A    between atoms: C_1  and  C_9
REMARK    2  A    between atoms: C_1  and  C_14
REMARK    3  A    between atoms: C_5  and  C_11
REMARK    4  A    between atoms: C_11  and  O_12
REMARK    5  A    between atoms: C_14  and  S_15
REMARK    6  A    between atoms: S_15  and  C_21
REMARK    7  A    between atoms: N_20  and  C_25
REMARK                            x       y       z     vdW  Elec       q    Type
REMARK                         _______ _______ _______ _____ _____    ______ ____
ROOT
ATOM      1  C   UNL     1     -38.377  23.848   2.418  0.00  0.00    +0.100 C 
ATOM      2  C   UNL     1     -39.579  22.917   2.350  0.00  0.00    +0.011 C 
ENDROOT
BRANCH   1   9
ATOM      3  O   UNL     1     -36.975  21.925   2.493  0.00  0.00    -0.275 OA
ATOM      4  N   UNL     1     -36.446  23.674   3.914  0.00  0.00    -0.271 N 
ATOM      5  C   UNL     1     -35.191  23.118   4.402  0.00  0.00    +0.174 C 
ATOM      6  C   UNL     1     -34.486  24.287   5.081  0.00  0.00    +0.033 C 
ATOM      7  C   UNL     1     -36.681  25.006   4.464  0.00  0.00    +0.094 C 
ATOM      8  C   UNL     1     -35.639  25.166   5.561  0.00  0.00    +0.024 C 
ATOM      9  C   UNL     1     -37.204  23.053   2.934  0.00  0.00    +0.227 C 
BRANCH   5  11
ATOM     10  O   UNL     1     -35.957  22.220   6.512  0.00  0.00    -0.248 OA
ATOM     11  C   UNL     1     -35.538  22.035   5.380  0.00  0.00    +0.332 C 
BRANCH  11  12
ATOM     12  O   UNL     1     -35.321  20.812   4.837  0.00  0.00    -0.479 OA
ATOM     13  H   UNL     1     -34.458  20.566   4.567  0.00  0.00    +0.295 HD
ENDBRANCH  11  12
ENDBRANCH   5  11
ENDBRANCH   1   9
BRANCH   1  14
ATOM     14  C   UNL     1     -38.005  24.446   1.071  0.00  0.00    +0.160 C 
BRANCH  14  15
ATOM     15  S   UNL     1     -38.407  26.160   0.963  0.00  0.00    -0.002 S 
ATOM     16  O   UNL     1     -39.424  26.327  -0.061  0.00  0.00    -0.173 OA
ATOM     17  O   UNL     1     -38.626  26.662   2.309  0.00  0.00    -0.173 OA
BRANCH  15  21
ATOM     18  O   UNL     1     -37.500  29.216   0.680  0.00  0.00    -0.273 OA
ATOM     19  O   UNL     1     -34.092  26.712   2.545  0.00  0.00    -0.274 OA
ATOM     20  N   UNL     1     -35.681  28.254   1.793  0.00  0.00    -0.228 N 
ATOM     21  C   UNL     1     -36.908  26.898   0.354  0.00  0.00    +0.214 C 
ATOM     22  C   UNL     1     -35.668  26.143   0.810  0.00  0.00    +0.119 C 
ATOM     23  C   UNL     1     -36.754  28.279   0.928  0.00  0.00    +0.254 C 
ATOM     24  C   UNL     1     -35.036  27.038   1.838  0.00  0.00    +0.234 C 
BRANCH  20  25
ATOM     25  C   UNL     1     -35.272  29.386   2.603  0.00  0.00    +0.101 C 
ATOM     26  C   UNL     1     -34.250  30.242   1.883  0.00  0.00    +0.024 C 
ENDBRANCH  20  25
ENDBRANCH  15  21
ENDBRANCH  14  15
ENDBRANCH   1  14
TORSDOF 7
ENDMDL
MODEL 2
REMARK VINA RESULT:      -5.3      2.899      4.250
REMARK  Name = 194813
REMARK  7 active torsions:
REMARK  status: ('A' for Active; 'I' for Inactive)
REMARK    1  A    between atoms: C_1  and  C_9
REMARK    2  A    between atoms: C_1  and  C_14
REMARK    3  A    between atoms: C_5  and  C_11
REMARK    4  A    between atoms: C_11  and  O_12
REMARK    5  A    between atoms: C_14  and  S_15
REMARK    6  A    between atoms: S_15  and  C_21
REMARK    7  A    between atoms: N_20  and  C_25
REMARK                            x       y       z     vdW  Elec       q    Type
REMARK                         _______ _______ _______ _____ _____    ______ ____
ROOT
ATOM      1  C   UNL     1     -38.642  23.721   2.571  0.00  0.00    +0.100 C 
ATOM      2  C   UNL     1     -39.694  22.687   2.195  0.00  0.00    +0.011 C 
ENDROOT
BRANCH   1   9
ATOM      3  O   UNL     1     -37.146  21.870   2.522  0.00  0.00    -0.275 OA
ATOM      4  N   UNL     1     -36.593  23.638   3.909  0.00  0.00    -0.271 N 
ATOM      5  C   UNL     1     -35.278  23.143   4.293  0.00  0.00    +0.174 C 
ATOM      6  C   UNL     1     -34.580  24.344   4.922  0.00  0.00    +0.033 C 
ATOM      7  C   UNL     1     -36.849  24.955   4.485  0.00  0.00    +0.094 C 
ATOM      8  C   UNL     1     -35.734  25.163   5.498  0.00  0.00    +0.024 C 
ATOM      9  C   UNL     1     -37.394  22.983   2.987  0.00  0.00    +0.227 C 
BRANCH   5  11
ATOM     10  O   UNL     1     -35.826  22.202   6.452  0.00  0.00    -0.248 OA
ATOM     11  C   UNL     1     -35.493  22.041   5.287  0.00  0.00    +0.332 C 
BRANCH  11  12
ATOM     12  O   UNL     1     -35.266  20.832   4.719  0.00  0.00    -0.479 OA
ATOM     13  H   UNL     1     -34.854  20.780   3.878  0.00  0.00    +0.295 HD
ENDBRANCH  11  12
ENDBRANCH   5  11
ENDBRANCH   1   9
BRANCH   1  14
ATOM     14  C   UNL     1     -38.293  24.662   1.429  0.00  0.00    +0.160 C 
BRANCH  14  15
ATOM     15  S   UNL     1     -38.935  26.287   1.679  0.00  0.00    -0.002 S 
ATOM     16  O   UNL     1     -39.646  26.306   2.946  0.00  0.00    -0.173 OA
ATOM     17  O   UNL     1     -37.873  27.242   1.413  0.00  0.00    -0.173 OA
BRANCH  15  21
ATOM     18  O   UNL     1     -41.819  24.961   1.273  0.00  0.00    -0.273 OA
ATOM     19  O   UNL     1     -42.018  29.495   0.406  0.00  0.00    -0.274 OA
ATOM     20  N   UNL     1     -42.262  27.234   0.947  0.00  0.00    -0.228 N 
ATOM     21  C   UNL     1     -40.143  26.455   0.385  0.00  0.00    +0.214 C 
ATOM     22  C   UNL     1     -40.284  27.895  -0.089  0.00  0.00    +0.119 C 
ATOM     23  C   UNL     1     -41.502  26.085   0.910  0.00  0.00    +0.254 C 
ATOM     24  C   UNL     1     -41.612  28.342   0.452  0.00  0.00    +0.234 C 
BRANCH  20  25
ATOM     25  C   UNL     1     -43.611  27.292   1.477  0.00  0.00    +0.101 C 
ATOM     26  C   UNL     1     -43.609  27.450   2.984  0.00  0.00    +0.024 C 
ENDBRANCH  20  25
ENDBRANCH  15  21
ENDBRANCH  14  15
ENDBRANCH   1  14
TORSDOF 7
ENDMDL
MODEL 3
REMARK VINA RESULT:      -5.3      3.269      6.505
REMARK  Name = 194813
REMARK  7 active torsions:
REMARK  status: ('A' for Active; 'I' for Inactive)
REMARK    1  A    between atoms: C_1  and  C_9
REMARK    2  A    between atoms: C_1  and  C_14
REMARK    3  A    between atoms: C_5  and  C_11
REMARK    4  A    between atoms: C_11  and  O_12
REMARK    5  A    between atoms: C_14  and  S_15
REMARK    6  A    between atoms: S_15  and  C_21
REMARK    7  A    between atoms: N_20  and  C_25
REMARK                            x       y       z     vdW  Elec       q    Type
REMARK                         _______ _______ _______ _____ _____    ______ ____
ROOT
ATOM      1  C   UNL     1     -34.750  26.170   4.498  0.00  0.00    +0.100 C 
ATOM      2  C   UNL     1     -35.839  25.958   5.539  0.00  0.00    +0.011 C 
ENDROOT
BRANCH   1   9
ATOM      3  O   UNL     1     -33.230  26.395   6.317  0.00  0.00    -0.275 OA
ATOM      4  N   UNL     1     -32.896  27.771   4.486  0.00  0.00    -0.271 N 
ATOM      5  C   UNL     1     -31.636  28.346   4.938  0.00  0.00    +0.174 C 
ATOM      6  C   UNL     1     -31.048  29.013   3.700  0.00  0.00    +0.033 C 
ATOM      7  C   UNL     1     -33.248  28.254   3.154  0.00  0.00    +0.094 C 
ATOM      8  C   UNL     1     -32.282  29.397   2.885  0.00  0.00    +0.024 C 
ATOM      9  C   UNL     1     -33.557  26.778   5.192  0.00  0.00    +0.227 C 
BRANCH   5  11
ATOM     10  O   UNL     1     -32.434  30.456   5.806  0.00  0.00    -0.248 OA
ATOM     11  C   UNL     1     -31.964  29.346   6.006  0.00  0.00    +0.332 C 
BRANCH  11  12
ATOM     12  O   UNL     1     -31.667  28.852   7.232  0.00  0.00    -0.479 OA
ATOM     13  H   UNL     1     -32.354  28.562   7.800  0.00  0.00    +0.295 HD
ENDBRANCH  11  12
ENDBRANCH   5  11
ENDBRANCH   1   9
BRANCH   1  14
ATOM     14  C   UNL     1     -34.312  24.883   3.817  0.00  0.00    +0.160 C 
BRANCH  14  15
ATOM     15  S   UNL     1     -34.983  24.721   2.193  0.00  0.00    -0.002 S 
ATOM     16  O   UNL     1     -35.692  25.947   1.869  0.00  0.00    -0.173 OA
ATOM     17  O   UNL     1     -33.938  24.220   1.317  0.00  0.00    -0.173 OA
BRANCH  15  21
ATOM     18  O   UNL     1     -36.078  22.526   0.138  0.00  0.00    -0.273 OA
ATOM     19  O   UNL     1     -35.135  20.560   4.213  0.00  0.00    -0.274 OA
ATOM     20  N   UNL     1     -35.530  21.233   2.009  0.00  0.00    -0.228 N 
ATOM     21  C   UNL     1     -36.195  23.433   2.374  0.00  0.00    +0.214 C 
ATOM     22  C   UNL     1     -36.083  22.720   3.714  0.00  0.00    +0.119 C 
ATOM     23  C   UNL     1     -35.954  22.364   1.344  0.00  0.00    +0.254 C 
ATOM     24  C   UNL     1     -35.509  21.373   3.378  0.00  0.00    +0.234 C 
BRANCH  20  25
ATOM     25  C   UNL     1     -35.119  20.012   1.342  0.00  0.00    +0.101 C 
ATOM     26  C   UNL     1     -33.661  20.069   0.932  0.00  0.00    +0.024 C 
ENDBRANCH  20  25
ENDBRANCH  15  21
ENDBRANCH  14  15
ENDBRANCH   1  14
TORSDOF 7
ENDMDL
MODEL 4
REMARK VINA RESULT:      -5.3      2.567      4.285
REMARK  Name = 194813
REMARK  7 active torsions:
REMARK  status: ('A' for Active; 'I' for Inactive)
REMARK    1  A    between atoms: C_1  and  C_9
REMARK    2  A    between atoms: C_1  and  C_14
REMARK    3  A    between atoms: C_5  and  C_11
REMARK    4  A    between atoms: C_11  and  O_12
REMARK    5  A    between atoms: C_14  and  S_15
REMARK    6  A    between atoms: S_15  and  C_21
REMARK    7  A    between atoms: N_20  and  C_25
REMARK                            x       y       z     vdW  Elec       q    Type
REMARK                         _______ _______ _______ _____ _____    ______ ____
ROOT
ATOM      1  C   UNL     1     -38.622  23.830   2.608  0.00  0.00    +0.100 C 
ATOM      2  C   UNL     1     -39.712  22.815   2.290  0.00  0.00    +0.011 C 
ENDROOT
BRANCH   1   9
ATOM      3  O   UNL     1     -37.152  21.959   2.529  0.00  0.00    -0.275 OA
ATOM      4  N   UNL     1     -36.570  23.700   3.938  0.00  0.00    -0.271 N 
ATOM      5  C   UNL     1     -35.261  23.181   4.311  0.00  0.00    +0.174 C 
ATOM      6  C   UNL     1     -34.545  24.363   4.955  0.00  0.00    +0.033 C 
ATOM      7  C   UNL     1     -36.806  25.012   4.533  0.00  0.00    +0.094 C 
ATOM      8  C   UNL     1     -35.685  25.189   5.546  0.00  0.00    +0.024 C 
ATOM      9  C   UNL     1     -37.384  23.069   3.010  0.00  0.00    +0.227 C 
BRANCH   5  11
ATOM     10  O   UNL     1     -35.814  22.218   6.459  0.00  0.00    -0.248 OA
ATOM     11  C   UNL     1     -35.489  22.068   5.291  0.00  0.00    +0.332 C 
BRANCH  11  12
ATOM     12  O   UNL     1     -35.282  20.864   4.704  0.00  0.00    -0.479 OA
ATOM     13  H   UNL     1     -35.701  20.661   3.891  0.00  0.00    +0.295 HD
ENDBRANCH  11  12
ENDBRANCH   5  11
ENDBRANCH   1   9
BRANCH   1  14
ATOM     14  C   UNL     1     -38.280  24.730   1.432  0.00  0.00    +0.160 C 
BRANCH  14  15
ATOM     15  S   UNL     1     -38.918  26.364   1.630  0.00  0.00    -0.002 S 
ATOM     16  O   UNL     1     -39.591  26.437   2.915  0.00  0.00    -0.173 OA
ATOM     17  O   UNL     1     -37.866  27.307   1.292  0.00  0.00    -0.173 OA
BRANCH  15  21
ATOM     18  O   UNL     1     -38.798  25.856  -1.528  0.00  0.00    -0.273 OA
ATOM     19  O   UNL     1     -42.519  23.791   0.275  0.00  0.00    -0.274 OA
ATOM     20  N   UNL     1     -40.643  24.570  -0.883  0.00  0.00    -0.228 N 
ATOM     21  C   UNL     1     -40.164  26.475   0.366  0.00  0.00    +0.214 C 
ATOM     22  C   UNL     1     -41.500  25.907   0.822  0.00  0.00    +0.119 C 
ATOM     23  C   UNL     1     -39.765  25.631  -0.813  0.00  0.00    +0.254 C 
ATOM     24  C   UNL     1     -41.638  24.614   0.068  0.00  0.00    +0.234 C 
BRANCH  20  25
ATOM     25  C   UNL     1     -40.529  23.491  -1.845  0.00  0.00    +0.101 C 
ATOM     26  C   UNL     1     -39.573  22.419  -1.364  0.00  0.00    +0.024 C 
ENDBRANCH  20  25
ENDBRANCH  15  21
ENDBRANCH  14  15
ENDBRANCH   1  14
TORSDOF 7
ENDMDL
MODEL 5
REMARK VINA RESULT:      -5.1      2.513      3.257
REMARK  Name = 194813
REMARK  7 active torsions:
REMARK  status: ('A' for Active; 'I' for Inactive)
REMARK    1  A    between atoms: C_1  and  C_9
REMARK    2  A    between atoms: C_1  and  C_14
REMARK    3  A    between atoms: C_5  and  C_11
REMARK    4  A    between atoms: C_11  and  O_12
REMARK    5  A    between atoms: C_14  and  S_15
REMARK    6  A    between atoms: S_15  and  C_21
REMARK    7  A    between atoms: N_20  and  C_25
REMARK                            x       y       z     vdW  Elec       q    Type
REMARK                         _______ _______ _______ _____ _____    ______ ____
ROOT
ATOM      1  C   UNL     1     -38.561  23.852   2.565  0.00  0.00    +0.100 C 
ATOM      2  C   UNL     1     -39.637  22.858   2.152  0.00  0.00    +0.011 C 
ENDROOT
BRANCH   1   9
ATOM      3  O   UNL     1     -37.132  21.947   2.532  0.00  0.00    -0.275 OA
ATOM      4  N   UNL     1     -36.538  23.688   3.936  0.00  0.00    -0.271 N 
ATOM      5  C   UNL     1     -35.248  23.144   4.339  0.00  0.00    +0.174 C 
ATOM      6  C   UNL     1     -34.517  24.316   4.985  0.00  0.00    +0.033 C 
ATOM      7  C   UNL     1     -36.755  25.011   4.514  0.00  0.00    +0.094 C 
ATOM      8  C   UNL     1     -35.650  25.174   5.546  0.00  0.00    +0.024 C 
ATOM      9  C   UNL     1     -37.348  23.067   2.998  0.00  0.00    +0.227 C 
BRANCH   5  11
ATOM     10  O   UNL     1     -35.869  22.215   6.482  0.00  0.00    -0.248 OA
ATOM     11  C   UNL     1     -35.519  22.046   5.324  0.00  0.00    +0.332 C 
BRANCH  11  12
ATOM     12  O   UNL     1     -35.321  20.833   4.755  0.00  0.00    -0.479 OA
ATOM     13  H   UNL     1     -36.049  20.260   4.607  0.00  0.00    +0.295 HD
ENDBRANCH  11  12
ENDBRANCH   5  11
ENDBRANCH   1   9
BRANCH   1  14
ATOM     14  C   UNL     1     -38.155  24.796   1.446  0.00  0.00    +0.160 C 
BRANCH  14  15
ATOM     15  S   UNL     1     -38.907  26.385   1.603  0.00  0.00    -0.002 S 
ATOM     16  O   UNL     1     -39.592  26.440   2.884  0.00  0.00    -0.173 OA
ATOM     17  O   UNL     1     -37.921  27.392   1.249  0.00  0.00    -0.173 OA
BRANCH  15  21
ATOM     18  O   UNL     1     -40.962  28.635   0.626  0.00  0.00    -0.273 OA
ATOM     19  O   UNL     1     -38.935  26.644  -3.018  0.00  0.00    -0.274 OA
ATOM     20  N   UNL     1     -39.981  27.946  -1.382  0.00  0.00    -0.228 N 
ATOM     21  C   UNL     1     -40.150  26.381   0.331  0.00  0.00    +0.214 C 
ATOM     22  C   UNL     1     -39.676  25.681  -0.935  0.00  0.00    +0.119 C 
ATOM     23  C   UNL     1     -40.444  27.793  -0.093  0.00  0.00    +0.254 C 
ATOM     24  C   UNL     1     -39.458  26.792  -1.922  0.00  0.00    +0.234 C 
BRANCH  20  25
ATOM     25  C   UNL     1     -40.012  29.203  -2.106  0.00  0.00    +0.101 C 
ATOM     26  C   UNL     1     -38.770  30.028  -1.838  0.00  0.00    +0.024 C 
ENDBRANCH  20  25
ENDBRANCH  15  21
ENDBRANCH  14  15
ENDBRANCH   1  14
TORSDOF 7
ENDMDL
MODEL 6
REMARK VINA RESULT:      -5.1      3.434      6.547
REMARK  Name = 194813
REMARK  7 active torsions:
REMARK  status: ('A' for Active; 'I' for Inactive)
REMARK    1  A    between atoms: C_1  and  C_9
REMARK    2  A    between atoms: C_1  and  C_14
REMARK    3  A    between atoms: C_5  and  C_11
REMARK    4  A    between atoms: C_11  and  O_12
REMARK    5  A    between atoms: C_14  and  S_15
REMARK    6  A    between atoms: S_15  and  C_21
REMARK    7  A    between atoms: N_20  and  C_25
REMARK                            x       y       z     vdW  Elec       q    Type
REMARK                         _______ _______ _______ _____ _____    ______ ____
ROOT
ATOM      1  C   UNL     1     -37.472  23.713   1.976  0.00  0.00    +0.100 C 
ATOM      2  C   UNL     1     -37.284  24.652   0.793  0.00  0.00    +0.011 C 
ENDROOT
BRANCH   1   9
ATOM      3  O   UNL     1     -37.312  25.609   3.407  0.00  0.00    -0.275 OA
ATOM      4  N   UNL     1     -36.223  23.682   4.082  0.00  0.00    -0.271 N 
ATOM      5  C   UNL     1     -35.825  24.168   5.397  0.00  0.00    +0.174 C 
ATOM      6  C   UNL     1     -35.408  22.918   6.162  0.00  0.00    +0.033 C 
ATOM      7  C   UNL     1     -35.835  22.287   3.896  0.00  0.00    +0.094 C 
ATOM      8  C   UNL     1     -34.910  21.979   5.064  0.00  0.00    +0.024 C 
ATOM      9  C   UNL     1     -37.005  24.431   3.217  0.00  0.00    +0.227 C 
BRANCH   5  11
ATOM     10  O   UNL     1     -33.557  24.774   4.819  0.00  0.00    -0.248 OA
ATOM     11  C   UNL     1     -34.672  25.106   5.192  0.00  0.00    +0.332 C 
BRANCH  11  12
ATOM     12  O   UNL     1     -35.034  26.379   5.479  0.00  0.00    -0.479 OA
ATOM     13  H   UNL     1     -35.780  26.543   6.023  0.00  0.00    +0.295 HD
ENDBRANCH  11  12
ENDBRANCH   5  11
ENDBRANCH   1   9
BRANCH   1  14
ATOM     14  C   UNL     1     -38.917  23.285   2.177  0.00  0.00    +0.160 C 
BRANCH  14  15
ATOM     15  S   UNL     1     -39.230  21.664   1.554  0.00  0.00    -0.002 S 
ATOM     16  O   UNL     1     -37.969  20.943   1.506  0.00  0.00    -0.173 OA
ATOM     17  O   UNL     1     -40.369  21.114   2.269  0.00  0.00    -0.173 OA
BRANCH  15  21
ATOM     18  O   UNL     1     -40.032  19.662  -0.810  0.00  0.00    -0.273 OA
ATOM     19  O   UNL     1     -43.099  23.108  -0.536  0.00  0.00    -0.274 OA
ATOM     20  N   UNL     1     -41.824  21.166  -0.797  0.00  0.00    -0.228 N 
ATOM     21  C   UNL     1     -39.742  21.959  -0.123  0.00  0.00    +0.214 C 
ATOM     22  C   UNL     1     -40.707  23.131  -0.233  0.00  0.00    +0.119 C 
ATOM     23  C   UNL     1     -40.513  20.773  -0.633  0.00  0.00    +0.254 C 
ATOM     24  C   UNL     1     -42.038  22.498  -0.523  0.00  0.00    +0.234 C 
BRANCH  20  25
ATOM     25  C   UNL     1     -42.890  20.269  -1.198  0.00  0.00    +0.101 C 
ATOM     26  C   UNL     1     -43.052  20.239  -2.704  0.00  0.00    +0.024 C 
ENDBRANCH  20  25
ENDBRANCH  15  21
ENDBRANCH  14  15
ENDBRANCH   1  14
TORSDOF 7
ENDMDL
MODEL 7
REMARK VINA RESULT:      -5.1      3.187      7.178
REMARK  Name = 194813
REMARK  7 active torsions:
REMARK  status: ('A' for Active; 'I' for Inactive)
REMARK    1  A    between atoms: C_1  and  C_9
REMARK    2  A    between atoms: C_1  and  C_14
REMARK    3  A    between atoms: C_5  and  C_11
REMARK    4  A    between atoms: C_11  and  O_12
REMARK    5  A    between atoms: C_14  and  S_15
REMARK    6  A    between atoms: S_15  and  C_21
REMARK    7  A    between atoms: N_20  and  C_25
REMARK                            x       y       z     vdW  Elec       q    Type
REMARK                         _______ _______ _______ _____ _____    ______ ____
ROOT
ATOM      1  C   UNL     1     -33.887  27.306   2.907  0.00  0.00    +0.100 C 
ATOM      2  C   UNL     1     -34.056  27.161   1.402  0.00  0.00    +0.011 C 
ENDROOT
BRANCH   1   9
ATOM      3  O   UNL     1     -34.688  29.546   2.805  0.00  0.00    -0.275 OA
ATOM      4  N   UNL     1     -32.738  29.176   3.995  0.00  0.00    -0.271 N 
ATOM      5  C   UNL     1     -32.609  30.526   4.527  0.00  0.00    +0.174 C 
ATOM      6  C   UNL     1     -31.581  30.405   5.646  0.00  0.00    +0.033 C 
ATOM      7  C   UNL     1     -31.690  28.302   4.515  0.00  0.00    +0.094 C 
ATOM      8  C   UNL     1     -30.704  29.238   5.197  0.00  0.00    +0.024 C 
ATOM      9  C   UNL     1     -33.821  28.779   3.226  0.00  0.00    +0.227 C 
BRANCH   5  11
ATOM     10  O   UNL     1     -30.953  31.472   3.041  0.00  0.00    -0.248 OA
ATOM     11  C   UNL     1     -32.115  31.396   3.410  0.00  0.00    +0.332 C 
BRANCH  11  12
ATOM     12  O   UNL     1     -33.138  32.096   2.860  0.00  0.00    -0.479 OA
ATOM     13  H   UNL     1     -33.864  32.360   3.391  0.00  0.00    +0.295 HD
ENDBRANCH  11  12
ENDBRANCH   5  11
ENDBRANCH   1   9
BRANCH   1  14
ATOM     14  C   UNL     1     -35.027  26.688   3.700  0.00  0.00    +0.160 C 
BRANCH  14  15
ATOM     15  S   UNL     1     -34.453  25.583   4.950  0.00  0.00    -0.002 S 
ATOM     16  O   UNL     1     -33.357  24.803   4.401  0.00  0.00    -0.173 OA
ATOM     17  O   UNL     1     -34.279  26.337   6.180  0.00  0.00    -0.173 OA
BRANCH  15  21
ATOM     18  O   UNL     1     -36.791  24.638   2.980  0.00  0.00    -0.273 OA
ATOM     19  O   UNL     1     -35.031  20.998   5.218  0.00  0.00    -0.274 OA
ATOM     20  N   UNL     1     -35.990  22.606   3.818  0.00  0.00    -0.228 N 
ATOM     21  C   UNL     1     -35.828  24.480   5.188  0.00  0.00    +0.214 C 
ATOM     22  C   UNL     1     -35.444  23.245   5.990  0.00  0.00    +0.119 C 
ATOM     23  C   UNL     1     -36.289  23.951   3.858  0.00  0.00    +0.254 C 
ATOM     24  C   UNL     1     -35.436  22.129   4.985  0.00  0.00    +0.234 C 
BRANCH  20  25
ATOM     25  C   UNL     1     -36.211  21.766   2.657  0.00  0.00    +0.101 C 
ATOM     26  C   UNL     1     -35.003  21.755   1.742  0.00  0.00    +0.024 C 
ENDBRANCH  20  25
ENDBRANCH  15  21
ENDBRANCH  14  15
ENDBRANCH   1  14
TORSDOF 7
ENDMDL
MODEL 8
REMARK VINA RESULT:      -5.1      3.160      6.442
REMARK  Name = 194813
REMARK  7 active torsions:
REMARK  status: ('A' for Active; 'I' for Inactive)
REMARK    1  A    between atoms: C_1  and  C_9
REMARK    2  A    between atoms: C_1  and  C_14
REMARK    3  A    between atoms: C_5  and  C_11
REMARK    4  A    between atoms: C_11  and  O_12
REMARK    5  A    between atoms: C_14  and  S_15
REMARK    6  A    between atoms: S_15  and  C_21
REMARK    7  A    between atoms: N_20  and  C_25
REMARK                            x       y       z     vdW  Elec       q    Type
REMARK                         _______ _______ _______ _____ _____    ______ ____
ROOT
ATOM      1  C   UNL     1     -34.511  26.161   4.636  0.00  0.00    +0.100 C 
ATOM      2  C   UNL     1     -35.604  25.926   5.669  0.00  0.00    +0.011 C 
ENDROOT
BRANCH   1   9
ATOM      3  O   UNL     1     -33.048  26.538   6.476  0.00  0.00    -0.275 OA
ATOM      4  N   UNL     1     -32.724  27.834   4.587  0.00  0.00    -0.271 N 
ATOM      5  C   UNL     1     -31.499  28.482   5.038  0.00  0.00    +0.174 C 
ATOM      6  C   UNL     1     -30.908  29.111   3.781  0.00  0.00    +0.033 C 
ATOM      7  C   UNL     1     -33.061  28.236   3.224  0.00  0.00    +0.094 C 
ATOM      8  C   UNL     1     -32.135  29.403   2.920  0.00  0.00    +0.024 C 
ATOM      9  C   UNL     1     -33.361  26.851   5.327  0.00  0.00    +0.227 C 
BRANCH   5  11
ATOM     10  O   UNL     1     -32.447  30.577   5.785  0.00  0.00    -0.248 OA
ATOM     11  C   UNL     1     -31.894  29.520   6.046  0.00  0.00    +0.332 C 
BRANCH  11  12
ATOM     12  O   UNL     1     -31.551  29.126   7.297  0.00  0.00    -0.479 OA
ATOM     13  H   UNL     1     -31.864  28.308   7.633  0.00  0.00    +0.295 HD
ENDBRANCH  11  12
ENDBRANCH   5  11
ENDBRANCH   1   9
BRANCH   1  14
ATOM     14  C   UNL     1     -33.999  24.877   4.004  0.00  0.00    +0.160 C 
BRANCH  14  15
ATOM     15  S   UNL     1     -34.746  24.555   2.438  0.00  0.00    -0.002 S 
ATOM     16  O   UNL     1     -35.983  25.314   2.360  0.00  0.00    -0.173 OA
ATOM     17  O   UNL     1     -33.728  24.694   1.411  0.00  0.00    -0.173 OA
BRANCH  15  21
ATOM     18  O   UNL     1     -36.942  23.006   4.175  0.00  0.00    -0.273 OA
ATOM     19  O   UNL     1     -37.075  21.560  -0.212  0.00  0.00    -0.274 OA
ATOM     20  N   UNL     1     -37.361  22.213   2.014  0.00  0.00    -0.228 N 
ATOM     21  C   UNL     1     -35.179  22.833   2.534  0.00  0.00    +0.214 C 
ATOM     22  C   UNL     1     -35.192  22.165   1.167  0.00  0.00    +0.119 C 
ATOM     23  C   UNL     1     -36.585  22.693   3.048  0.00  0.00    +0.254 C 
ATOM     24  C   UNL     1     -36.647  21.945   0.867  0.00  0.00    +0.234 C 
BRANCH  20  25
ATOM     25  C   UNL     1     -38.796  22.024   2.104  0.00  0.00    +0.101 C 
ATOM     26  C   UNL     1     -39.544  23.295   1.758  0.00  0.00    +0.024 C 
ENDBRANCH  20  25
ENDBRANCH  15  21
ENDBRANCH  14  15
ENDBRANCH   1  14
TORSDOF 7
ENDMDL
MODEL 9
REMARK VINA RESULT:      -5.1      3.277      4.796
REMARK  Name = 194813
REMARK  7 active torsions:
REMARK  status: ('A' for Active; 'I' for Inactive)
REMARK    1  A    between atoms: C_1  and  C_9
REMARK    2  A    between atoms: C_1  and  C_14
REMARK    3  A    between atoms: C_5  and  C_11
REMARK    4  A    between atoms: C_11  and  O_12
REMARK    5  A    between atoms: C_14  and  S_15
REMARK    6  A    between atoms: S_15  and  C_21
REMARK    7  A    between atoms: N_20  and  C_25
REMARK                            x       y       z     vdW  Elec       q    Type
REMARK                         _______ _______ _______ _____ _____    ______ ____
ROOT
ATOM      1  C   UNL     1     -34.885  26.069   2.687  0.00  0.00    +0.100 C 
ATOM      2  C   UNL     1     -36.084  26.950   2.365  0.00  0.00    +0.011 C 
ENDROOT
BRANCH   1   9
ATOM      3  O   UNL     1     -35.443  24.266   1.236  0.00  0.00    -0.275 OA
ATOM      4  N   UNL     1     -35.412  23.823   3.508  0.00  0.00    -0.271 N 
ATOM      5  C   UNL     1     -35.618  22.385   3.399  0.00  0.00    +0.174 C 
ATOM      6  C   UNL     1     -35.260  21.837   4.776  0.00  0.00    +0.033 C 
ATOM      7  C   UNL     1     -35.215  24.224   4.898  0.00  0.00    +0.094 C 
ATOM      8  C   UNL     1     -35.588  22.996   5.715  0.00  0.00    +0.024 C 
ATOM      9  C   UNL     1     -35.269  24.640   2.397  0.00  0.00    +0.227 C 
BRANCH   5  11
ATOM     10  O   UNL     1     -37.944  23.010   3.192  0.00  0.00    -0.248 OA
ATOM     11  C   UNL     1     -37.066  22.169   3.074  0.00  0.00    +0.332 C 
BRANCH  11  12
ATOM     12  O   UNL     1     -37.274  20.906   2.630  0.00  0.00    -0.479 OA
ATOM     13  H   UNL     1     -37.600  20.250   3.216  0.00  0.00    +0.295 HD
ENDBRANCH  11  12
ENDBRANCH   5  11
ENDBRANCH   1   9
BRANCH   1  14
ATOM     14  C   UNL     1     -33.651  26.417   1.871  0.00  0.00    +0.160 C 
BRANCH  14  15
ATOM     15  S   UNL     1     -32.234  26.699   2.885  0.00  0.00    -0.002 S 
ATOM     16  O   UNL     1     -32.627  26.532   4.274  0.00  0.00    -0.173 OA
ATOM     17  O   UNL     1     -31.123  25.942   2.335  0.00  0.00    -0.173 OA
BRANCH  15  21
ATOM     18  O   UNL     1     -33.716  29.345   3.906  0.00  0.00    -0.273 OA
ATOM     19  O   UNL     1     -29.153  29.741   4.521  0.00  0.00    -0.274 OA
ATOM     20  N   UNL     1     -31.491  29.757   4.498  0.00  0.00    -0.228 N 
ATOM     21  C   UNL     1     -31.884  28.424   2.631  0.00  0.00    +0.214 C 
ATOM     22  C   UNL     1     -30.395  28.729   2.718  0.00  0.00    +0.119 C 
ATOM     23  C   UNL     1     -32.511  29.235   3.732  0.00  0.00    +0.254 C 
ATOM     24  C   UNL     1     -30.234  29.456   4.023  0.00  0.00    +0.234 C 
BRANCH  20  25
ATOM     25  C   UNL     1     -31.705  30.531   5.706  0.00  0.00    +0.101 C 
ATOM     26  C   UNL     1     -31.697  29.649   6.938  0.00  0.00    +0.024 C 
ENDBRANCH  20  25
ENDBRANCH  15  21
ENDBRANCH  14  15
ENDBRANCH   1  14
TORSDOF 7
ENDMDL
