MODEL 1
REMARK VINA RESULT:      -5.9      0.000      0.000
REMARK  Name = 511885
REMARK  5 active torsions:
REMARK  status: ('A' for Active; 'I' for Inactive)
REMARK    1  A    between atoms: C_6  and  C_15
REMARK    2  A    between atoms: C_16  and  O_19
REMARK    3  A    between atoms: C_17  and  O_21
REMARK    4  A    between atoms: C_18  and  C_23
REMARK    5  A    between atoms: C_23  and  O_24
REMARK                            x       y       z     vdW  Elec       q    Type
REMARK                         _______ _______ _______ _____ _____    ______ ____
ROOT
ATOM      1  N   UNL     1     -35.607  22.131   4.797  0.00  0.00    -0.224 N 
ATOM      2  N   UNL     1     -35.116  21.034   4.185  0.00  0.00    -0.178 NA
ATOM      3  N   UNL     1     -36.241  23.111   1.521  0.00  0.00    -0.245 NA
ATOM      4  N   UNL     1     -35.299  21.025   0.542  0.00  0.00    -0.229 NA
ATOM      5  N   UNL     1     -34.375  19.225   1.858  0.00  0.00    -0.342 N 
ATOM      6  C   UNL     1     -36.101  23.079   3.952  0.00  0.00    +0.162 C 
ATOM      7  C   UNL     1     -35.915  22.555   2.708  0.00  0.00    +0.100 C 
ATOM      8  C   UNL     1     -35.295  21.269   2.873  0.00  0.00    +0.144 C 
ATOM      9  C   UNL     1     -35.564  22.200   6.240  0.00  0.00    +0.134 C 
ATOM     10  C   UNL     1     -34.981  20.487   1.753  0.00  0.00    +0.143 C 
ATOM     11  C   UNL     1     -35.890  22.264   0.508  0.00  0.00    +0.252 C 
ATOM     12  H   UNL     1     -34.171  18.708   1.046  0.00  0.00    +0.144 HD
ATOM     13  H   UNL     1     -34.154  18.857   2.745  0.00  0.00    +0.144 HD
ENDROOT
BRANCH   6  15
ATOM     14  O   UNL     1     -38.018  24.523   3.855  0.00  0.00    -0.349 OA
ATOM     15  C   UNL     1     -36.697  24.386   4.426  0.00  0.00    +0.170 C 
ATOM     16  C   UNL     1     -35.888  25.613   4.003  0.00  0.00    +0.169 C 
ATOM     17  C   UNL     1     -36.679  26.157   2.827  0.00  0.00    +0.169 C 
ATOM     18  C   UNL     1     -38.107  25.805   3.210  0.00  0.00    +0.174 C 
BRANCH  16  19
ATOM     19  O   UNL     1     -35.859  26.549   5.080  0.00  0.00    -0.379 OA
ATOM     20  H   UNL     1     -35.095  26.362   5.649  0.00  0.00    +0.211 HD
ENDBRANCH  16  19
BRANCH  17  21
ATOM     21  O   UNL     1     -36.482  27.542   2.637  0.00  0.00    -0.379 OA
ATOM     22  H   UNL     1     -37.044  27.852   1.910  0.00  0.00    +0.211 HD
ENDBRANCH  17  21
BRANCH  18  23
ATOM     23  C   UNL     1     -39.050  25.714   2.025  0.00  0.00    +0.169 C 
BRANCH  23  24
ATOM     24  O   UNL     1     -39.179  27.002   1.447  0.00  0.00    -0.379 OA
ATOM     25  H   UNL     1     -40.119  27.203   1.313  0.00  0.00    +0.211 HD
ENDBRANCH  23  24
ENDBRANCH  18  23
ENDBRANCH   6  15
TORSDOF 5
ENDMDL
MODEL 2
REMARK VINA RESULT:      -5.7      3.756      6.220
REMARK  Name = 511885
REMARK  5 active torsions:
REMARK  status: ('A' for Active; 'I' for Inactive)
REMARK    1  A    between atoms: C_6  and  C_15
REMARK    2  A    between atoms: C_16  and  O_19
REMARK    3  A    between atoms: C_17  and  O_21
REMARK    4  A    between atoms: C_18  and  C_23
REMARK    5  A    between atoms: C_23  and  O_24
REMARK                            x       y       z     vdW  Elec       q    Type
REMARK                         _______ _______ _______ _____ _____    ______ ____
ROOT
ATOM      1  N   UNL     1     -34.941  26.583   3.104  0.00  0.00    -0.224 N 
ATOM      2  N   UNL     1     -33.881  27.399   2.936  0.00  0.00    -0.178 NA
ATOM      3  N   UNL     1     -33.735  26.445   6.363  0.00  0.00    -0.245 NA
ATOM      4  N   UNL     1     -31.824  27.969   5.894  0.00  0.00    -0.229 NA
ATOM      5  N   UNL     1     -31.391  28.950   3.731  0.00  0.00    -0.342 N 
ATOM      6  C   UNL     1     -35.084  26.089   4.366  0.00  0.00    +0.162 C 
ATOM      7  C   UNL     1     -34.041  26.627   5.060  0.00  0.00    +0.100 C 
ATOM      8  C   UNL     1     -33.295  27.447   4.146  0.00  0.00    +0.144 C 
ATOM      9  C   UNL     1     -35.798  26.314   1.972  0.00  0.00    +0.134 C 
ATOM     10  C   UNL     1     -32.156  28.136   4.583  0.00  0.00    +0.143 C 
ATOM     11  C   UNL     1     -32.613  27.159   6.673  0.00  0.00    +0.252 C 
ATOM     12  H   UNL     1     -30.597  29.417   4.079  0.00  0.00    +0.144 HD
ATOM     13  H   UNL     1     -31.651  29.055   2.787  0.00  0.00    +0.144 HD
ENDROOT
BRANCH   6  15
ATOM     14  O   UNL     1     -35.715  24.279   5.813  0.00  0.00    -0.349 OA
ATOM     15  C   UNL     1     -36.202  25.156   4.773  0.00  0.00    +0.170 C 
ATOM     16  C   UNL     1     -36.702  24.272   3.628  0.00  0.00    +0.169 C 
ATOM     17  C   UNL     1     -36.042  22.936   3.913  0.00  0.00    +0.169 C 
ATOM     18  C   UNL     1     -35.991  22.920   5.432  0.00  0.00    +0.174 C 
BRANCH  16  19
ATOM     19  O   UNL     1     -38.124  24.170   3.703  0.00  0.00    -0.379 OA
ATOM     20  H   UNL     1     -38.513  25.059   3.688  0.00  0.00    +0.211 HD
ENDBRANCH  16  19
BRANCH  17  21
ATOM     21  O   UNL     1     -36.765  21.849   3.374  0.00  0.00    -0.379 OA
ATOM     22  H   UNL     1     -37.700  22.093   3.289  0.00  0.00    +0.211 HD
ENDBRANCH  17  21
BRANCH  18  23
ATOM     23  C   UNL     1     -34.918  22.006   5.995  0.00  0.00    +0.169 C 
BRANCH  23  24
ATOM     24  O   UNL     1     -35.261  20.664   5.695  0.00  0.00    -0.379 OA
ATOM     25  H   UNL     1     -34.746  20.065   6.258  0.00  0.00    +0.211 HD
ENDBRANCH  23  24
ENDBRANCH  18  23
ENDBRANCH   6  15
TORSDOF 5
ENDMDL
MODEL 3
REMARK VINA RESULT:      -5.6      3.075      5.318
REMARK  Name = 511885
REMARK  5 active torsions:
REMARK  status: ('A' for Active; 'I' for Inactive)
REMARK    1  A    between atoms: C_6  and  C_15
REMARK    2  A    between atoms: C_16  and  O_19
REMARK    3  A    between atoms: C_17  and  O_21
REMARK    4  A    between atoms: C_18  and  C_23
REMARK    5  A    between atoms: C_23  and  O_24
REMARK                            x       y       z     vdW  Elec       q    Type
REMARK                         _______ _______ _______ _____ _____    ______ ____
ROOT
ATOM      1  N   UNL     1     -37.069  25.714   2.585  0.00  0.00    -0.224 N 
ATOM      2  N   UNL     1     -38.305  26.087   2.194  0.00  0.00    -0.178 NA
ATOM      3  N   UNL     1     -38.444  22.531   2.311  0.00  0.00    -0.245 NA
ATOM      4  N   UNL     1     -40.673  23.379   1.598  0.00  0.00    -0.229 NA
ATOM      5  N   UNL     1     -41.196  25.720   1.334  0.00  0.00    -0.342 N 
ATOM      6  C   UNL     1     -36.892  24.368   2.699  0.00  0.00    +0.162 C 
ATOM      7  C   UNL     1     -38.100  23.837   2.358  0.00  0.00    +0.100 C 
ATOM      8  C   UNL     1     -38.976  24.931   2.043  0.00  0.00    +0.144 C 
ATOM      9  C   UNL     1     -36.082  26.738   2.839  0.00  0.00    +0.134 C 
ATOM     10  C   UNL     1     -40.299  24.687   1.652  0.00  0.00    +0.143 C 
ATOM     11  C   UNL     1     -39.748  22.416   1.921  0.00  0.00    +0.252 C 
ATOM     12  H   UNL     1     -42.118  25.505   1.064  0.00  0.00    +0.144 HD
ATOM     13  H   UNL     1     -40.902  26.659   1.381  0.00  0.00    +0.144 HD
ENDROOT
BRANCH   6  15
ATOM     14  O   UNL     1     -35.280  22.655   2.212  0.00  0.00    -0.349 OA
ATOM     15  C   UNL     1     -35.586  23.734   3.124  0.00  0.00    +0.170 C 
ATOM     16  C   UNL     1     -35.629  23.141   4.534  0.00  0.00    +0.169 C 
ATOM     17  C   UNL     1     -35.788  21.653   4.275  0.00  0.00    +0.169 C 
ATOM     18  C   UNL     1     -35.016  21.468   2.979  0.00  0.00    +0.174 C 
BRANCH  16  19
ATOM     19  O   UNL     1     -34.395  23.419   5.196  0.00  0.00    -0.379 OA
ATOM     20  H   UNL     1     -33.731  23.688   4.541  0.00  0.00    +0.211 HD
ENDBRANCH  16  19
BRANCH  17  21
ATOM     21  O   UNL     1     -35.288  20.864   5.334  0.00  0.00    -0.379 OA
ATOM     22  H   UNL     1     -35.863  20.960   6.109  0.00  0.00    +0.211 HD
ENDBRANCH  17  21
BRANCH  18  23
ATOM     23  C   UNL     1     -35.442  20.246   2.187  0.00  0.00    +0.169 C 
BRANCH  23  24
ATOM     24  O   UNL     1     -36.711  19.822   2.654  0.00  0.00    -0.379 OA
ATOM     25  H   UNL     1     -37.368  19.928   1.948  0.00  0.00    +0.211 HD
ENDBRANCH  23  24
ENDBRANCH  18  23
ENDBRANCH   6  15
TORSDOF 5
ENDMDL
MODEL 4
REMARK VINA RESULT:      -5.5      3.241      5.430
REMARK  Name = 511885
REMARK  5 active torsions:
REMARK  status: ('A' for Active; 'I' for Inactive)
REMARK    1  A    between atoms: C_6  and  C_15
REMARK    2  A    between atoms: C_16  and  O_19
REMARK    3  A    between atoms: C_17  and  O_21
REMARK    4  A    between atoms: C_18  and  C_23
REMARK    5  A    between atoms: C_23  and  O_24
REMARK                            x       y       z     vdW  Elec       q    Type
REMARK                         _______ _______ _______ _____ _____    ______ ____
ROOT
ATOM      1  N   UNL     1     -33.722  24.736   1.654  0.00  0.00    -0.224 N 
ATOM      2  N   UNL     1     -33.351  25.678   2.545  0.00  0.00    -0.178 NA
ATOM      3  N   UNL     1     -36.097  24.022   4.092  0.00  0.00    -0.245 NA
ATOM      4  N   UNL     1     -35.293  25.807   5.629  0.00  0.00    -0.229 NA
ATOM      5  N   UNL     1     -33.445  27.276   5.129  0.00  0.00    -0.342 N 
ATOM      6  C   UNL     1     -34.776  23.968   2.046  0.00  0.00    +0.162 C 
ATOM      7  C   UNL     1     -35.108  24.450   3.277  0.00  0.00    +0.100 C 
ATOM      8  C   UNL     1     -34.202  25.524   3.575  0.00  0.00    +0.144 C 
ATOM      9  C   UNL     1     -32.994  24.631   0.411  0.00  0.00    +0.134 C 
ATOM     10  C   UNL     1     -34.304  26.219   4.788  0.00  0.00    +0.143 C 
ATOM     11  C   UNL     1     -36.100  24.767   5.237  0.00  0.00    +0.252 C 
ATOM     12  H   UNL     1     -33.551  27.737   5.992  0.00  0.00    +0.144 HD
ATOM     13  H   UNL     1     -32.737  27.555   4.504  0.00  0.00    +0.144 HD
ENDROOT
BRANCH   6  15
ATOM     14  O   UNL     1     -36.783  23.044   1.102  0.00  0.00    -0.349 OA
ATOM     15  C   UNL     1     -35.354  22.855   1.201  0.00  0.00    +0.170 C 
ATOM     16  C   UNL     1     -35.118  21.461   1.787  0.00  0.00    +0.169 C 
ATOM     17  C   UNL     1     -36.459  21.121   2.412  0.00  0.00    +0.169 C 
ATOM     18  C   UNL     1     -37.434  21.818   1.479  0.00  0.00    +0.174 C 
BRANCH  16  19
ATOM     19  O   UNL     1     -34.798  20.557   0.731  0.00  0.00    -0.379 OA
ATOM     20  H   UNL     1     -33.834  20.483   0.650  0.00  0.00    +0.211 HD
ENDBRANCH  16  19
BRANCH  17  21
ATOM     21  O   UNL     1     -36.677  19.729   2.499  0.00  0.00    -0.379 OA
ATOM     22  H   UNL     1     -37.588  19.527   2.235  0.00  0.00    +0.211 HD
ENDBRANCH  17  21
BRANCH  18  23
ATOM     23  C   UNL     1     -38.773  22.131   2.121  0.00  0.00    +0.169 C 
BRANCH  23  24
ATOM     24  O   UNL     1     -39.488  20.919   2.294  0.00  0.00    -0.379 OA
ATOM     25  H   UNL     1     -39.063  20.217   1.776  0.00  0.00    +0.211 HD
ENDBRANCH  23  24
ENDBRANCH  18  23
ENDBRANCH   6  15
TORSDOF 5
ENDMDL
MODEL 5
REMARK VINA RESULT:      -5.5      3.272      5.945
REMARK  Name = 511885
REMARK  5 active torsions:
REMARK  status: ('A' for Active; 'I' for Inactive)
REMARK    1  A    between atoms: C_6  and  C_15
REMARK    2  A    between atoms: C_16  and  O_19
REMARK    3  A    between atoms: C_17  and  O_21
REMARK    4  A    between atoms: C_18  and  C_23
REMARK    5  A    between atoms: C_23  and  O_24
REMARK                            x       y       z     vdW  Elec       q    Type
REMARK                         _______ _______ _______ _____ _____    ______ ____
ROOT
ATOM      1  N   UNL     1     -37.172  26.164   2.176  0.00  0.00    -0.224 N 
ATOM      2  N   UNL     1     -36.511  27.300   1.872  0.00  0.00    -0.178 NA
ATOM      3  N   UNL     1     -34.618  25.849   4.514  0.00  0.00    -0.245 NA
ATOM      4  N   UNL     1     -33.513  27.974   3.836  0.00  0.00    -0.229 NA
ATOM      5  N   UNL     1     -34.337  29.413   2.083  0.00  0.00    -0.342 N 
ATOM      6  C   UNL     1     -36.613  25.434   3.180  0.00  0.00    +0.162 C 
ATOM      7  C   UNL     1     -35.514  26.151   3.549  0.00  0.00    +0.100 C 
ATOM      8  C   UNL     1     -35.465  27.320   2.717  0.00  0.00    +0.144 C 
ATOM      9  C   UNL     1     -38.369  25.837   1.434  0.00  0.00    +0.134 C 
ATOM     10  C   UNL     1     -34.432  28.255   2.871  0.00  0.00    +0.143 C 
ATOM     11  C   UNL     1     -33.663  26.823   4.572  0.00  0.00    +0.252 C 
ATOM     12  H   UNL     1     -33.595  30.044   2.224  0.00  0.00    +0.144 HD
ATOM     13  H   UNL     1     -35.014  29.594   1.391  0.00  0.00    +0.144 HD
ENDROOT
BRANCH   6  15
ATOM     14  O   UNL     1     -36.722  23.903   5.028  0.00  0.00    -0.349 OA
ATOM     15  C   UNL     1     -37.190  24.128   3.680  0.00  0.00    +0.170 C 
ATOM     16  C   UNL     1     -36.769  22.918   2.843  0.00  0.00    +0.169 C 
ATOM     17  C   UNL     1     -35.680  22.280   3.686  0.00  0.00    +0.169 C 
ATOM     18  C   UNL     1     -36.148  22.587   5.100  0.00  0.00    +0.174 C 
BRANCH  16  19
ATOM     19  O   UNL     1     -37.885  22.041   2.695  0.00  0.00    -0.379 OA
ATOM     20  H   UNL     1     -38.375  22.275   1.891  0.00  0.00    +0.211 HD
ENDBRANCH  16  19
BRANCH  17  21
ATOM     21  O   UNL     1     -35.544  20.898   3.438  0.00  0.00    -0.379 OA
ATOM     22  H   UNL     1     -35.117  20.472   4.198  0.00  0.00    +0.211 HD
ENDBRANCH  17  21
BRANCH  18  23
ATOM     23  C   UNL     1     -35.029  22.575   6.126  0.00  0.00    +0.169 C 
BRANCH  23  24
ATOM     24  O   UNL     1     -34.509  21.261   6.215  0.00  0.00    -0.379 OA
ATOM     25  H   UNL     1     -33.903  21.101   5.474  0.00  0.00    +0.211 HD
ENDBRANCH  23  24
ENDBRANCH  18  23
ENDBRANCH   6  15
TORSDOF 5
ENDMDL
MODEL 6
REMARK VINA RESULT:      -5.4      1.794      3.565
REMARK  Name = 511885
REMARK  5 active torsions:
REMARK  status: ('A' for Active; 'I' for Inactive)
REMARK    1  A    between atoms: C_6  and  C_15
REMARK    2  A    between atoms: C_16  and  O_19
REMARK    3  A    between atoms: C_17  and  O_21
REMARK    4  A    between atoms: C_18  and  C_23
REMARK    5  A    between atoms: C_23  and  O_24
REMARK                            x       y       z     vdW  Elec       q    Type
REMARK                         _______ _______ _______ _____ _____    ______ ____
ROOT
ATOM      1  N   UNL     1     -38.062  23.124   0.701  0.00  0.00    -0.224 N 
ATOM      2  N   UNL     1     -37.916  21.793   0.542  0.00  0.00    -0.178 NA
ATOM      3  N   UNL     1     -35.725  22.614   3.225  0.00  0.00    -0.245 NA
ATOM      4  N   UNL     1     -35.567  20.165   2.808  0.00  0.00    -0.229 NA
ATOM      5  N   UNL     1     -36.825  19.012   1.102  0.00  0.00    -0.342 N 
ATOM      6  C   UNL     1     -37.302  23.664   1.694  0.00  0.00    +0.162 C 
ATOM      7  C   UNL     1     -36.619  22.604   2.211  0.00  0.00    +0.100 C 
ATOM      8  C   UNL     1     -37.016  21.436   1.476  0.00  0.00    +0.144 C 
ATOM      9  C   UNL     1     -38.978  23.831  -0.165  0.00  0.00    +0.134 C 
ATOM     10  C   UNL     1     -36.470  20.184   1.788  0.00  0.00    +0.143 C 
ATOM     11  C   UNL     1     -35.264  21.347   3.440  0.00  0.00    +0.252 C 
ATOM     12  H   UNL     1     -36.418  18.152   1.353  0.00  0.00    +0.144 HD
ATOM     13  H   UNL     1     -37.481  19.051   0.368  0.00  0.00    +0.144 HD
ENDROOT
BRANCH   6  15
ATOM     14  O   UNL     1     -35.964  25.645   1.930  0.00  0.00    -0.349 OA
ATOM     15  C   UNL     1     -37.312  25.136   2.042  0.00  0.00    +0.170 C 
ATOM     16  C   UNL     1     -37.789  25.420   3.467  0.00  0.00    +0.169 C 
ATOM     17  C   UNL     1     -36.495  25.676   4.218  0.00  0.00    +0.169 C 
ATOM     18  C   UNL     1     -35.628  26.325   3.152  0.00  0.00    +0.174 C 
BRANCH  16  19
ATOM     19  O   UNL     1     -38.618  26.582   3.460  0.00  0.00    -0.379 OA
ATOM     20  H   UNL     1     -39.168  26.592   4.259  0.00  0.00    +0.211 HD
ENDBRANCH  16  19
BRANCH  17  21
ATOM     21  O   UNL     1     -36.681  26.496   5.352  0.00  0.00    -0.379 OA
ATOM     22  H   UNL     1     -37.531  26.958   5.282  0.00  0.00    +0.211 HD
ENDBRANCH  17  21
BRANCH  18  23
ATOM     23  C   UNL     1     -34.139  26.192   3.415  0.00  0.00    +0.169 C 
BRANCH  23  24
ATOM     24  O   UNL     1     -33.928  25.094   4.285  0.00  0.00    -0.379 OA
ATOM     25  H   UNL     1     -34.119  25.362   5.197  0.00  0.00    +0.211 HD
ENDBRANCH  23  24
ENDBRANCH  18  23
ENDBRANCH   6  15
TORSDOF 5
ENDMDL
MODEL 7
REMARK VINA RESULT:      -5.4      2.204      4.081
REMARK  Name = 511885
REMARK  5 active torsions:
REMARK  status: ('A' for Active; 'I' for Inactive)
REMARK    1  A    between atoms: C_6  and  C_15
REMARK    2  A    between atoms: C_16  and  O_19
REMARK    3  A    between atoms: C_17  and  O_21
REMARK    4  A    between atoms: C_18  and  C_23
REMARK    5  A    between atoms: C_23  and  O_24
REMARK                            x       y       z     vdW  Elec       q    Type
REMARK                         _______ _______ _______ _____ _____    ______ ____
ROOT
ATOM      1  N   UNL     1     -36.501  21.079   2.261  0.00  0.00    -0.224 N 
ATOM      2  N   UNL     1     -35.761  20.864   3.368  0.00  0.00    -0.178 NA
ATOM      3  N   UNL     1     -37.070  24.146   3.799  0.00  0.00    -0.245 NA
ATOM      4  N   UNL     1     -35.668  23.597   5.781  0.00  0.00    -0.229 NA
ATOM      5  N   UNL     1     -34.509  21.499   6.063  0.00  0.00    -0.342 N 
ATOM      6  C   UNL     1     -37.107  22.298   2.213  0.00  0.00    +0.162 C 
ATOM      7  C   UNL     1     -36.731  22.910   3.371  0.00  0.00    +0.100 C 
ATOM      8  C   UNL     1     -35.885  21.995   4.085  0.00  0.00    +0.144 C 
ATOM      9  C   UNL     1     -36.581  20.036   1.264  0.00  0.00    +0.134 C 
ATOM     10  C   UNL     1     -35.341  22.355   5.324  0.00  0.00    +0.143 C 
ATOM     11  C   UNL     1     -36.486  24.386   5.010  0.00  0.00    +0.252 C 
ATOM     12  H   UNL     1     -34.147  21.791   6.931  0.00  0.00    +0.144 HD
ATOM     13  H   UNL     1     -34.287  20.605   5.712  0.00  0.00    +0.144 HD
ENDROOT
BRANCH   6  15
ATOM     14  O   UNL     1     -37.749  24.153   0.827  0.00  0.00    -0.349 OA
ATOM     15  C   UNL     1     -37.983  22.746   1.063  0.00  0.00    +0.170 C 
ATOM     16  C   UNL     1     -39.478  22.572   1.335  0.00  0.00    +0.169 C 
ATOM     17  C   UNL     1     -39.930  23.979   1.683  0.00  0.00    +0.169 C 
ATOM     18  C   UNL     1     -39.016  24.833   0.820  0.00  0.00    +0.174 C 
BRANCH  16  19
ATOM     19  O   UNL     1     -40.118  22.106   0.147  0.00  0.00    -0.379 OA
ATOM     20  H   UNL     1     -40.189  22.835  -0.489  0.00  0.00    +0.211 HD
ENDBRANCH  16  19
BRANCH  17  21
ATOM     21  O   UNL     1     -41.299  24.190   1.414  0.00  0.00    -0.379 OA
ATOM     22  H   UNL     1     -41.790  24.234   2.249  0.00  0.00    +0.211 HD
ENDBRANCH  17  21
BRANCH  18  23
ATOM     23  C   UNL     1     -38.837  26.248   1.338  0.00  0.00    +0.169 C 
BRANCH  23  24
ATOM     24  O   UNL     1     -39.149  26.268   2.720  0.00  0.00    -0.379 OA
ATOM     25  H   UNL     1     -39.703  27.040   2.915  0.00  0.00    +0.211 HD
ENDBRANCH  23  24
ENDBRANCH  18  23
ENDBRANCH   6  15
TORSDOF 5
ENDMDL
MODEL 8
REMARK VINA RESULT:      -5.4      3.108      5.173
REMARK  Name = 511885
REMARK  5 active torsions:
REMARK  status: ('A' for Active; 'I' for Inactive)
REMARK    1  A    between atoms: C_6  and  C_15
REMARK    2  A    between atoms: C_16  and  O_19
REMARK    3  A    between atoms: C_17  and  O_21
REMARK    4  A    between atoms: C_18  and  C_23
REMARK    5  A    between atoms: C_23  and  O_24
REMARK                            x       y       z     vdW  Elec       q    Type
REMARK                         _______ _______ _______ _____ _____    ______ ____
ROOT
ATOM      1  N   UNL     1     -35.599  22.450   4.767  0.00  0.00    -0.224 N 
ATOM      2  N   UNL     1     -35.845  23.651   5.329  0.00  0.00    -0.178 NA
ATOM      3  N   UNL     1     -36.324  24.185   1.842  0.00  0.00    -0.245 NA
ATOM      4  N   UNL     1     -36.746  26.333   3.027  0.00  0.00    -0.229 NA
ATOM      5  N   UNL     1     -36.576  26.600   5.419  0.00  0.00    -0.342 N 
ATOM      6  C   UNL     1     -35.727  22.421   3.411  0.00  0.00    +0.162 C 
ATOM      7  C   UNL     1     -36.080  23.694   3.077  0.00  0.00    +0.100 C 
ATOM      8  C   UNL     1     -36.150  24.454   4.294  0.00  0.00    +0.144 C 
ATOM      9  C   UNL     1     -35.237  21.343   5.623  0.00  0.00    +0.134 C 
ATOM     10  C   UNL     1     -36.492  25.812   4.260  0.00  0.00    +0.143 C 
ATOM     11  C   UNL     1     -36.648  25.509   1.932  0.00  0.00    +0.252 C 
ATOM     12  H   UNL     1     -36.821  27.551   5.352  0.00  0.00    +0.144 HD
ATOM     13  H   UNL     1     -36.388  26.201   6.300  0.00  0.00    +0.144 HD
ENDROOT
BRANCH   6  15
ATOM     14  O   UNL     1     -34.575  21.498   1.516  0.00  0.00    -0.349 OA
ATOM     15  C   UNL     1     -35.497  21.177   2.581  0.00  0.00    +0.170 C 
ATOM     16  C   UNL     1     -36.773  20.636   1.933  0.00  0.00    +0.169 C 
ATOM     17  C   UNL     1     -36.657  21.113   0.497  0.00  0.00    +0.169 C 
ATOM     18  C   UNL     1     -35.155  21.080   0.268  0.00  0.00    +0.174 C 
BRANCH  16  19
ATOM     19  O   UNL     1     -36.765  19.210   2.003  0.00  0.00    -0.379 OA
ATOM     20  H   UNL     1     -36.466  18.847   1.155  0.00  0.00    +0.211 HD
ENDBRANCH  16  19
BRANCH  17  21
ATOM     21  O   UNL     1     -37.371  20.294  -0.405  0.00  0.00    -0.379 OA
ATOM     22  H   UNL     1     -36.769  19.641  -0.795  0.00  0.00    +0.211 HD
ENDBRANCH  17  21
BRANCH  18  23
ATOM     23  C   UNL     1     -34.689  22.003  -0.844  0.00  0.00    +0.169 C 
BRANCH  23  24
ATOM     24  O   UNL     1     -34.326  23.250  -0.276  0.00  0.00    -0.379 OA
ATOM     25  H   UNL     1     -33.364  23.284  -0.159  0.00  0.00    +0.211 HD
ENDBRANCH  23  24
ENDBRANCH  18  23
ENDBRANCH   6  15
TORSDOF 5
ENDMDL
MODEL 9
REMARK VINA RESULT:      -5.3      3.691      4.953
REMARK  Name = 511885
REMARK  5 active torsions:
REMARK  status: ('A' for Active; 'I' for Inactive)
REMARK    1  A    between atoms: C_6  and  C_15
REMARK    2  A    between atoms: C_16  and  O_19
REMARK    3  A    between atoms: C_17  and  O_21
REMARK    4  A    between atoms: C_18  and  C_23
REMARK    5  A    between atoms: C_23  and  O_24
REMARK                            x       y       z     vdW  Elec       q    Type
REMARK                         _______ _______ _______ _____ _____    ______ ____
ROOT
ATOM      1  N   UNL     1     -32.526  27.186   4.290  0.00  0.00    -0.224 N 
ATOM      2  N   UNL     1     -31.664  27.373   3.270  0.00  0.00    -0.178 NA
ATOM      3  N   UNL     1     -33.901  24.865   2.096  0.00  0.00    -0.245 NA
ATOM      4  N   UNL     1     -32.233  25.325   0.306  0.00  0.00    -0.229 NA
ATOM      5  N   UNL     1     -30.451  26.939   0.517  0.00  0.00    -0.342 N 
ATOM      6  C   UNL     1     -33.488  26.251   4.056  0.00  0.00    +0.162 C 
ATOM      7  C   UNL     1     -33.227  25.804   2.795  0.00  0.00    +0.100 C 
ATOM      8  C   UNL     1     -32.077  26.520   2.316  0.00  0.00    +0.144 C 
ATOM      9  C   UNL     1     -32.358  27.966   5.495  0.00  0.00    +0.134 C 
ATOM     10  C   UNL     1     -31.571  26.267   1.034  0.00  0.00    +0.143 C 
ATOM     11  C   UNL     1     -33.322  24.705   0.869  0.00  0.00    +0.252 C 
ATOM     12  H   UNL     1     -30.128  26.731  -0.389  0.00  0.00    +0.144 HD
ATOM     13  H   UNL     1     -29.989  27.617   1.063  0.00  0.00    +0.144 HD
ENDROOT
BRANCH   6  15
ATOM     14  O   UNL     1     -34.500  24.460   5.296  0.00  0.00    -0.349 OA
ATOM     15  C   UNL     1     -34.555  25.885   5.063  0.00  0.00    +0.170 C 
ATOM     16  C   UNL     1     -35.973  26.216   4.594  0.00  0.00    +0.169 C 
ATOM     17  C   UNL     1     -36.513  24.867   4.154  0.00  0.00    +0.169 C 
ATOM     18  C   UNL     1     -35.819  23.915   5.114  0.00  0.00    +0.174 C 
BRANCH  16  19
ATOM     19  O   UNL     1     -36.721  26.735   5.694  0.00  0.00    -0.379 OA
ATOM     20  H   UNL     1     -37.492  26.169   5.856  0.00  0.00    +0.211 HD
ENDBRANCH  16  19
BRANCH  17  21
ATOM     21  O   UNL     1     -37.921  24.796   4.228  0.00  0.00    -0.379 OA
ATOM     22  H   UNL     1     -38.241  25.416   4.902  0.00  0.00    +0.211 HD
ENDBRANCH  17  21
BRANCH  18  23
ATOM     23  C   UNL     1     -35.714  22.494   4.592  0.00  0.00    +0.169 C 
BRANCH  23  24
ATOM     24  O   UNL     1     -36.866  22.208   3.818  0.00  0.00    -0.379 OA
ATOM     25  H   UNL     1     -36.901  21.257   3.629  0.00  0.00    +0.211 HD
ENDBRANCH  23  24
ENDBRANCH  18  23
ENDBRANCH   6  15
TORSDOF 5
ENDMDL
