MODEL 1
REMARK VINA RESULT:      -7.3      0.000      0.000
REMARK  Name = 216210
REMARK  9 active torsions:
REMARK  status: ('A' for Active; 'I' for Inactive)
REMARK    1  A    between atoms: C_4  and  C_26
REMARK    2  A    between atoms: C_6  and  C_13
REMARK    3  A    between atoms: N_12  and  C_20
REMARK    4  A    between atoms: C_20  and  C_21
REMARK    5  A    between atoms: C_21  and  C_23
REMARK    6  A    between atoms: C_23  and  O_24
REMARK    7  A    between atoms: C_26  and  N_27
REMARK    8  A    between atoms: N_27  and  C_29
REMARK    9  A    between atoms: C_34  and  C_37
REMARK                            x       y       z     vdW  Elec       q    Type
REMARK                         _______ _______ _______ _____ _____    ______ ____
ROOT
ATOM      1  N   UNL     1     -33.167  34.265   1.714  0.00  0.00    -0.261 N 
ATOM      2  N   UNL     1     -34.949  32.938   1.728  0.00  0.00    -0.388 NA
ATOM      3  C   UNL     1     -32.869  33.094   2.374  0.00  0.00    +0.079 C 
ATOM      4  C   UNL     1     -34.420  34.137   1.342  0.00  0.00    +0.184 C 
ATOM      5  C   UNL     1     -33.972  32.245   2.396  0.00  0.00    +0.146 C 
ATOM      6  C   UNL     1     -32.760  30.590   3.602  0.00  0.00    +0.039 C 
ATOM      7  C   UNL     1     -33.959  30.986   2.999  0.00  0.00    +0.034 C 
ATOM      8  C   UNL     1     -31.674  32.681   2.985  0.00  0.00    -0.004 C 
ATOM      9  C   UNL     1     -31.637  31.421   3.596  0.00  0.00    +0.058 C 
ATOM     10  C   UNL     1     -32.272  35.376   1.493  0.00  0.00    +0.120 C 
ENDROOT
BRANCH   6  13
ATOM     11  O   UNL     1     -32.453  29.299   5.465  0.00  0.00    -0.270 OA
ATOM     12  N   UNL     1     -32.877  28.120   3.463  0.00  0.00    -0.240 N 
ATOM     13  C   UNL     1     -32.684  29.288   4.247  0.00  0.00    +0.250 C 
ATOM     14  N   UNL     1     -33.785  26.975   5.377  0.00  0.00    -0.229 NA
ATOM     15  C   UNL     1     -33.450  26.933   4.068  0.00  0.00    +0.138 C 
ATOM     16  C   UNL     1     -33.618  25.821   3.259  0.00  0.00    +0.035 C 
ATOM     17  C   UNL     1     -34.166  24.677   3.830  0.00  0.00    +0.004 C 
ATOM     18  C   UNL     1     -34.314  25.844   5.898  0.00  0.00    +0.100 C 
ATOM     19  C   UNL     1     -34.523  24.681   5.174  0.00  0.00    +0.021 C 
BRANCH  12  20
ATOM     20  C   UNL     1     -32.502  28.106   2.040  0.00  0.00    +0.112 C 
BRANCH  20  21
ATOM     21  C   UNL     1     -30.993  28.028   1.847  0.00  0.00    +0.131 C 
BRANCH  21  23
ATOM     22  O   UNL     1     -30.622  25.894   0.729  0.00  0.00    -0.250 OA
ATOM     23  C   UNL     1     -30.487  26.607   1.713  0.00  0.00    +0.316 C 
BRANCH  23  24
ATOM     24  O   UNL     1     -29.840  26.205   2.838  0.00  0.00    -0.480 OA
ATOM     25  H   UNL     1     -28.941  25.944   2.793  0.00  0.00    +0.295 HD
ENDBRANCH  23  24
ENDBRANCH  21  23
ENDBRANCH  20  21
ENDBRANCH  12  20
ENDBRANCH   6  13
BRANCH   4  26
ATOM     26  C   UNL     1     -35.149  35.181   0.592  0.00  0.00    +0.164 C 
BRANCH  26  27
ATOM     27  N   UNL     1     -36.423  34.759   0.022  0.00  0.00    -0.326 N 
ATOM     28  H   UNL     1     -36.428  34.391  -0.892  0.00  0.00    +0.147 HD
BRANCH  27  29
ATOM     29  C   UNL     1     -37.620  34.852   0.697  0.00  0.00    +0.045 C 
ATOM     30  C   UNL     1     -37.844  35.909   1.579  0.00  0.00    +0.014 C 
ATOM     31  C   UNL     1     -38.608  33.885   0.502  0.00  0.00    +0.014 C 
ATOM     32  C   UNL     1     -39.055  36.001   2.264  0.00  0.00    +0.004 C 
ATOM     33  C   UNL     1     -39.819  33.978   1.187  0.00  0.00    +0.004 C 
ATOM     34  C   UNL     1     -40.043  35.036   2.068  0.00  0.00    +0.031 C 
BRANCH  34  37
ATOM     35  N   UNL     1     -41.457  35.983   3.876  0.00  0.00    -0.343 N 
ATOM     36  N   UNL     1     -42.335  34.399   2.401  0.00  0.00    -0.285 NA
ATOM     37  C   UNL     1     -41.306  35.132   2.783  0.00  0.00    +0.117 C 
ATOM     38  H   UNL     1     -42.321  36.033   4.346  0.00  0.00    +0.144 HD
ATOM     39  H   UNL     1     -40.701  36.536   4.179  0.00  0.00    +0.144 HD
ATOM     40  H   UNL     1     -43.191  34.461   2.883  0.00  0.00    +0.188 HD
ENDBRANCH  34  37
ENDBRANCH  27  29
ENDBRANCH  26  27
ENDBRANCH   4  26
TORSDOF 9
ENDMDL
MODEL 2
REMARK VINA RESULT:      -7.3      5.967      8.320
REMARK  Name = 216210
REMARK  9 active torsions:
REMARK  status: ('A' for Active; 'I' for Inactive)
REMARK    1  A    between atoms: C_4  and  C_26
REMARK    2  A    between atoms: C_6  and  C_13
REMARK    3  A    between atoms: N_12  and  C_20
REMARK    4  A    between atoms: C_20  and  C_21
REMARK    5  A    between atoms: C_21  and  C_23
REMARK    6  A    between atoms: C_23  and  O_24
REMARK    7  A    between atoms: C_26  and  N_27
REMARK    8  A    between atoms: N_27  and  C_29
REMARK    9  A    between atoms: C_34  and  C_37
REMARK                            x       y       z     vdW  Elec       q    Type
REMARK                         _______ _______ _______ _____ _____    ______ ____
ROOT
ATOM      1  N   UNL     1     -40.273  24.571   1.258  0.00  0.00    -0.261 N 
ATOM      2  N   UNL     1     -40.041  26.328   2.600  0.00  0.00    -0.388 NA
ATOM      3  C   UNL     1     -38.947  24.729   1.594  0.00  0.00    +0.079 C 
ATOM      4  C   UNL     1     -40.899  25.546   1.877  0.00  0.00    +0.184 C 
ATOM      5  C   UNL     1     -38.777  25.824   2.435  0.00  0.00    +0.146 C 
ATOM      6  C   UNL     1     -36.428  25.457   2.549  0.00  0.00    +0.039 C 
ATOM      7  C   UNL     1     -37.535  26.221   2.934  0.00  0.00    +0.034 C 
ATOM      8  C   UNL     1     -37.824  23.973   1.216  0.00  0.00    -0.004 C 
ATOM      9  C   UNL     1     -36.568  24.352   1.706  0.00  0.00    +0.058 C 
ATOM     10  C   UNL     1     -40.826  23.545   0.408  0.00  0.00    +0.120 C 
ENDROOT
BRANCH   6  13
ATOM     11  O   UNL     1     -34.325  26.284   2.193  0.00  0.00    -0.270 OA
ATOM     12  N   UNL     1     -34.807  25.633   4.412  0.00  0.00    -0.240 N 
ATOM     13  C   UNL     1     -35.107  25.821   3.037  0.00  0.00    +0.250 C 
ATOM     14  N   UNL     1     -33.285  27.499   4.345  0.00  0.00    -0.229 NA
ATOM     15  C   UNL     1     -33.860  26.514   5.070  0.00  0.00    +0.138 C 
ATOM     16  C   UNL     1     -33.603  26.287   6.413  0.00  0.00    +0.035 C 
ATOM     17  C   UNL     1     -32.696  27.125   7.052  0.00  0.00    +0.004 C 
ATOM     18  C   UNL     1     -32.408  28.293   5.000  0.00  0.00    +0.100 C 
ATOM     19  C   UNL     1     -32.084  28.150   6.339  0.00  0.00    +0.021 C 
BRANCH  12  20
ATOM     20  C   UNL     1     -35.449  24.551   5.176  0.00  0.00    +0.112 C 
BRANCH  20  21
ATOM     21  C   UNL     1     -34.835  23.192   4.868  0.00  0.00    +0.131 C 
BRANCH  21  23
ATOM     22  O   UNL     1     -36.061  22.230   6.743  0.00  0.00    -0.250 OA
ATOM     23  C   UNL     1     -35.406  22.078   5.721  0.00  0.00    +0.316 C 
BRANCH  23  24
ATOM     24  O   UNL     1     -35.108  20.857   5.205  0.00  0.00    -0.480 OA
ATOM     25  H   UNL     1     -35.797  20.267   4.971  0.00  0.00    +0.295 HD
ENDBRANCH  23  24
ENDBRANCH  21  23
ENDBRANCH  20  21
ENDBRANCH  12  20
ENDBRANCH   6  13
BRANCH   4  26
ATOM     26  C   UNL     1     -42.360  25.751   1.790  0.00  0.00    +0.164 C 
BRANCH  26  27
ATOM     27  N   UNL     1     -42.815  27.104   2.082  0.00  0.00    -0.326 N 
ATOM     28  H   UNL     1     -42.619  27.815   1.428  0.00  0.00    +0.147 HD
BRANCH  27  29
ATOM     29  C   UNL     1     -43.504  27.439   3.227  0.00  0.00    +0.045 C 
ATOM     30  C   UNL     1     -44.395  26.529   3.797  0.00  0.00    +0.014 C 
ATOM     31  C   UNL     1     -43.314  28.691   3.814  0.00  0.00    +0.014 C 
ATOM     32  C   UNL     1     -45.094  26.870   4.953  0.00  0.00    +0.004 C 
ATOM     33  C   UNL     1     -44.013  29.030   4.972  0.00  0.00    +0.004 C 
ATOM     34  C   UNL     1     -44.904  28.120   5.542  0.00  0.00    +0.031 C 
BRANCH  34  37
ATOM     35  N   UNL     1     -45.815  29.806   7.120  0.00  0.00    -0.343 N 
ATOM     36  N   UNL     1     -46.132  27.526   7.519  0.00  0.00    -0.285 NA
ATOM     37  C   UNL     1     -45.633  28.475   6.749  0.00  0.00    +0.117 C 
ATOM     38  H   UNL     1     -46.313  30.025   7.942  0.00  0.00    +0.144 HD
ATOM     39  H   UNL     1     -45.448  30.529   6.561  0.00  0.00    +0.144 HD
ATOM     40  H   UNL     1     -46.626  27.764   8.337  0.00  0.00    +0.188 HD
ENDBRANCH  34  37
ENDBRANCH  27  29
ENDBRANCH  26  27
ENDBRANCH   4  26
TORSDOF 9
ENDMDL
MODEL 3
REMARK VINA RESULT:      -7.2      2.774      4.124
REMARK  Name = 216210
REMARK  9 active torsions:
REMARK  status: ('A' for Active; 'I' for Inactive)
REMARK    1  A    between atoms: C_4  and  C_26
REMARK    2  A    between atoms: C_6  and  C_13
REMARK    3  A    between atoms: N_12  and  C_20
REMARK    4  A    between atoms: C_20  and  C_21
REMARK    5  A    between atoms: C_21  and  C_23
REMARK    6  A    between atoms: C_23  and  O_24
REMARK    7  A    between atoms: C_26  and  N_27
REMARK    8  A    between atoms: N_27  and  C_29
REMARK    9  A    between atoms: C_34  and  C_37
REMARK                            x       y       z     vdW  Elec       q    Type
REMARK                         _______ _______ _______ _____ _____    ______ ____
ROOT
ATOM      1  N   UNL     1     -34.859  29.997  -0.133  0.00  0.00    -0.261 N 
ATOM      2  N   UNL     1     -36.835  29.907   0.880  0.00  0.00    -0.388 NA
ATOM      3  C   UNL     1     -35.024  28.764   0.455  0.00  0.00    +0.079 C 
ATOM      4  C   UNL     1     -35.962  30.656   0.141  0.00  0.00    +0.184 C 
ATOM      5  C   UNL     1     -36.256  28.683   1.097  0.00  0.00    +0.146 C 
ATOM      6  C   UNL     1     -35.820  26.451   1.800  0.00  0.00    +0.039 C 
ATOM      7  C   UNL     1     -36.691  27.546   1.780  0.00  0.00    +0.034 C 
ATOM      8  C   UNL     1     -34.161  27.655   0.486  0.00  0.00    -0.004 C 
ATOM      9  C   UNL     1     -34.577  26.503   1.165  0.00  0.00    +0.058 C 
ATOM     10  C   UNL     1     -33.711  30.441  -0.886  0.00  0.00    +0.120 C 
ENDROOT
BRANCH   6  13
ATOM     11  O   UNL     1     -36.910  24.441   1.845  0.00  0.00    -0.270 OA
ATOM     12  N   UNL     1     -35.797  25.046   3.839  0.00  0.00    -0.240 N 
ATOM     13  C   UNL     1     -36.218  25.237   2.496  0.00  0.00    +0.250 C 
ATOM     14  N   UNL     1     -35.785  22.661   3.504  0.00  0.00    -0.229 NA
ATOM     15  C   UNL     1     -35.578  23.702   4.340  0.00  0.00    +0.138 C 
ATOM     16  C   UNL     1     -35.167  23.570   5.657  0.00  0.00    +0.035 C 
ATOM     17  C   UNL     1     -34.955  22.286   6.147  0.00  0.00    +0.004 C 
ATOM     18  C   UNL     1     -35.569  21.427   4.015  0.00  0.00    +0.100 C 
ATOM     19  C   UNL     1     -35.158  21.189   5.316  0.00  0.00    +0.021 C 
BRANCH  12  20
ATOM     20  C   UNL     1     -35.580  26.200   4.726  0.00  0.00    +0.112 C 
BRANCH  20  21
ATOM     21  C   UNL     1     -34.133  26.301   5.189  0.00  0.00    +0.131 C 
BRANCH  21  23
ATOM     22  O   UNL     1     -32.152  27.178   4.069  0.00  0.00    -0.250 OA
ATOM     23  C   UNL     1     -33.326  27.303   4.390  0.00  0.00    +0.316 C 
BRANCH  23  24
ATOM     24  O   UNL     1     -34.075  28.385   4.052  0.00  0.00    -0.480 OA
ATOM     25  H   UNL     1     -34.932  28.267   3.691  0.00  0.00    +0.295 HD
ENDBRANCH  23  24
ENDBRANCH  21  23
ENDBRANCH  20  21
ENDBRANCH  12  20
ENDBRANCH   6  13
BRANCH   4  26
ATOM     26  C   UNL     1     -36.207  32.041  -0.309  0.00  0.00    +0.164 C 
BRANCH  26  27
ATOM     27  N   UNL     1     -36.214  33.045   0.748  0.00  0.00    -0.326 N 
ATOM     28  H   UNL     1     -35.365  33.250   1.204  0.00  0.00    +0.147 HD
BRANCH  27  29
ATOM     29  C   UNL     1     -37.349  33.720   1.142  0.00  0.00    +0.045 C 
ATOM     30  C   UNL     1     -37.268  35.059   1.523  0.00  0.00    +0.014 C 
ATOM     31  C   UNL     1     -38.579  33.062   1.162  0.00  0.00    +0.014 C 
ATOM     32  C   UNL     1     -38.416  35.741   1.924  0.00  0.00    +0.004 C 
ATOM     33  C   UNL     1     -39.727  33.744   1.562  0.00  0.00    +0.004 C 
ATOM     34  C   UNL     1     -39.646  35.084   1.944  0.00  0.00    +0.031 C 
BRANCH  34  37
ATOM     35  N   UNL     1     -41.227  35.845   3.701  0.00  0.00    -0.343 N 
ATOM     36  N   UNL     1     -41.595  36.404   1.462  0.00  0.00    -0.285 NA
ATOM     37  C   UNL     1     -40.844  35.795   2.361  0.00  0.00    +0.117 C 
ATOM     38  H   UNL     1     -42.042  36.332   3.962  0.00  0.00    +0.144 HD
ATOM     39  H   UNL     1     -40.683  35.394   4.386  0.00  0.00    +0.144 HD
ATOM     40  H   UNL     1     -42.406  36.886   1.743  0.00  0.00    +0.188 HD
ENDBRANCH  34  37
ENDBRANCH  27  29
ENDBRANCH  26  27
ENDBRANCH   4  26
TORSDOF 9
ENDMDL
MODEL 4
REMARK VINA RESULT:      -7.2      5.872     12.390
REMARK  Name = 216210
REMARK  9 active torsions:
REMARK  status: ('A' for Active; 'I' for Inactive)
REMARK    1  A    between atoms: C_4  and  C_26
REMARK    2  A    between atoms: C_6  and  C_13
REMARK    3  A    between atoms: N_12  and  C_20
REMARK    4  A    between atoms: C_20  and  C_21
REMARK    5  A    between atoms: C_21  and  C_23
REMARK    6  A    between atoms: C_23  and  O_24
REMARK    7  A    between atoms: C_26  and  N_27
REMARK    8  A    between atoms: N_27  and  C_29
REMARK    9  A    between atoms: C_34  and  C_37
REMARK                            x       y       z     vdW  Elec       q    Type
REMARK                         _______ _______ _______ _____ _____    ______ ____
ROOT
ATOM      1  N   UNL     1     -37.617  21.917   2.227  0.00  0.00    -0.261 N 
ATOM      2  N   UNL     1     -35.419  21.764   2.520  0.00  0.00    -0.388 NA
ATOM      3  C   UNL     1     -37.148  23.060   2.836  0.00  0.00    +0.079 C 
ATOM      4  C   UNL     1     -36.555  21.163   2.054  0.00  0.00    +0.184 C 
ATOM      5  C   UNL     1     -35.771  22.987   3.029  0.00  0.00    +0.146 C 
ATOM      6  C   UNL     1     -35.732  25.143   4.038  0.00  0.00    +0.039 C 
ATOM      7  C   UNL     1     -35.027  24.006   3.626  0.00  0.00    +0.034 C 
ATOM      8  C   UNL     1     -37.840  24.208   3.256  0.00  0.00    -0.004 C 
ATOM      9  C   UNL     1     -37.113  25.244   3.856  0.00  0.00    +0.058 C 
ATOM     10  C   UNL     1     -38.986  21.637   1.868  0.00  0.00    +0.120 C 
ENDROOT
BRANCH   6  13
ATOM     11  O   UNL     1     -35.218  26.401   5.877  0.00  0.00    -0.270 OA
ATOM     12  N   UNL     1     -34.135  27.028   3.874  0.00  0.00    -0.240 N 
ATOM     13  C   UNL     1     -35.010  26.239   4.666  0.00  0.00    +0.250 C 
ATOM     14  N   UNL     1     -32.746  27.435   5.799  0.00  0.00    -0.229 NA
ATOM     15  C   UNL     1     -32.967  27.639   4.481  0.00  0.00    +0.138 C 
ATOM     16  C   UNL     1     -32.146  28.399   3.665  0.00  0.00    +0.035 C 
ATOM     17  C   UNL     1     -31.024  28.989   4.237  0.00  0.00    +0.004 C 
ATOM     18  C   UNL     1     -31.646  28.024   6.321  0.00  0.00    +0.100 C 
ATOM     19  C   UNL     1     -30.763  28.802   5.590  0.00  0.00    +0.021 C 
BRANCH  12  20
ATOM     20  C   UNL     1     -34.403  27.232   2.441  0.00  0.00    +0.112 C 
BRANCH  20  21
ATOM     21  C   UNL     1     -35.568  28.185   2.208  0.00  0.00    +0.131 C 
BRANCH  21  23
ATOM     22  O   UNL     1     -34.630  30.242   1.295  0.00  0.00    -0.250 OA
ATOM     23  C   UNL     1     -35.152  29.641   2.223  0.00  0.00    +0.316 C 
BRANCH  23  24
ATOM     24  O   UNL     1     -35.440  30.225   3.416  0.00  0.00    -0.480 OA
ATOM     25  H   UNL     1     -34.752  30.416   4.023  0.00  0.00    +0.295 HD
ENDBRANCH  23  24
ENDBRANCH  21  23
ENDBRANCH  20  21
ENDBRANCH  12  20
ENDBRANCH   6  13
BRANCH   4  26
ATOM     26  C   UNL     1     -36.608  19.828   1.423  0.00  0.00    +0.164 C 
BRANCH  26  27
ATOM     27  N   UNL     1     -35.709  19.641   0.291  0.00  0.00    -0.326 N 
ATOM     28  H   UNL     1     -35.848  20.192  -0.514  0.00  0.00    +0.147 HD
BRANCH  27  29
ATOM     29  C   UNL     1     -34.674  18.731   0.291  0.00  0.00    +0.045 C 
ATOM     30  C   UNL     1     -33.567  18.932   1.117  0.00  0.00    +0.014 C 
ATOM     31  C   UNL     1     -34.732  17.609  -0.537  0.00  0.00    +0.014 C 
ATOM     32  C   UNL     1     -32.520  18.013   1.115  0.00  0.00    +0.004 C 
ATOM     33  C   UNL     1     -33.684  16.690  -0.538  0.00  0.00    +0.004 C 
ATOM     34  C   UNL     1     -32.577  16.891   0.287  0.00  0.00    +0.031 C 
BRANCH  34  37
ATOM     35  N   UNL     1     -31.720  14.566   0.129  0.00  0.00    -0.343 N 
ATOM     36  N   UNL     1     -30.242  16.349   0.439  0.00  0.00    -0.285 NA
ATOM     37  C   UNL     1     -31.485  15.931   0.285  0.00  0.00    +0.117 C 
ATOM     38  H   UNL     1     -30.965  13.933   0.130  0.00  0.00    +0.144 HD
ATOM     39  H   UNL     1     -32.639  14.234   0.016  0.00  0.00    +0.144 HD
ATOM     40  H   UNL     1     -29.500  15.701   0.439  0.00  0.00    +0.188 HD
ENDBRANCH  34  37
ENDBRANCH  27  29
ENDBRANCH  26  27
ENDBRANCH   4  26
TORSDOF 9
ENDMDL
MODEL 5
REMARK VINA RESULT:      -7.0      7.374     11.756
REMARK  Name = 216210
REMARK  9 active torsions:
REMARK  status: ('A' for Active; 'I' for Inactive)
REMARK    1  A    between atoms: C_4  and  C_26
REMARK    2  A    between atoms: C_6  and  C_13
REMARK    3  A    between atoms: N_12  and  C_20
REMARK    4  A    between atoms: C_20  and  C_21
REMARK    5  A    between atoms: C_21  and  C_23
REMARK    6  A    between atoms: C_23  and  O_24
REMARK    7  A    between atoms: C_26  and  N_27
REMARK    8  A    between atoms: N_27  and  C_29
REMARK    9  A    between atoms: C_34  and  C_37
REMARK                            x       y       z     vdW  Elec       q    Type
REMARK                         _______ _______ _______ _____ _____    ______ ____
ROOT
ATOM      1  N   UNL     1     -37.352  21.609   0.279  0.00  0.00    -0.261 N 
ATOM      2  N   UNL     1     -38.525  21.471   2.161  0.00  0.00    -0.388 NA
ATOM      3  C   UNL     1     -38.510  22.343   0.159  0.00  0.00    +0.079 C 
ATOM      4  C   UNL     1     -37.394  21.101   1.490  0.00  0.00    +0.184 C 
ATOM      5  C   UNL     1     -39.263  22.271   1.328  0.00  0.00    +0.146 C 
ATOM      6  C   UNL     1     -40.954  23.670   0.404  0.00  0.00    +0.039 C 
ATOM      7  C   UNL     1     -40.489  22.920   1.490  0.00  0.00    +0.034 C 
ATOM      8  C   UNL     1     -38.992  23.100  -0.922  0.00  0.00    -0.004 C 
ATOM      9  C   UNL     1     -40.220  23.760  -0.781  0.00  0.00    +0.058 C 
ATOM     10  C   UNL     1     -36.328  21.453  -0.726  0.00  0.00    +0.120 C 
ENDROOT
BRANCH   6  13
ATOM     11  O   UNL     1     -43.148  23.927  -0.187  0.00  0.00    -0.270 OA
ATOM     12  N   UNL     1     -42.325  25.479   1.393  0.00  0.00    -0.240 N 
ATOM     13  C   UNL     1     -42.225  24.369   0.513  0.00  0.00    +0.250 C 
ATOM     14  N   UNL     1     -44.654  24.987   1.762  0.00  0.00    -0.229 NA
ATOM     15  C   UNL     1     -43.594  25.780   2.030  0.00  0.00    +0.138 C 
ATOM     16  C   UNL     1     -43.638  26.874   2.879  0.00  0.00    +0.035 C 
ATOM     17  C   UNL     1     -44.849  27.172   3.494  0.00  0.00    +0.004 C 
ATOM     18  C   UNL     1     -45.815  25.307   2.376  0.00  0.00    +0.100 C 
ATOM     19  C   UNL     1     -45.963  26.379   3.243  0.00  0.00    +0.021 C 
BRANCH  12  20
ATOM     20  C   UNL     1     -41.152  26.325   1.665  0.00  0.00    +0.112 C 
BRANCH  20  21
ATOM     21  C   UNL     1     -40.600  26.102   3.066  0.00  0.00    +0.131 C 
BRANCH  21  23
ATOM     22  O   UNL     1     -38.275  26.516   2.459  0.00  0.00    -0.250 OA
ATOM     23  C   UNL     1     -39.104  25.866   3.081  0.00  0.00    +0.316 C 
BRANCH  23  24
ATOM     24  O   UNL     1     -38.775  24.828   3.893  0.00  0.00    -0.480 OA
ATOM     25  H   UNL     1     -37.968  24.368   3.763  0.00  0.00    +0.295 HD
ENDBRANCH  23  24
ENDBRANCH  21  23
ENDBRANCH  20  21
ENDBRANCH  12  20
ENDBRANCH   6  13
BRANCH   4  26
ATOM     26  C   UNL     1     -36.329  20.236   2.039  0.00  0.00    +0.164 C 
BRANCH  26  27
ATOM     27  N   UNL     1     -35.150  20.940   2.527  0.00  0.00    -0.326 N 
ATOM     28  H   UNL     1     -34.266  20.533   2.376  0.00  0.00    +0.147 HD
BRANCH  27  29
ATOM     29  C   UNL     1     -35.210  22.145   3.192  0.00  0.00    +0.045 C 
ATOM     30  C   UNL     1     -34.994  23.336   2.498  0.00  0.00    +0.014 C 
ATOM     31  C   UNL     1     -35.485  22.175   4.560  0.00  0.00    +0.014 C 
ATOM     32  C   UNL     1     -35.053  24.556   3.171  0.00  0.00    +0.004 C 
ATOM     33  C   UNL     1     -35.544  23.395   5.232  0.00  0.00    +0.004 C 
ATOM     34  C   UNL     1     -35.328  24.586   4.538  0.00  0.00    +0.031 C 
BRANCH  34  37
ATOM     35  N   UNL     1     -34.283  26.366   5.918  0.00  0.00    -0.343 N 
ATOM     36  N   UNL     1     -36.513  26.552   5.247  0.00  0.00    -0.285 NA
ATOM     37  C   UNL     1     -35.390  25.858   5.240  0.00  0.00    +0.117 C 
ATOM     38  H   UNL     1     -34.347  27.230   6.387  0.00  0.00    +0.144 HD
ATOM     39  H   UNL     1     -33.437  25.863   5.927  0.00  0.00    +0.144 HD
ATOM     40  H   UNL     1     -36.558  27.413   5.721  0.00  0.00    +0.188 HD
ENDBRANCH  34  37
ENDBRANCH  27  29
ENDBRANCH  26  27
ENDBRANCH   4  26
TORSDOF 9
ENDMDL
MODEL 6
REMARK VINA RESULT:      -6.9      6.955     12.146
REMARK  Name = 216210
REMARK  9 active torsions:
REMARK  status: ('A' for Active; 'I' for Inactive)
REMARK    1  A    between atoms: C_4  and  C_26
REMARK    2  A    between atoms: C_6  and  C_13
REMARK    3  A    between atoms: N_12  and  C_20
REMARK    4  A    between atoms: C_20  and  C_21
REMARK    5  A    between atoms: C_21  and  C_23
REMARK    6  A    between atoms: C_23  and  O_24
REMARK    7  A    between atoms: C_26  and  N_27
REMARK    8  A    between atoms: N_27  and  C_29
REMARK    9  A    between atoms: C_34  and  C_37
REMARK                            x       y       z     vdW  Elec       q    Type
REMARK                         _______ _______ _______ _____ _____    ______ ____
ROOT
ATOM      1  N   UNL     1     -39.409  24.510   1.394  0.00  0.00    -0.261 N 
ATOM      2  N   UNL     1     -39.511  24.530   3.614  0.00  0.00    -0.388 NA
ATOM      3  C   UNL     1     -40.279  25.492   1.811  0.00  0.00    +0.079 C 
ATOM      4  C   UNL     1     -38.968  23.954   2.500  0.00  0.00    +0.184 C 
ATOM      5  C   UNL     1     -40.360  25.524   3.200  0.00  0.00    +0.146 C 
ATOM      6  C   UNL     1     -41.921  27.319   3.135  0.00  0.00    +0.039 C 
ATOM      7  C   UNL     1     -41.168  26.421   3.900  0.00  0.00    +0.034 C 
ATOM      8  C   UNL     1     -41.043  26.400   1.058  0.00  0.00    -0.004 C 
ATOM      9  C   UNL     1     -41.860  27.311   1.740  0.00  0.00    +0.058 C 
ATOM     10  C   UNL     1     -39.072  24.186   0.029  0.00  0.00    +0.120 C 
ENDROOT
BRANCH   6  13
ATOM     11  O   UNL     1     -42.225  29.032   4.620  0.00  0.00    -0.270 OA
ATOM     12  N   UNL     1     -44.168  28.295   3.498  0.00  0.00    -0.240 N 
ATOM     13  C   UNL     1     -42.782  28.279   3.808  0.00  0.00    +0.250 C 
ATOM     14  N   UNL     1     -44.255  30.656   3.967  0.00  0.00    -0.229 NA
ATOM     15  C   UNL     1     -44.911  29.538   3.586  0.00  0.00    +0.138 C 
ATOM     16  C   UNL     1     -46.260  29.499   3.272  0.00  0.00    +0.035 C 
ATOM     17  C   UNL     1     -46.982  30.685   3.354  0.00  0.00    +0.004 C 
ATOM     18  C   UNL     1     -44.989  31.790   4.036  0.00  0.00    +0.100 C 
ATOM     19  C   UNL     1     -46.341  31.856   3.742  0.00  0.00    +0.021 C 
BRANCH  12  20
ATOM     20  C   UNL     1     -44.855  27.061   3.086  0.00  0.00    +0.112 C 
BRANCH  20  21
ATOM     21  C   UNL     1     -45.245  26.199   4.279  0.00  0.00    +0.131 C 
BRANCH  21  23
ATOM     22  O   UNL     1     -47.349  25.003   4.578  0.00  0.00    -0.250 OA
ATOM     23  C   UNL     1     -46.316  25.181   3.948  0.00  0.00    +0.316 C 
BRANCH  23  24
ATOM     24  O   UNL     1     -45.996  24.471   2.834  0.00  0.00    -0.480 OA
ATOM     25  H   UNL     1     -46.625  23.892   2.451  0.00  0.00    +0.295 HD
ENDBRANCH  23  24
ENDBRANCH  21  23
ENDBRANCH  20  21
ENDBRANCH  12  20
ENDBRANCH   6  13
BRANCH   4  26
ATOM     26  C   UNL     1     -37.997  22.841   2.511  0.00  0.00    +0.164 C 
BRANCH  26  27
ATOM     27  N   UNL     1     -37.097  22.815   3.658  0.00  0.00    -0.326 N 
ATOM     28  H   UNL     1     -37.148  22.049   4.275  0.00  0.00    +0.147 HD
BRANCH  27  29
ATOM     29  C   UNL     1     -36.180  23.809   3.920  0.00  0.00    +0.045 C 
ATOM     30  C   UNL     1     -36.299  24.581   5.076  0.00  0.00    +0.014 C 
ATOM     31  C   UNL     1     -35.133  24.046   3.028  0.00  0.00    +0.014 C 
ATOM     32  C   UNL     1     -35.372  25.588   5.340  0.00  0.00    +0.004 C 
ATOM     33  C   UNL     1     -34.207  25.053   3.293  0.00  0.00    +0.004 C 
ATOM     34  C   UNL     1     -34.325  25.825   4.449  0.00  0.00    +0.031 C 
BRANCH  34  37
ATOM     35  N   UNL     1     -32.826  27.657   3.700  0.00  0.00    -0.343 N 
ATOM     36  N   UNL     1     -32.965  27.099   5.965  0.00  0.00    -0.285 NA
ATOM     37  C   UNL     1     -33.358  26.876   4.724  0.00  0.00    +0.117 C 
ATOM     38  H   UNL     1     -32.173  28.364   3.909  0.00  0.00    +0.144 HD
ATOM     39  H   UNL     1     -33.104  27.505   2.768  0.00  0.00    +0.144 HD
ATOM     40  H   UNL     1     -32.311  27.810   6.154  0.00  0.00    +0.188 HD
ENDBRANCH  34  37
ENDBRANCH  27  29
ENDBRANCH  26  27
ENDBRANCH   4  26
TORSDOF 9
ENDMDL
MODEL 7
REMARK VINA RESULT:      -6.9      3.336      4.789
REMARK  Name = 216210
REMARK  9 active torsions:
REMARK  status: ('A' for Active; 'I' for Inactive)
REMARK    1  A    between atoms: C_4  and  C_26
REMARK    2  A    between atoms: C_6  and  C_13
REMARK    3  A    between atoms: N_12  and  C_20
REMARK    4  A    between atoms: C_20  and  C_21
REMARK    5  A    between atoms: C_21  and  C_23
REMARK    6  A    between atoms: C_23  and  O_24
REMARK    7  A    between atoms: C_26  and  N_27
REMARK    8  A    between atoms: N_27  and  C_29
REMARK    9  A    between atoms: C_34  and  C_37
REMARK                            x       y       z     vdW  Elec       q    Type
REMARK                         _______ _______ _______ _____ _____    ______ ____
ROOT
ATOM      1  N   UNL     1     -34.489  30.178   0.585  0.00  0.00    -0.261 N 
ATOM      2  N   UNL     1     -36.300  30.042   1.865  0.00  0.00    -0.388 NA
ATOM      3  C   UNL     1     -34.869  28.861   0.714  0.00  0.00    +0.079 C 
ATOM      4  C   UNL     1     -35.367  30.857   1.287  0.00  0.00    +0.184 C 
ATOM      5  C   UNL     1     -36.003  28.751   1.513  0.00  0.00    +0.146 C 
ATOM      6  C   UNL     1     -36.024  26.383   1.272  0.00  0.00    +0.039 C 
ATOM      7  C   UNL     1     -36.611  27.531   1.816  0.00  0.00    +0.034 C 
ATOM      8  C   UNL     1     -34.292  27.698   0.177  0.00  0.00    -0.004 C 
ATOM      9  C   UNL     1     -34.886  26.463   0.467  0.00  0.00    +0.058 C 
ATOM     10  C   UNL     1     -33.363  30.676  -0.169  0.00  0.00    +0.120 C 
ENDROOT
BRANCH   6  13
ATOM     11  O   UNL     1     -37.766  24.907   1.132  0.00  0.00    -0.270 OA
ATOM     12  N   UNL     1     -35.848  24.121   2.265  0.00  0.00    -0.240 N 
ATOM     13  C   UNL     1     -36.613  25.082   1.552  0.00  0.00    +0.250 C 
ATOM     14  N   UNL     1     -36.984  22.343   1.104  0.00  0.00    -0.229 NA
ATOM     15  C   UNL     1     -36.057  22.706   2.017  0.00  0.00    +0.138 C 
ATOM     16  C   UNL     1     -35.284  21.811   2.738  0.00  0.00    +0.035 C 
ATOM     17  C   UNL     1     -35.477  20.453   2.509  0.00  0.00    +0.004 C 
ATOM     18  C   UNL     1     -37.145  21.014   0.908  0.00  0.00    +0.100 C 
ATOM     19  C   UNL     1     -36.423  20.039   1.577  0.00  0.00    +0.021 C 
BRANCH  12  20
ATOM     20  C   UNL     1     -34.845  24.548   3.253  0.00  0.00    +0.112 C 
BRANCH  20  21
ATOM     21  C   UNL     1     -35.430  24.647   4.656  0.00  0.00    +0.131 C 
BRANCH  21  23
ATOM     22  O   UNL     1     -34.353  26.604   5.632  0.00  0.00    -0.250 OA
ATOM     23  C   UNL     1     -35.364  26.048   5.226  0.00  0.00    +0.316 C 
BRANCH  23  24
ATOM     24  O   UNL     1     -36.588  26.638   5.230  0.00  0.00    -0.480 OA
ATOM     25  H   UNL     1     -36.825  27.221   5.924  0.00  0.00    +0.295 HD
ENDBRANCH  23  24
ENDBRANCH  21  23
ENDBRANCH  20  21
ENDBRANCH  12  20
ENDBRANCH   6  13
BRANCH   4  26
ATOM     26  C   UNL     1     -35.332  32.328   1.419  0.00  0.00    +0.164 C 
BRANCH  26  27
ATOM     27  N   UNL     1     -36.240  33.051   0.537  0.00  0.00    -0.326 N 
ATOM     28  H   UNL     1     -36.045  33.063  -0.428  0.00  0.00    +0.147 HD
BRANCH  27  29
ATOM     29  C   UNL     1     -37.356  33.721   0.988  0.00  0.00    +0.045 C 
ATOM     30  C   UNL     1     -37.248  35.039   1.433  0.00  0.00    +0.014 C 
ATOM     31  C   UNL     1     -38.596  33.080   1.004  0.00  0.00    +0.014 C 
ATOM     32  C   UNL     1     -38.377  35.715   1.892  0.00  0.00    +0.004 C 
ATOM     33  C   UNL     1     -39.725  33.757   1.462  0.00  0.00    +0.004 C 
ATOM     34  C   UNL     1     -39.616  35.075   1.907  0.00  0.00    +0.031 C 
BRANCH  34  37
ATOM     35  N   UNL     1     -41.152  35.764   3.732  0.00  0.00    -0.343 N 
ATOM     36  N   UNL     1     -41.552  36.449   1.535  0.00  0.00    -0.285 NA
ATOM     37  C   UNL     1     -40.795  35.780   2.385  0.00  0.00    +0.117 C 
ATOM     38  H   UNL     1     -41.954  36.249   4.035  0.00  0.00    +0.144 HD
ATOM     39  H   UNL     1     -40.602  35.269   4.382  0.00  0.00    +0.144 HD
ATOM     40  H   UNL     1     -42.350  36.927   1.856  0.00  0.00    +0.188 HD
ENDBRANCH  34  37
ENDBRANCH  27  29
ENDBRANCH  26  27
ENDBRANCH   4  26
TORSDOF 9
ENDMDL
MODEL 8
REMARK VINA RESULT:      -6.9      7.590     12.113
REMARK  Name = 216210
REMARK  9 active torsions:
REMARK  status: ('A' for Active; 'I' for Inactive)
REMARK    1  A    between atoms: C_4  and  C_26
REMARK    2  A    between atoms: C_6  and  C_13
REMARK    3  A    between atoms: N_12  and  C_20
REMARK    4  A    between atoms: C_20  and  C_21
REMARK    5  A    between atoms: C_21  and  C_23
REMARK    6  A    between atoms: C_23  and  O_24
REMARK    7  A    between atoms: C_26  and  N_27
REMARK    8  A    between atoms: N_27  and  C_29
REMARK    9  A    between atoms: C_34  and  C_37
REMARK                            x       y       z     vdW  Elec       q    Type
REMARK                         _______ _______ _______ _____ _____    ______ ____
ROOT
ATOM      1  N   UNL     1     -34.971  22.045   1.236  0.00  0.00    -0.261 N 
ATOM      2  N   UNL     1     -35.509  20.097   2.161  0.00  0.00    -0.388 NA
ATOM      3  C   UNL     1     -34.030  21.097   0.904  0.00  0.00    +0.079 C 
ATOM      4  C   UNL     1     -35.842  21.412   1.990  0.00  0.00    +0.184 C 
ATOM      5  C   UNL     1     -34.346  19.867   1.472  0.00  0.00    +0.146 C 
ATOM      6  C   UNL     1     -32.416  18.854   0.517  0.00  0.00    +0.039 C 
ATOM      7  C   UNL     1     -33.566  18.722   1.303  0.00  0.00    +0.034 C 
ATOM      8  C   UNL     1     -32.871  21.212   0.118  0.00  0.00    -0.004 C 
ATOM      9  C   UNL     1     -32.073  20.076  -0.066  0.00  0.00    +0.058 C 
ATOM     10  C   UNL     1     -34.976  23.430   0.828  0.00  0.00    +0.120 C 
ENDROOT
BRANCH   6  13
ATOM     11  O   UNL     1     -30.719  17.473   1.185  0.00  0.00    -0.270 OA
ATOM     12  N   UNL     1     -31.747  16.911  -0.866  0.00  0.00    -0.240 N 
ATOM     13  C   UNL     1     -31.562  17.695   0.304  0.00  0.00    +0.250 C 
ATOM     14  N   UNL     1     -30.999  14.952   0.318  0.00  0.00    -0.229 NA
ATOM     15  C   UNL     1     -31.450  15.491  -0.836  0.00  0.00    +0.138 C 
ATOM     16  C   UNL     1     -31.648  14.773  -2.004  0.00  0.00    +0.035 C 
ATOM     17  C   UNL     1     -31.364  13.412  -1.986  0.00  0.00    +0.004 C 
ATOM     18  C   UNL     1     -30.733  13.626   0.297  0.00  0.00    +0.100 C 
ATOM     19  C   UNL     1     -30.898  12.820  -0.817  0.00  0.00    +0.021 C 
BRANCH  12  20
ATOM     20  C   UNL     1     -32.240  17.528  -2.108  0.00  0.00    +0.112 C 
BRANCH  20  21
ATOM     21  C   UNL     1     -33.743  17.351  -2.277  0.00  0.00    +0.131 C 
BRANCH  21  23
ATOM     22  O   UNL     1     -35.528  18.938  -1.789  0.00  0.00    -0.250 OA
ATOM     23  C   UNL     1     -34.486  18.667  -2.370  0.00  0.00    +0.316 C 
BRANCH  23  24
ATOM     24  O   UNL     1     -33.844  19.541  -3.189  0.00  0.00    -0.480 OA
ATOM     25  H   UNL     1     -33.368  19.224  -3.931  0.00  0.00    +0.295 HD
ENDBRANCH  23  24
ENDBRANCH  21  23
ENDBRANCH  20  21
ENDBRANCH  12  20
ENDBRANCH   6  13
BRANCH   4  26
ATOM     26  C   UNL     1     -37.033  22.065   2.569  0.00  0.00    +0.164 C 
BRANCH  26  27
ATOM     27  N   UNL     1     -36.888  22.507   3.951  0.00  0.00    -0.326 N 
ATOM     28  H   UNL     1     -37.388  22.028   4.651  0.00  0.00    +0.147 HD
BRANCH  27  29
ATOM     29  C   UNL     1     -36.086  23.564   4.325  0.00  0.00    +0.045 C 
ATOM     30  C   UNL     1     -36.429  24.865   3.957  0.00  0.00    +0.014 C 
ATOM     31  C   UNL     1     -34.929  23.332   5.069  0.00  0.00    +0.014 C 
ATOM     32  C   UNL     1     -35.617  25.933   4.334  0.00  0.00    +0.004 C 
ATOM     33  C   UNL     1     -34.117  24.401   5.446  0.00  0.00    +0.004 C 
ATOM     34  C   UNL     1     -34.460  25.702   5.079  0.00  0.00    +0.031 C 
BRANCH  34  37
ATOM     35  N   UNL     1     -33.112  26.923   6.768  0.00  0.00    -0.343 N 
ATOM     36  N   UNL     1     -33.308  27.753   4.593  0.00  0.00    -0.285 NA
ATOM     37  C   UNL     1     -33.612  26.816   5.472  0.00  0.00    +0.117 C 
ATOM     38  H   UNL     1     -32.539  27.687   7.013  0.00  0.00    +0.144 HD
ATOM     39  H   UNL     1     -33.329  26.237   7.439  0.00  0.00    +0.144 HD
ATOM     40  H   UNL     1     -32.735  28.509   4.857  0.00  0.00    +0.188 HD
ENDBRANCH  34  37
ENDBRANCH  27  29
ENDBRANCH  26  27
ENDBRANCH   4  26
TORSDOF 9
ENDMDL
MODEL 9
REMARK VINA RESULT:      -6.8      3.989     10.542
REMARK  Name = 216210
REMARK  9 active torsions:
REMARK  status: ('A' for Active; 'I' for Inactive)
REMARK    1  A    between atoms: C_4  and  C_26
REMARK    2  A    between atoms: C_6  and  C_13
REMARK    3  A    between atoms: N_12  and  C_20
REMARK    4  A    between atoms: C_20  and  C_21
REMARK    5  A    between atoms: C_21  and  C_23
REMARK    6  A    between atoms: C_23  and  O_24
REMARK    7  A    between atoms: C_26  and  N_27
REMARK    8  A    between atoms: N_27  and  C_29
REMARK    9  A    between atoms: C_34  and  C_37
REMARK                            x       y       z     vdW  Elec       q    Type
REMARK                         _______ _______ _______ _____ _____    ______ ____
ROOT
ATOM      1  N   UNL     1     -34.413  30.330   2.409  0.00  0.00    -0.261 N 
ATOM      2  N   UNL     1     -36.348  30.159   1.331  0.00  0.00    -0.388 NA
ATOM      3  C   UNL     1     -34.830  31.577   2.001  0.00  0.00    +0.079 C 
ATOM      4  C   UNL     1     -35.345  29.505   1.990  0.00  0.00    +0.184 C 
ATOM      5  C   UNL     1     -36.042  31.495   1.322  0.00  0.00    +0.146 C 
ATOM      6  C   UNL     1     -36.084  33.850   0.976  0.00  0.00    +0.039 C 
ATOM      7  C   UNL     1     -36.701  32.607   0.795  0.00  0.00    +0.034 C 
ATOM      8  C   UNL     1     -34.223  32.833   2.173  0.00  0.00    -0.004 C 
ATOM      9  C   UNL     1     -34.867  33.962   1.653  0.00  0.00    +0.058 C 
ATOM     10  C   UNL     1     -33.206  30.025   3.139  0.00  0.00    +0.120 C 
ENDROOT
BRANCH   6  13
ATOM     11  O   UNL     1     -35.960  35.923   0.020  0.00  0.00    -0.270 OA
ATOM     12  N   UNL     1     -38.141  35.127   0.456  0.00  0.00    -0.240 N 
ATOM     13  C   UNL     1     -36.723  35.046   0.449  0.00  0.00    +0.250 C 
ATOM     14  N   UNL     1     -38.080  36.514  -1.512  0.00  0.00    -0.229 NA
ATOM     15  C   UNL     1     -38.823  35.893  -0.570  0.00  0.00    +0.138 C 
ATOM     16  C   UNL     1     -40.207  35.939  -0.517  0.00  0.00    +0.035 C 
ATOM     17  C   UNL     1     -40.871  36.671  -1.495  0.00  0.00    +0.004 C 
ATOM     18  C   UNL     1     -38.759  37.216  -2.446  0.00  0.00    +0.100 C 
ATOM     19  C   UNL     1     -40.140  37.325  -2.482  0.00  0.00    +0.021 C 
BRANCH  12  20
ATOM     20  C   UNL     1     -38.923  34.439   1.496  0.00  0.00    +0.112 C 
BRANCH  20  21
ATOM     21  C   UNL     1     -39.413  35.400   2.572  0.00  0.00    +0.131 C 
BRANCH  21  23
ATOM     22  O   UNL     1     -41.658  34.489   2.298  0.00  0.00    -0.250 OA
ATOM     23  C   UNL     1     -40.887  35.242   2.878  0.00  0.00    +0.316 C 
BRANCH  23  24
ATOM     24  O   UNL     1     -41.269  36.048   3.903  0.00  0.00    -0.480 OA
ATOM     25  H   UNL     1     -42.153  36.024   4.214  0.00  0.00    +0.295 HD
ENDBRANCH  23  24
ENDBRANCH  21  23
ENDBRANCH  20  21
ENDBRANCH  12  20
ENDBRANCH   6  13
BRANCH   4  26
ATOM     26  C   UNL     1     -35.295  28.046   2.220  0.00  0.00    +0.164 C 
BRANCH  26  27
ATOM     27  N   UNL     1     -35.642  27.619   3.570  0.00  0.00    -0.326 N 
ATOM     28  H   UNL     1     -35.926  28.303   4.219  0.00  0.00    +0.147 HD
BRANCH  27  29
ATOM     29  C   UNL     1     -35.590  26.306   3.983  0.00  0.00    +0.045 C 
ATOM     30  C   UNL     1     -36.083  25.294   3.158  0.00  0.00    +0.014 C 
ATOM     31  C   UNL     1     -35.046  25.987   5.228  0.00  0.00    +0.014 C 
ATOM     32  C   UNL     1     -36.033  23.966   3.578  0.00  0.00    +0.004 C 
ATOM     33  C   UNL     1     -34.995  24.658   5.647  0.00  0.00    +0.004 C 
ATOM     34  C   UNL     1     -35.488  23.647   4.822  0.00  0.00    +0.031 C 
BRANCH  34  37
ATOM     35  N   UNL     1     -35.129  21.929   6.578  0.00  0.00    -0.343 N 
ATOM     36  N   UNL     1     -35.675  21.290   4.399  0.00  0.00    -0.285 NA
ATOM     37  C   UNL     1     -35.435  22.261   5.260  0.00  0.00    +0.117 C 
ATOM     38  H   UNL     1     -35.098  20.984   6.854  0.00  0.00    +0.144 HD
ATOM     39  H   UNL     1     -34.944  22.639   7.235  0.00  0.00    +0.144 HD
ATOM     40  H   UNL     1     -35.639  20.351   4.692  0.00  0.00    +0.188 HD
ENDBRANCH  34  37
ENDBRANCH  27  29
ENDBRANCH  26  27
ENDBRANCH   4  26
TORSDOF 9
ENDMDL
