MODEL 1
REMARK VINA RESULT:      -7.7      0.000      0.000
REMARK  Name = 5458385
REMARK  3 active torsions:
REMARK  status: ('A' for Active; 'I' for Inactive)
REMARK    1  A    between atoms: C_14  and  C_32
REMARK    2  A    between atoms: C_26  and  O_30
REMARK    3  A    between atoms: C_32  and  C_33
REMARK                            x       y       z     vdW  Elec       q    Type
REMARK                         _______ _______ _______ _____ _____    ______ ____
ROOT
ATOM      1  O   UNL     1     -32.758  27.322  -0.985  0.00  0.00    -0.356 OA
ATOM      2  O   UNL     1     -34.396  26.756   3.311  0.00  0.00    -0.416 OA
ATOM      3  O   UNL     1     -36.922  26.521   2.212  0.00  0.00    -0.271 OA
ATOM      4  O   UNL     1     -33.155  25.980   5.059  0.00  0.00    -0.391 OA
ATOM      5  O   UNL     1     -32.123  27.153   3.403  0.00  0.00    -0.202 OA
ATOM      6  O   UNL     1     -37.032  23.145   3.153  0.00  0.00    -0.293 OA
ATOM      7  N   UNL     1     -36.492  28.752   1.796  0.00  0.00    -0.303 N 
ATOM      8  C   UNL     1     -33.488  28.451  -0.495  0.00  0.00    +0.118 C 
ATOM      9  C   UNL     1     -34.063  27.065  -0.447  0.00  0.00    +0.147 C 
ATOM     10  C   UNL     1     -34.126  28.817   1.898  0.00  0.00    +0.066 C 
ATOM     11  C   UNL     1     -33.023  29.018   0.819  0.00  0.00    +0.033 C 
ATOM     12  C   UNL     1     -34.616  27.327   1.990  0.00  0.00    +0.214 C 
ATOM     13  C   UNL     1     -34.071  26.364   0.890  0.00  0.00    +0.097 C 
ATOM     14  C   UNL     1     -35.392  29.654   1.615  0.00  0.00    +0.080 C 
ATOM     15  C   UNL     1     -33.939  29.359  -1.582  0.00  0.00    +0.032 C 
ATOM     16  C   UNL     1     -36.137  27.437   2.004  0.00  0.00    +0.259 C 
ATOM     17  C   UNL     1     -32.539  30.464   0.717  0.00  0.00    +0.003 C 
ATOM     18  C   UNL     1     -34.775  25.023   0.839  0.00  0.00    -0.025 C 
ATOM     19  C   UNL     1     -34.238  23.865   1.257  0.00  0.00    -0.030 C 
ATOM     20  C   UNL     1     -33.150  26.670   3.864  0.00  0.00    +0.517 C 
ATOM     21  C   UNL     1     -34.959  22.547   1.190  0.00  0.00    +0.033 C 
ATOM     22  C   UNL     1     -35.085  21.860   2.563  0.00  0.00    +0.065 C 
ATOM     23  C   UNL     1     -35.951  22.682   3.528  0.00  0.00    +0.178 C 
ATOM     24  C   UNL     1     -35.712  20.475   2.404  0.00  0.00    +0.008 C 
ATOM     25  C   UNL     1     -34.260  25.151   5.262  0.00  0.00    +0.184 C 
ATOM     26  C   UNL     1     -35.441  22.921   4.961  0.00  0.00    +0.160 C 
ATOM     27  C   UNL     1     -34.277  23.872   4.867  0.00  0.00    +0.048 C 
ATOM     28  C   UNL     1     -35.058  21.631   5.680  0.00  0.00    +0.042 C 
ATOM     29  H   UNL     1     -37.430  29.050   1.773  0.00  0.00    +0.149 HD
ENDROOT
BRANCH  26  30
ATOM     30  O   UNL     1     -36.511  23.523   5.686  0.00  0.00    -0.376 OA
ATOM     31  H   UNL     1     -37.092  22.831   6.039  0.00  0.00    +0.211 HD
ENDBRANCH  26  30
BRANCH  14  32
ATOM     32  C   UNL     1     -35.523  30.848   2.555  0.00  0.00    +0.046 C 
BRANCH  32  33
ATOM     33  C   UNL     1     -36.060  32.060   1.843  0.00  0.00    -0.021 C 
ATOM     34  C   UNL     1     -37.430  32.278   1.798  0.00  0.00    -0.004 C 
ATOM     35  C   UNL     1     -35.177  32.946   1.239  0.00  0.00    -0.004 C 
ATOM     36  C   UNL     1     -37.927  33.401   1.138  0.00  0.00    -0.000 C 
ATOM     37  C   UNL     1     -35.673  34.070   0.580  0.00  0.00    -0.000 C 
ATOM     38  C   UNL     1     -37.049  34.297   0.529  0.00  0.00    -0.000 C 
ENDBRANCH  32  33
ENDBRANCH  14  32
TORSDOF 3
ENDMDL
MODEL 2
REMARK VINA RESULT:      -7.5      2.907      7.885
REMARK  Name = 5458385
REMARK  3 active torsions:
REMARK  status: ('A' for Active; 'I' for Inactive)
REMARK    1  A    between atoms: C_14  and  C_32
REMARK    2  A    between atoms: C_26  and  O_30
REMARK    3  A    between atoms: C_32  and  C_33
REMARK                            x       y       z     vdW  Elec       q    Type
REMARK                         _______ _______ _______ _____ _____    ______ ____
ROOT
ATOM      1  O   UNL     1     -37.813  27.104   1.852  0.00  0.00    -0.356 OA
ATOM      2  O   UNL     1     -34.098  26.010   4.392  0.00  0.00    -0.416 OA
ATOM      3  O   UNL     1     -32.663  25.823   2.036  0.00  0.00    -0.271 OA
ATOM      4  O   UNL     1     -33.827  26.597   6.578  0.00  0.00    -0.391 OA
ATOM      5  O   UNL     1     -35.929  26.250   5.777  0.00  0.00    -0.202 OA
ATOM      6  O   UNL     1     -30.793  28.650   2.933  0.00  0.00    -0.293 OA
ATOM      7  N   UNL     1     -34.062  23.998   1.819  0.00  0.00    -0.303 N 
ATOM      8  C   UNL     1     -37.433  25.729   1.752  0.00  0.00    +0.118 C 
ATOM      9  C   UNL     1     -36.441  26.833   1.536  0.00  0.00    +0.147 C 
ATOM     10  C   UNL     1     -35.834  24.567   3.286  0.00  0.00    +0.066 C 
ATOM     11  C   UNL     1     -37.315  24.980   3.051  0.00  0.00    +0.033 C 
ATOM     12  C   UNL     1     -34.842  25.779   3.163  0.00  0.00    +0.214 C 
ATOM     13  C   UNL     1     -35.465  27.116   2.652  0.00  0.00    +0.097 C 
ATOM     14  C   UNL     1     -35.339  23.520   2.265  0.00  0.00    +0.080 C 
ATOM     15  C   UNL     1     -38.008  25.060   0.554  0.00  0.00    +0.032 C 
ATOM     16  C   UNL     1     -33.720  25.252   2.274  0.00  0.00    +0.259 C 
ATOM     17  C   UNL     1     -38.289  23.809   3.166  0.00  0.00    +0.003 C 
ATOM     18  C   UNL     1     -34.443  28.170   2.278  0.00  0.00    -0.025 C 
ATOM     19  C   UNL     1     -34.188  29.274   3.000  0.00  0.00    -0.030 C 
ATOM     20  C   UNL     1     -34.722  26.285   5.575  0.00  0.00    +0.517 C 
ATOM     21  C   UNL     1     -33.170  30.307   2.602  0.00  0.00    +0.033 C 
ATOM     22  C   UNL     1     -32.091  30.535   3.678  0.00  0.00    +0.065 C 
ATOM     23  C   UNL     1     -31.242  29.276   3.899  0.00  0.00    +0.178 C 
ATOM     24  C   UNL     1     -31.168  31.681   3.264  0.00  0.00    +0.008 C 
ATOM     25  C   UNL     1     -32.563  27.000   6.144  0.00  0.00    +0.184 C 
ATOM     26  C   UNL     1     -30.969  28.810   5.341  0.00  0.00    +0.160 C 
ATOM     27  C   UNL     1     -32.268  28.281   5.891  0.00  0.00    +0.048 C 
ATOM     28  C   UNL     1     -30.389  29.910   6.223  0.00  0.00    +0.042 C 
ATOM     29  H   UNL     1     -33.475  23.469   1.232  0.00  0.00    +0.149 HD
ENDROOT
BRANCH  26  30
ATOM     30  O   UNL     1     -30.006  27.761   5.262  0.00  0.00    -0.376 OA
ATOM     31  H   UNL     1     -30.231  27.067   5.901  0.00  0.00    +0.211 HD
ENDBRANCH  26  30
BRANCH  14  32
ATOM     32  C   UNL     1     -35.203  22.129   2.875  0.00  0.00    +0.046 C 
BRANCH  32  33
ATOM     33  C   UNL     1     -35.481  21.049   1.864  0.00  0.00    -0.021 C 
ATOM     34  C   UNL     1     -36.748  20.943   1.307  0.00  0.00    -0.004 C 
ATOM     35  C   UNL     1     -34.467  20.173   1.503  0.00  0.00    -0.004 C 
ATOM     36  C   UNL     1     -37.006  19.942   0.371  0.00  0.00    -0.000 C 
ATOM     37  C   UNL     1     -34.724  19.172   0.566  0.00  0.00    -0.000 C 
ATOM     38  C   UNL     1     -35.994  19.056  -0.000  0.00  0.00    -0.000 C 
ENDBRANCH  32  33
ENDBRANCH  14  32
TORSDOF 3
ENDMDL
MODEL 3
REMARK VINA RESULT:      -7.4      5.208      7.901
REMARK  Name = 5458385
REMARK  3 active torsions:
REMARK  status: ('A' for Active; 'I' for Inactive)
REMARK    1  A    between atoms: C_14  and  C_32
REMARK    2  A    between atoms: C_26  and  O_30
REMARK    3  A    between atoms: C_32  and  C_33
REMARK                            x       y       z     vdW  Elec       q    Type
REMARK                         _______ _______ _______ _____ _____    ______ ____
ROOT
ATOM      1  O   UNL     1     -35.207  23.309  -1.660  0.00  0.00    -0.356 OA
ATOM      2  O   UNL     1     -34.494  19.437   0.779  0.00  0.00    -0.416 OA
ATOM      3  O   UNL     1     -37.239  19.133   0.915  0.00  0.00    -0.271 OA
ATOM      4  O   UNL     1     -32.587  18.193   0.672  0.00  0.00    -0.391 OA
ATOM      5  O   UNL     1     -32.465  20.438   0.322  0.00  0.00    -0.202 OA
ATOM      6  O   UNL     1     -37.041  16.295  -1.134  0.00  0.00    -0.293 OA
ATOM      7  N   UNL     1     -36.959  20.996   2.252  0.00  0.00    -0.303 N 
ATOM      8  C   UNL     1     -35.531  23.436  -0.273  0.00  0.00    +0.118 C 
ATOM      9  C   UNL     1     -36.077  22.313  -1.105  0.00  0.00    +0.147 C 
ATOM     10  C   UNL     1     -34.861  21.813   1.511  0.00  0.00    +0.066 C 
ATOM     11  C   UNL     1     -34.440  23.069   0.697  0.00  0.00    +0.033 C 
ATOM     12  C   UNL     1     -35.317  20.623   0.592  0.00  0.00    +0.214 C 
ATOM     13  C   UNL     1     -35.450  20.951  -0.928  0.00  0.00    +0.097 C 
ATOM     14  C   UNL     1     -36.051  22.089   2.455  0.00  0.00    +0.080 C 
ATOM     15  C   UNL     1     -36.418  24.596   0.006  0.00  0.00    +0.032 C 
ATOM     16  C   UNL     1     -36.617  20.141   1.227  0.00  0.00    +0.259 C 
ATOM     17  C   UNL     1     -33.997  24.236   1.579  0.00  0.00    +0.003 C 
ATOM     18  C   UNL     1     -36.154  19.877  -1.732  0.00  0.00    -0.025 C 
ATOM     19  C   UNL     1     -35.543  19.044  -2.590  0.00  0.00    -0.030 C 
ATOM     20  C   UNL     1     -33.146  19.449   0.564  0.00  0.00    +0.517 C 
ATOM     21  C   UNL     1     -36.268  17.989  -3.379  0.00  0.00    +0.033 C 
ATOM     22  C   UNL     1     -35.724  16.570  -3.130  0.00  0.00    +0.065 C 
ATOM     23  C   UNL     1     -35.944  16.129  -1.676  0.00  0.00    +0.178 C 
ATOM     24  C   UNL     1     -36.418  15.570  -4.053  0.00  0.00    +0.008 C 
ATOM     25  C   UNL     1     -33.482  17.129   0.539  0.00  0.00    +0.184 C 
ATOM     26  C   UNL     1     -34.771  15.488  -0.911  0.00  0.00    +0.160 C 
ATOM     27  C   UNL     1     -33.764  16.575  -0.646  0.00  0.00    +0.048 C 
ATOM     28  C   UNL     1     -34.148  14.310  -1.653  0.00  0.00    +0.042 C 
ATOM     29  H   UNL     1     -37.764  20.867   2.803  0.00  0.00    +0.149 HD
ENDROOT
BRANCH  26  30
ATOM     30  O   UNL     1     -35.299  14.997   0.320  0.00  0.00    -0.376 OA
ATOM     31  H   UNL     1     -34.588  14.582   0.833  0.00  0.00    +0.211 HD
ENDBRANCH  26  30
BRANCH  14  32
ATOM     32  C   UNL     1     -35.630  22.165   3.918  0.00  0.00    +0.046 C 
BRANCH  32  33
ATOM     33  C   UNL     1     -35.646  23.580   4.429  0.00  0.00    -0.021 C 
ATOM     34  C   UNL     1     -36.705  24.415   4.100  0.00  0.00    -0.004 C 
ATOM     35  C   UNL     1     -34.600  24.033   5.223  0.00  0.00    -0.004 C 
ATOM     36  C   UNL     1     -36.719  25.726   4.573  0.00  0.00    -0.000 C 
ATOM     37  C   UNL     1     -34.615  25.344   5.697  0.00  0.00    -0.000 C 
ATOM     38  C   UNL     1     -35.675  26.192   5.371  0.00  0.00    -0.000 C 
ENDBRANCH  32  33
ENDBRANCH  14  32
TORSDOF 3
ENDMDL
MODEL 4
REMARK VINA RESULT:      -7.1      2.666      8.357
REMARK  Name = 5458385
REMARK  3 active torsions:
REMARK  status: ('A' for Active; 'I' for Inactive)
REMARK    1  A    between atoms: C_14  and  C_32
REMARK    2  A    between atoms: C_26  and  O_30
REMARK    3  A    between atoms: C_32  and  C_33
REMARK                            x       y       z     vdW  Elec       q    Type
REMARK                         _______ _______ _______ _____ _____    ______ ____
ROOT
ATOM      1  O   UNL     1     -38.692  25.015   0.694  0.00  0.00    -0.356 OA
ATOM      2  O   UNL     1     -34.972  24.849   3.448  0.00  0.00    -0.416 OA
ATOM      3  O   UNL     1     -33.412  24.719   1.170  0.00  0.00    -0.271 OA
ATOM      4  O   UNL     1     -34.920  25.667   5.576  0.00  0.00    -0.391 OA
ATOM      5  O   UNL     1     -36.884  24.871   4.743  0.00  0.00    -0.202 OA
ATOM      6  O   UNL     1     -32.126  27.909   1.851  0.00  0.00    -0.293 OA
ATOM      7  N   UNL     1     -34.449  22.657   1.083  0.00  0.00    -0.303 N 
ATOM      8  C   UNL     1     -38.068  23.729   0.739  0.00  0.00    +0.118 C 
ATOM      9  C   UNL     1     -37.280  24.973   0.450  0.00  0.00    +0.147 C 
ATOM     10  C   UNL     1     -36.364  23.020   2.430  0.00  0.00    +0.066 C 
ATOM     11  C   UNL     1     -37.882  23.132   2.108  0.00  0.00    +0.033 C 
ATOM     12  C   UNL     1     -35.601  24.378   2.223  0.00  0.00    +0.214 C 
ATOM     13  C   UNL     1     -36.427  25.527   1.566  0.00  0.00    +0.097 C 
ATOM     14  C   UNL     1     -35.640  21.995   1.531  0.00  0.00    +0.080 C 
ATOM     15  C   UNL     1     -38.453  22.862  -0.406  0.00  0.00    +0.032 C 
ATOM     16  C   UNL     1     -34.360  23.988   1.427  0.00  0.00    +0.259 C 
ATOM     17  C   UNL     1     -38.635  21.818   2.303  0.00  0.00    +0.003 C 
ATOM     18  C   UNL     1     -35.593  26.713   1.126  0.00  0.00    -0.025 C 
ATOM     19  C   UNL     1     -35.577  27.905   1.746  0.00  0.00    -0.030 C 
ATOM     20  C   UNL     1     -35.694  25.109   4.578  0.00  0.00    +0.517 C 
ATOM     21  C   UNL     1     -34.742  29.067   1.284  0.00  0.00    +0.033 C 
ATOM     22  C   UNL     1     -33.776  29.583   2.368  0.00  0.00    +0.065 C 
ATOM     23  C   UNL     1     -32.727  28.525   2.737  0.00  0.00    +0.178 C 
ATOM     24  C   UNL     1     -33.054  30.837   1.876  0.00  0.00    +0.008 C 
ATOM     25  C   UNL     1     -33.728  26.255   5.146  0.00  0.00    +0.184 C 
ATOM     26  C   UNL     1     -32.447  28.247   4.225  0.00  0.00    +0.160 C 
ATOM     27  C   UNL     1     -33.656  27.540   4.781  0.00  0.00    +0.048 C 
ATOM     28  C   UNL     1     -32.119  29.509   5.016  0.00  0.00    +0.042 C 
ATOM     29  H   UNL     1     -33.748  22.194   0.570  0.00  0.00    +0.149 HD
ENDROOT
BRANCH  26  30
ATOM     30  O   UNL     1     -31.308  27.389   4.280  0.00  0.00    -0.376 OA
ATOM     31  H   UNL     1     -31.051  27.252   5.205  0.00  0.00    +0.211 HD
ENDBRANCH  26  30
BRANCH  14  32
ATOM     32  C   UNL     1     -35.288  20.712   2.276  0.00  0.00    +0.046 C 
BRANCH  32  33
ATOM     33  C   UNL     1     -34.796  19.642   1.339  0.00  0.00    -0.021 C 
ATOM     34  C   UNL     1     -33.541  19.083   1.538  0.00  0.00    -0.004 C 
ATOM     35  C   UNL     1     -35.604  19.228   0.289  0.00  0.00    -0.004 C 
ATOM     36  C   UNL     1     -33.085  18.091   0.670  0.00  0.00    -0.000 C 
ATOM     37  C   UNL     1     -35.148  18.236  -0.579  0.00  0.00    -0.000 C 
ATOM     38  C   UNL     1     -33.888  17.667  -0.389  0.00  0.00    -0.000 C 
ENDBRANCH  32  33
ENDBRANCH  14  32
TORSDOF 3
ENDMDL
MODEL 5
REMARK VINA RESULT:      -7.0      1.813      2.650
REMARK  Name = 5458385
REMARK  3 active torsions:
REMARK  status: ('A' for Active; 'I' for Inactive)
REMARK    1  A    between atoms: C_14  and  C_32
REMARK    2  A    between atoms: C_26  and  O_30
REMARK    3  A    between atoms: C_32  and  C_33
REMARK                            x       y       z     vdW  Elec       q    Type
REMARK                         _______ _______ _______ _____ _____    ______ ____
ROOT
ATOM      1  O   UNL     1     -31.820  27.312  -1.063  0.00  0.00    -0.356 OA
ATOM      2  O   UNL     1     -33.744  27.495   3.146  0.00  0.00    -0.416 OA
ATOM      3  O   UNL     1     -36.210  27.648   1.905  0.00  0.00    -0.271 OA
ATOM      4  O   UNL     1     -32.769  26.666   5.033  0.00  0.00    -0.391 OA
ATOM      5  O   UNL     1     -31.445  27.450   3.356  0.00  0.00    -0.202 OA
ATOM      6  O   UNL     1     -37.037  24.465   3.122  0.00  0.00    -0.293 OA
ATOM      7  N   UNL     1     -35.325  29.702   1.329  0.00  0.00    -0.303 N 
ATOM      8  C   UNL     1     -32.333  28.603  -0.721  0.00  0.00    +0.118 C 
ATOM      9  C   UNL     1     -33.174  27.367  -0.594  0.00  0.00    +0.147 C 
ATOM     10  C   UNL     1     -33.000  29.317   1.583  0.00  0.00    +0.066 C 
ATOM     11  C   UNL     1     -31.829  29.194   0.567  0.00  0.00    +0.033 C 
ATOM     12  C   UNL     1     -33.782  27.966   1.770  0.00  0.00    +0.214 C 
ATOM     13  C   UNL     1     -33.387  26.814   0.795  0.00  0.00    +0.097 C 
ATOM     14  C   UNL     1     -34.059  30.352   1.146  0.00  0.00    +0.080 C 
ATOM     15  C   UNL     1     -32.541  29.472  -1.910  0.00  0.00    +0.032 C 
ATOM     16  C   UNL     1     -35.249  28.370   1.673  0.00  0.00    +0.259 C 
ATOM     17  C   UNL     1     -31.062  30.502   0.375  0.00  0.00    +0.003 C 
ATOM     18  C   UNL     1     -34.341  25.636   0.812  0.00  0.00    -0.025 C 
ATOM     19  C   UNL     1     -34.066  24.442   1.362  0.00  0.00    -0.030 C 
ATOM     20  C   UNL     1     -32.569  27.223   3.787  0.00  0.00    +0.517 C 
ATOM     21  C   UNL     1     -35.031  23.289   1.361  0.00  0.00    +0.033 C 
ATOM     22  C   UNL     1     -35.358  22.776   2.776  0.00  0.00    +0.065 C 
ATOM     23  C   UNL     1     -36.089  23.840   3.607  0.00  0.00    +0.178 C 
ATOM     24  C   UNL     1     -36.240  21.530   2.694  0.00  0.00    +0.008 C 
ATOM     25  C   UNL     1     -34.026  26.090   5.233  0.00  0.00    +0.184 C 
ATOM     26  C   UNL     1     -35.611  24.113   5.045  0.00  0.00    +0.160 C 
ATOM     27  C   UNL     1     -34.278  24.807   4.948  0.00  0.00    +0.048 C 
ATOM     28  C   UNL     1     -35.529  22.850   5.896  0.00  0.00    +0.042 C 
ATOM     29  H   UNL     1     -36.182  30.173   1.219  0.00  0.00    +0.149 HD
ENDROOT
BRANCH  26  30
ATOM     30  O   UNL     1     -36.574  24.979   5.643  0.00  0.00    -0.376 OA
ATOM     31  H   UNL     1     -36.203  25.873   5.717  0.00  0.00    +0.211 HD
ENDBRANCH  26  30
BRANCH  14  32
ATOM     32  C   UNL     1     -33.996  31.634   1.969  0.00  0.00    +0.046 C 
BRANCH  32  33
ATOM     33  C   UNL     1     -32.979  31.536   3.075  0.00  0.00    -0.021 C 
ATOM     34  C   UNL     1     -33.231  30.716   4.166  0.00  0.00    -0.004 C 
ATOM     35  C   UNL     1     -31.802  32.267   2.988  0.00  0.00    -0.004 C 
ATOM     36  C   UNL     1     -32.290  30.625   5.190  0.00  0.00    -0.000 C 
ATOM     37  C   UNL     1     -30.859  32.176   4.012  0.00  0.00    -0.000 C 
ATOM     38  C   UNL     1     -31.103  31.355   5.114  0.00  0.00    -0.000 C 
ENDBRANCH  32  33
ENDBRANCH  14  32
TORSDOF 3
ENDMDL
MODEL 6
REMARK VINA RESULT:      -6.9      2.076      3.252
REMARK  Name = 5458385
REMARK  3 active torsions:
REMARK  status: ('A' for Active; 'I' for Inactive)
REMARK    1  A    between atoms: C_14  and  C_32
REMARK    2  A    between atoms: C_26  and  O_30
REMARK    3  A    between atoms: C_32  and  C_33
REMARK                            x       y       z     vdW  Elec       q    Type
REMARK                         _______ _______ _______ _____ _____    ______ ____
ROOT
ATOM      1  O   UNL     1     -31.350  25.875   2.652  0.00  0.00    -0.356 OA
ATOM      2  O   UNL     1     -35.967  26.048   2.976  0.00  0.00    -0.416 OA
ATOM      3  O   UNL     1     -36.034  26.696   0.289  0.00  0.00    -0.271 OA
ATOM      4  O   UNL     1     -37.180  24.929   4.550  0.00  0.00    -0.391 OA
ATOM      5  O   UNL     1     -35.068  25.613   5.057  0.00  0.00    -0.202 OA
ATOM      6  O   UNL     1     -37.529  23.607  -0.434  0.00  0.00    -0.293 OA
ATOM      7  N   UNL     1     -35.089  28.616   1.158  0.00  0.00    -0.303 N 
ATOM      8  C   UNL     1     -31.881  27.203   2.598  0.00  0.00    +0.118 C 
ATOM      9  C   UNL     1     -32.402  26.114   1.706  0.00  0.00    +0.147 C 
ATOM     10  C   UNL     1     -34.220  27.838   3.221  0.00  0.00    +0.066 C 
ATOM     11  C   UNL     1     -32.773  27.603   3.741  0.00  0.00    +0.033 C 
ATOM     12  C   UNL     1     -34.766  26.623   2.388  0.00  0.00    +0.214 C 
ATOM     13  C   UNL     1     -33.732  25.499   2.069  0.00  0.00    +0.097 C 
ATOM     14  C   UNL     1     -34.324  29.062   2.286  0.00  0.00    +0.080 C 
ATOM     15  C   UNL     1     -30.922  28.182   2.021  0.00  0.00    +0.032 C 
ATOM     16  C   UNL     1     -35.369  27.267   1.143  0.00  0.00    +0.259 C 
ATOM     17  C   UNL     1     -32.229  28.779   4.551  0.00  0.00    +0.003 C 
ATOM     18  C   UNL     1     -34.209  24.495   1.038  0.00  0.00    -0.025 C 
ATOM     19  C   UNL     1     -34.576  23.234   1.317  0.00  0.00    -0.030 C 
ATOM     20  C   UNL     1     -35.981  25.540   4.243  0.00  0.00    +0.517 C 
ATOM     21  C   UNL     1     -35.041  22.257   0.272  0.00  0.00    +0.033 C 
ATOM     22  C   UNL     1     -36.448  21.698   0.556  0.00  0.00    +0.065 C 
ATOM     23  C   UNL     1     -37.515  22.800   0.501  0.00  0.00    +0.178 C 
ATOM     24  C   UNL     1     -36.804  20.622  -0.471  0.00  0.00    +0.008 C 
ATOM     25  C   UNL     1     -37.954  24.553   3.450  0.00  0.00    +0.184 C 
ATOM     26  C   UNL     1     -38.555  22.881   1.633  0.00  0.00    +0.160 C 
ATOM     27  C   UNL     1     -37.834  23.354   2.868  0.00  0.00    +0.048 C 
ATOM     28  C   UNL     1     -39.279  21.561   1.873  0.00  0.00    +0.042 C 
ATOM     29  H   UNL     1     -35.391  29.227   0.448  0.00  0.00    +0.149 HD
ENDROOT
BRANCH  26  30
ATOM     30  O   UNL     1     -39.528  23.845   1.233  0.00  0.00    -0.376 OA
ATOM     31  H   UNL     1     -40.221  23.408   0.713  0.00  0.00    +0.211 HD
ENDBRANCH  26  30
BRANCH  14  32
ATOM     32  C   UNL     1     -35.007  30.250   2.955  0.00  0.00    +0.046 C 
BRANCH  32  33
ATOM     33  C   UNL     1     -34.429  31.559   2.489  0.00  0.00    -0.021 C 
ATOM     34  C   UNL     1     -33.128  31.895   2.837  0.00  0.00    -0.004 C 
ATOM     35  C   UNL     1     -35.205  32.415   1.719  0.00  0.00    -0.004 C 
ATOM     36  C   UNL     1     -32.592  33.108   2.405  0.00  0.00    -0.000 C 
ATOM     37  C   UNL     1     -34.670  33.628   1.286  0.00  0.00    -0.000 C 
ATOM     38  C   UNL     1     -33.362  33.975   1.631  0.00  0.00    -0.000 C 
ENDBRANCH  32  33
ENDBRANCH  14  32
TORSDOF 3
ENDMDL
MODEL 7
REMARK VINA RESULT:      -6.9      5.186      9.208
REMARK  Name = 5458385
REMARK  3 active torsions:
REMARK  status: ('A' for Active; 'I' for Inactive)
REMARK    1  A    between atoms: C_14  and  C_32
REMARK    2  A    between atoms: C_26  and  O_30
REMARK    3  A    between atoms: C_32  and  C_33
REMARK                            x       y       z     vdW  Elec       q    Type
REMARK                         _______ _______ _______ _____ _____    ______ ____
ROOT
ATOM      1  O   UNL     1     -37.458  21.393  -3.349  0.00  0.00    -0.356 OA
ATOM      2  O   UNL     1     -38.148  22.624   1.061  0.00  0.00    -0.416 OA
ATOM      3  O   UNL     1     -36.203  24.559   0.724  0.00  0.00    -0.271 OA
ATOM      4  O   UNL     1     -40.088  22.255   2.202  0.00  0.00    -0.391 OA
ATOM      5  O   UNL     1     -39.477  20.805   0.557  0.00  0.00    -0.202 OA
ATOM      6  O   UNL     1     -38.629  27.072   1.033  0.00  0.00    -0.293 OA
ATOM      7  N   UNL     1     -34.913  22.647   0.609  0.00  0.00    -0.303 N 
ATOM      8  C   UNL     1     -36.393  21.012  -2.473  0.00  0.00    +0.118 C 
ATOM      9  C   UNL     1     -36.912  22.419  -2.510  0.00  0.00    +0.147 C 
ATOM     10  C   UNL     1     -36.524  21.010   0.026  0.00  0.00    +0.066 C 
ATOM     11  C   UNL     1     -36.786  20.195  -1.273  0.00  0.00    +0.033 C 
ATOM     12  C   UNL     1     -37.184  22.435  -0.012  0.00  0.00    +0.214 C 
ATOM     13  C   UNL     1     -37.811  22.856  -1.378  0.00  0.00    +0.097 C 
ATOM     14  C   UNL     1     -35.021  21.254   0.280  0.00  0.00    +0.080 C 
ATOM     15  C   UNL     1     -35.131  20.712  -3.200  0.00  0.00    +0.032 C 
ATOM     16  C   UNL     1     -36.077  23.370   0.464  0.00  0.00    +0.259 C 
ATOM     17  C   UNL     1     -36.147  18.807  -1.249  0.00  0.00    +0.003 C 
ATOM     18  C   UNL     1     -38.180  24.324  -1.461  0.00  0.00    -0.025 C 
ATOM     19  C   UNL     1     -39.437  24.796  -1.434  0.00  0.00    -0.030 C 
ATOM     20  C   UNL     1     -39.242  21.819   1.203  0.00  0.00    +0.517 C 
ATOM     21  C   UNL     1     -39.774  26.258  -1.523  0.00  0.00    +0.033 C 
ATOM     22  C   UNL     1     -40.595  26.761  -0.320  0.00  0.00    +0.065 C 
ATOM     23  C   UNL     1     -39.795  26.668   0.986  0.00  0.00    +0.178 C 
ATOM     24  C   UNL     1     -41.009  28.217  -0.537  0.00  0.00    +0.008 C 
ATOM     25  C   UNL     1     -39.937  23.594   2.567  0.00  0.00    +0.184 C 
ATOM     26  C   UNL     1     -40.471  26.055   2.227  0.00  0.00    +0.160 C 
ATOM     27  C   UNL     1     -40.619  24.579   1.970  0.00  0.00    +0.048 C 
ATOM     28  C   UNL     1     -41.809  26.708   2.559  0.00  0.00    +0.042 C 
ATOM     29  H   UNL     1     -34.071  23.054   0.915  0.00  0.00    +0.149 HD
ENDROOT
BRANCH  26  30
ATOM     30  O   UNL     1     -39.593  26.277   3.329  0.00  0.00    -0.376 OA
ATOM     31  H   UNL     1     -39.681  25.549   3.964  0.00  0.00    +0.211 HD
ENDBRANCH  26  30
BRANCH  14  32
ATOM     32  C   UNL     1     -34.475  20.397   1.416  0.00  0.00    +0.046 C 
BRANCH  32  33
ATOM     33  C   UNL     1     -33.201  19.698   1.023  0.00  0.00    -0.021 C 
ATOM     34  C   UNL     1     -32.958  18.409   1.479  0.00  0.00    -0.004 C 
ATOM     35  C   UNL     1     -32.285  20.351   0.210  0.00  0.00    -0.004 C 
ATOM     36  C   UNL     1     -31.778  17.762   1.115  0.00  0.00    -0.000 C 
ATOM     37  C   UNL     1     -31.105  19.704  -0.156  0.00  0.00    -0.000 C 
ATOM     38  C   UNL     1     -30.851  18.409   0.298  0.00  0.00    -0.000 C 
ENDBRANCH  32  33
ENDBRANCH  14  32
TORSDOF 3
ENDMDL
MODEL 8
REMARK VINA RESULT:      -6.9      8.782     11.500
REMARK  Name = 5458385
REMARK  3 active torsions:
REMARK  status: ('A' for Active; 'I' for Inactive)
REMARK    1  A    between atoms: C_14  and  C_32
REMARK    2  A    between atoms: C_26  and  O_30
REMARK    3  A    between atoms: C_32  and  C_33
REMARK                            x       y       z     vdW  Elec       q    Type
REMARK                         _______ _______ _______ _____ _____    ______ ____
ROOT
ATOM      1  O   UNL     1     -46.649  26.134   6.011  0.00  0.00    -0.356 OA
ATOM      2  O   UNL     1     -44.793  29.565   3.515  0.00  0.00    -0.416 OA
ATOM      3  O   UNL     1     -42.346  28.918   4.625  0.00  0.00    -0.271 OA
ATOM      4  O   UNL     1     -45.694  30.369   1.581  0.00  0.00    -0.391 OA
ATOM      5  O   UNL     1     -47.077  29.520   3.177  0.00  0.00    -0.202 OA
ATOM      6  O   UNL     1     -41.203  27.814   1.500  0.00  0.00    -0.293 OA
ATOM      7  N   UNL     1     -43.435  29.763   6.479  0.00  0.00    -0.303 N 
ATOM      8  C   UNL     1     -46.277  27.275   6.790  0.00  0.00    +0.118 C 
ATOM      9  C   UNL     1     -45.313  26.625   5.841  0.00  0.00    +0.147 C 
ATOM     10  C   UNL     1     -45.709  29.526   5.855  0.00  0.00    +0.066 C 
ATOM     11  C   UNL     1     -46.852  28.593   6.347  0.00  0.00    +0.033 C 
ATOM     12  C   UNL     1     -44.793  28.841   4.777  0.00  0.00    +0.214 C 
ATOM     13  C   UNL     1     -45.056  27.324   4.527  0.00  0.00    +0.097 C 
ATOM     14  C   UNL     1     -44.760  29.954   6.995  0.00  0.00    +0.080 C 
ATOM     15  C   UNL     1     -46.150  26.964   8.239  0.00  0.00    +0.032 C 
ATOM     16  C   UNL     1     -43.374  29.143   5.250  0.00  0.00    +0.259 C 
ATOM     17  C   UNL     1     -47.749  29.246   7.398  0.00  0.00    +0.003 C 
ATOM     18  C   UNL     1     -43.985  26.639   3.703  0.00  0.00    -0.025 C 
ATOM     19  C   UNL     1     -44.138  26.250   2.427  0.00  0.00    -0.030 C 
ATOM     20  C   UNL     1     -45.939  29.781   2.804  0.00  0.00    +0.517 C 
ATOM     21  C   UNL     1     -43.058  25.567   1.634  0.00  0.00    +0.033 C 
ATOM     22  C   UNL     1     -42.693  26.321   0.341  0.00  0.00    +0.065 C 
ATOM     23  C   UNL     1     -42.085  27.697   0.644  0.00  0.00    +0.178 C 
ATOM     24  C   UNL     1     -41.685  25.511  -0.474  0.00  0.00    +0.008 C 
ATOM     25  C   UNL     1     -44.386  30.238   1.109  0.00  0.00    +0.184 C 
ATOM     26  C   UNL     1     -42.601  28.922  -0.133  0.00  0.00    +0.160 C 
ATOM     27  C   UNL     1     -43.998  29.203   0.354  0.00  0.00    +0.048 C 
ATOM     28  C   UNL     1     -42.559  28.730  -1.645  0.00  0.00    +0.042 C 
ATOM     29  H   UNL     1     -42.630  30.052   6.967  0.00  0.00    +0.149 HD
ENDROOT
BRANCH  26  30
ATOM     30  O   UNL     1     -41.740  30.012   0.191  0.00  0.00    -0.376 OA
ATOM     31  H   UNL     1     -40.837  29.683   0.320  0.00  0.00    +0.211 HD
ENDBRANCH  26  30
BRANCH  14  32
ATOM     32  C   UNL     1     -44.964  31.408   7.408  0.00  0.00    +0.046 C 
BRANCH  32  33
ATOM     33  C   UNL     1     -45.534  32.231   6.285  0.00  0.00    -0.021 C 
ATOM     34  C   UNL     1     -44.715  32.612   5.231  0.00  0.00    -0.004 C 
ATOM     35  C   UNL     1     -46.873  32.599   6.317  0.00  0.00    -0.004 C 
ATOM     36  C   UNL     1     -45.243  33.375   4.190  0.00  0.00    -0.000 C 
ATOM     37  C   UNL     1     -47.402  33.361   5.275  0.00  0.00    -0.000 C 
ATOM     38  C   UNL     1     -46.586  33.750   4.212  0.00  0.00    -0.000 C 
ENDBRANCH  32  33
ENDBRANCH  14  32
TORSDOF 3
ENDMDL
MODEL 9
REMARK VINA RESULT:      -6.9      3.676      6.346
REMARK  Name = 5458385
REMARK  3 active torsions:
REMARK  status: ('A' for Active; 'I' for Inactive)
REMARK    1  A    between atoms: C_14  and  C_32
REMARK    2  A    between atoms: C_26  and  O_30
REMARK    3  A    between atoms: C_32  and  C_33
REMARK                            x       y       z     vdW  Elec       q    Type
REMARK                         _______ _______ _______ _____ _____    ______ ____
ROOT
ATOM      1  O   UNL     1     -36.039  22.554   4.852  0.00  0.00    -0.356 OA
ATOM      2  O   UNL     1     -38.541  24.683   1.588  0.00  0.00    -0.416 OA
ATOM      3  O   UNL     1     -36.460  24.220  -0.172  0.00  0.00    -0.271 OA
ATOM      4  O   UNL     1     -40.815  24.846   1.625  0.00  0.00    -0.391 OA
ATOM      5  O   UNL     1     -39.679  24.757   3.596  0.00  0.00    -0.202 OA
ATOM      6  O   UNL     1     -38.465  21.979  -1.975  0.00  0.00    -0.293 OA
ATOM      7  N   UNL     1     -35.479  25.767   1.236  0.00  0.00    -0.303 N 
ATOM      8  C   UNL     1     -35.545  23.850   4.505  0.00  0.00    +0.118 C 
ATOM      9  C   UNL     1     -35.832  22.815   3.458  0.00  0.00    +0.147 C 
ATOM     10  C   UNL     1     -36.810  25.560   3.186  0.00  0.00    +0.066 C 
ATOM     11  C   UNL     1     -36.533  24.981   4.602  0.00  0.00    +0.033 C 
ATOM     12  C   UNL     1     -37.218  24.452   2.150  0.00  0.00    +0.214 C 
ATOM     13  C   UNL     1     -37.096  22.978   2.649  0.00  0.00    +0.097 C 
ATOM     14  C   UNL     1     -35.576  26.262   2.579  0.00  0.00    +0.080 C 
ATOM     15  C   UNL     1     -34.131  24.056   4.917  0.00  0.00    +0.032 C 
ATOM     16  C   UNL     1     -36.360  24.754   0.926  0.00  0.00    +0.259 C 
ATOM     17  C   UNL     1     -36.132  26.049   5.619  0.00  0.00    +0.003 C 
ATOM     18  C   UNL     1     -37.223  21.942   1.550  0.00  0.00    -0.025 C 
ATOM     19  C   UNL     1     -38.292  21.149   1.371  0.00  0.00    -0.030 C 
ATOM     20  C   UNL     1     -39.658  24.753   2.371  0.00  0.00    +0.517 C 
ATOM     21  C   UNL     1     -38.388  20.125   0.274  0.00  0.00    +0.033 C 
ATOM     22  C   UNL     1     -39.609  20.336  -0.640  0.00  0.00    +0.065 C 
ATOM     23  C   UNL     1     -39.515  21.661  -1.409  0.00  0.00    +0.178 C 
ATOM     24  C   UNL     1     -39.716  19.193  -1.649  0.00  0.00    +0.008 C 
ATOM     25  C   UNL     1     -40.703  24.425   0.298  0.00  0.00    +0.184 C 
ATOM     26  C   UNL     1     -40.749  22.582  -1.451  0.00  0.00    +0.160 C 
ATOM     27  C   UNL     1     -40.923  23.157  -0.070  0.00  0.00    +0.048 C 
ATOM     28  C   UNL     1     -42.009  21.869  -1.928  0.00  0.00    +0.042 C 
ATOM     29  H   UNL     1     -34.834  26.125   0.585  0.00  0.00    +0.149 HD
ENDROOT
BRANCH  26  30
ATOM     30  O   UNL     1     -40.457  23.622  -2.383  0.00  0.00    -0.376 OA
ATOM     31  H   UNL     1     -39.764  24.195  -2.021  0.00  0.00    +0.211 HD
ENDBRANCH  26  30
BRANCH  14  32
ATOM     32  C   UNL     1     -35.710  27.781   2.577  0.00  0.00    +0.046 C 
BRANCH  32  33
ATOM     33  C   UNL     1     -34.478  28.449   3.123  0.00  0.00    -0.021 C 
ATOM     34  C   UNL     1     -34.341  29.827   3.016  0.00  0.00    -0.004 C 
ATOM     35  C   UNL     1     -33.492  27.680   3.727  0.00  0.00    -0.004 C 
ATOM     36  C   UNL     1     -33.199  30.446   3.522  0.00  0.00    -0.000 C 
ATOM     37  C   UNL     1     -32.350  28.299   4.233  0.00  0.00    -0.000 C 
ATOM     38  C   UNL     1     -32.203  29.683   4.130  0.00  0.00    -0.000 C 
ENDBRANCH  32  33
ENDBRANCH  14  32
TORSDOF 3
ENDMDL
