MODEL 1
REMARK VINA RESULT:      -6.9      0.000      0.000
REMARK  Name = 51710
REMARK  7 active torsions:
REMARK  status: ('A' for Active; 'I' for Inactive)
REMARK    1  A    between atoms: N_2  and  C_21
REMARK    2  A    between atoms: C_5  and  C_11
REMARK    3  A    between atoms: C_11  and  C_14
REMARK    4  A    between atoms: C_21  and  C_22
REMARK    5  A    between atoms: C_22  and  S_23
REMARK    6  A    between atoms: S_23  and  C_24
REMARK    7  A    between atoms: C_24  and  C_27
REMARK                            x       y       z     vdW  Elec       q    Type
REMARK                         _______ _______ _______ _____ _____    ______ ____
ROOT
ATOM      1  O   UNL     1     -35.321  22.597   6.139  0.00  0.00    -0.270 OA
ATOM      2  N   UNL     1     -35.751  20.072   2.266  0.00  0.00    -0.305 N 
ATOM      3  N   UNL     1     -35.549  21.372   4.196  0.00  0.00    -0.254 N 
ATOM      4  N   UNL     1     -36.481  22.301   2.247  0.00  0.00    -0.216 NA
ATOM      5  C   UNL     1     -36.278  23.662   4.241  0.00  0.00    +0.055 C 
ATOM      6  C   UNL     1     -35.672  22.514   4.967  0.00  0.00    +0.249 C 
ATOM      7  C   UNL     1     -35.950  21.286   2.870  0.00  0.00    +0.188 C 
ATOM      8  C   UNL     1     -36.626  23.462   2.961  0.00  0.00    +0.102 C 
ATOM      9  H   UNL     1     -35.346  19.342   2.787  0.00  0.00    +0.149 HD
ATOM     10  H   UNL     1     -35.155  20.572   4.614  0.00  0.00    +0.158 HD
ENDROOT
BRANCH   5  11
ATOM     11  C   UNL     1     -36.461  24.951   4.973  0.00  0.00    +0.059 C 
BRANCH  11  14
ATOM     12  O   UNL     1     -32.355  27.078   6.704  0.00  0.00    -0.435 OA
ATOM     13  O   UNL     1     -31.987  28.298   4.659  0.00  0.00    -0.435 OA
ATOM     14  C   UNL     1     -35.267  25.860   4.854  0.00  0.00    -0.014 C 
ATOM     15  C   UNL     1     -34.394  25.981   5.929  0.00  0.00    +0.036 C 
ATOM     16  C   UNL     1     -33.315  26.826   5.773  0.00  0.00    +0.176 C 
ATOM     17  C   UNL     1     -33.104  27.523   4.604  0.00  0.00    +0.176 C 
ATOM     18  C   UNL     1     -35.062  26.564   3.661  0.00  0.00    -0.001 C 
ATOM     19  C   UNL     1     -33.961  27.414   3.529  0.00  0.00    +0.040 C 
ATOM     20  C   UNL     1     -31.517  28.011   5.993  0.00  0.00    +0.429 C 
ENDBRANCH  11  14
ENDBRANCH   5  11
BRANCH   2  21
ATOM     21  C   UNL     1     -36.112  19.828   0.903  0.00  0.00    +0.101 C 
BRANCH  21  22
ATOM     22  C   UNL     1     -34.881  19.732   0.011  0.00  0.00    +0.079 C 
BRANCH  22  23
ATOM     23  S   UNL     1     -34.098  18.092   0.090  0.00  0.00    -0.132 S 
BRANCH  23  24
ATOM     24  C   UNL     1     -32.887  18.445   1.384  0.00  0.00    +0.099 C 
BRANCH  24  27
ATOM     25  N   UNL     1     -29.597  18.708  -0.097  0.00  0.00    -0.319 N 
ATOM     26  N   UNL     1     -30.728  17.271   1.163  0.00  0.00    -0.318 N 
ATOM     27  C   UNL     1     -31.490  18.359   0.865  0.00  0.00    +0.043 C 
ATOM     28  C   UNL     1     -30.830  19.266   0.093  0.00  0.00    +0.033 C 
ATOM     29  C   UNL     1     -31.204  20.568  -0.480  0.00  0.00    +0.048 C 
ATOM     30  C   UNL     1     -29.583  17.511   0.564  0.00  0.00    +0.181 C 
ATOM     31  H   UNL     1     -28.855  19.097  -0.614  0.00  0.00    +0.148 HD
ATOM     32  H   UNL     1     -30.978  16.486   1.702  0.00  0.00    +0.148 HD
ENDBRANCH  24  27
ENDBRANCH  23  24
ENDBRANCH  22  23
ENDBRANCH  21  22
ENDBRANCH   2  21
TORSDOF 7
ENDMDL
MODEL 2
REMARK VINA RESULT:      -6.9      2.528      4.611
REMARK  Name = 51710
REMARK  7 active torsions:
REMARK  status: ('A' for Active; 'I' for Inactive)
REMARK    1  A    between atoms: N_2  and  C_21
REMARK    2  A    between atoms: C_5  and  C_11
REMARK    3  A    between atoms: C_11  and  C_14
REMARK    4  A    between atoms: C_21  and  C_22
REMARK    5  A    between atoms: C_22  and  S_23
REMARK    6  A    between atoms: S_23  and  C_24
REMARK    7  A    between atoms: C_24  and  C_27
REMARK                            x       y       z     vdW  Elec       q    Type
REMARK                         _______ _______ _______ _____ _____    ______ ____
ROOT
ATOM      1  O   UNL     1     -35.927  22.538   6.085  0.00  0.00    -0.270 OA
ATOM      2  N   UNL     1     -35.214  20.107   2.194  0.00  0.00    -0.305 N 
ATOM      3  N   UNL     1     -35.578  21.361   4.131  0.00  0.00    -0.254 N 
ATOM      4  N   UNL     1     -35.701  22.395   2.022  0.00  0.00    -0.216 NA
ATOM      5  C   UNL     1     -36.081  23.708   4.022  0.00  0.00    +0.055 C 
ATOM      6  C   UNL     1     -35.861  22.501   4.861  0.00  0.00    +0.249 C 
ATOM      7  C   UNL     1     -35.504  21.327   2.745  0.00  0.00    +0.188 C 
ATOM      8  C   UNL     1     -35.984  23.557   2.693  0.00  0.00    +0.102 C 
ATOM      9  H   UNL     1     -35.076  19.336   2.790  0.00  0.00    +0.149 HD
ATOM     10  H   UNL     1     -35.420  20.523   4.623  0.00  0.00    +0.158 HD
ENDROOT
BRANCH   5  11
ATOM     11  C   UNL     1     -36.394  25.001   4.702  0.00  0.00    +0.059 C 
BRANCH  11  14
ATOM     12  O   UNL     1     -32.374  27.005   6.751  0.00  0.00    -0.435 OA
ATOM     13  O   UNL     1     -32.009  28.474   4.876  0.00  0.00    -0.435 OA
ATOM     14  C   UNL     1     -35.224  25.948   4.715  0.00  0.00    -0.014 C 
ATOM     15  C   UNL     1     -34.370  25.959   5.812  0.00  0.00    +0.036 C 
ATOM     16  C   UNL     1     -33.312  26.844   5.779  0.00  0.00    +0.176 C 
ATOM     17  C   UNL     1     -33.104  27.684   4.707  0.00  0.00    +0.176 C 
ATOM     18  C   UNL     1     -35.021  26.797   3.620  0.00  0.00    -0.001 C 
ATOM     19  C   UNL     1     -33.942  27.684   3.612  0.00  0.00    +0.040 C 
ATOM     20  C   UNL     1     -31.551  28.039   6.173  0.00  0.00    +0.429 C 
ENDBRANCH  11  14
ENDBRANCH   5  11
BRANCH   2  21
ATOM     21  C   UNL     1     -35.105  19.913   0.780  0.00  0.00    +0.101 C 
BRANCH  21  22
ATOM     22  C   UNL     1     -35.657  18.557   0.361  0.00  0.00    +0.079 C 
BRANCH  22  23
ATOM     23  S   UNL     1     -37.324  18.682  -0.358  0.00  0.00    -0.132 S 
BRANCH  23  24
ATOM     24  C   UNL     1     -37.418  20.483  -0.482  0.00  0.00    +0.099 C 
BRANCH  24  27
ATOM     25  N   UNL     1     -40.436  21.900   0.920  0.00  0.00    -0.319 N 
ATOM     26  N   UNL     1     -38.543  21.000   1.653  0.00  0.00    -0.318 N 
ATOM     27  C   UNL     1     -38.574  21.025   0.292  0.00  0.00    +0.043 C 
ATOM     28  C   UNL     1     -39.723  21.570  -0.197  0.00  0.00    +0.033 C 
ATOM     29  C   UNL     1     -40.226  21.815  -1.557  0.00  0.00    +0.048 C 
ATOM     30  C   UNL     1     -39.688  21.540   2.007  0.00  0.00    +0.181 C 
ATOM     31  H   UNL     1     -41.326  22.321   0.940  0.00  0.00    +0.148 HD
ATOM     32  H   UNL     1     -37.827  20.658   2.236  0.00  0.00    +0.148 HD
ENDBRANCH  24  27
ENDBRANCH  23  24
ENDBRANCH  22  23
ENDBRANCH  21  22
ENDBRANCH   2  21
TORSDOF 7
ENDMDL
MODEL 3
REMARK VINA RESULT:      -6.8      4.154      7.943
REMARK  Name = 51710
REMARK  7 active torsions:
REMARK  status: ('A' for Active; 'I' for Inactive)
REMARK    1  A    between atoms: N_2  and  C_21
REMARK    2  A    between atoms: C_5  and  C_11
REMARK    3  A    between atoms: C_11  and  C_14
REMARK    4  A    between atoms: C_21  and  C_22
REMARK    5  A    between atoms: C_22  and  S_23
REMARK    6  A    between atoms: S_23  and  C_24
REMARK    7  A    between atoms: C_24  and  C_27
REMARK                            x       y       z     vdW  Elec       q    Type
REMARK                         _______ _______ _______ _____ _____    ______ ____
ROOT
ATOM      1  O   UNL     1     -37.962  21.113   1.155  0.00  0.00    -0.270 OA
ATOM      2  N   UNL     1     -36.818  24.009   4.600  0.00  0.00    -0.305 N 
ATOM      3  N   UNL     1     -37.361  22.535   2.870  0.00  0.00    -0.254 N 
ATOM      4  N   UNL     1     -35.306  22.322   3.994  0.00  0.00    -0.216 NA
ATOM      5  C   UNL     1     -35.854  20.786   2.203  0.00  0.00    +0.055 C 
ATOM      6  C   UNL     1     -37.157  21.473   2.008  0.00  0.00    +0.249 C 
ATOM      7  C   UNL     1     -36.445  22.936   3.834  0.00  0.00    +0.188 C 
ATOM      8  C   UNL     1     -35.048  21.261   3.165  0.00  0.00    +0.102 C 
ATOM      9  H   UNL     1     -37.692  24.432   4.433  0.00  0.00    +0.149 HD
ATOM     10  H   UNL     1     -38.205  23.037   2.797  0.00  0.00    +0.158 HD
ENDROOT
BRANCH   5  11
ATOM     11  C   UNL     1     -35.524  19.622   1.327  0.00  0.00    +0.059 C 
BRANCH  11  14
ATOM     12  O   UNL     1     -31.079  17.472   1.298  0.00  0.00    -0.435 OA
ATOM     13  O   UNL     1     -30.085  19.281   0.055  0.00  0.00    -0.435 OA
ATOM     14  C   UNL     1     -34.063  19.563   0.967  0.00  0.00    -0.014 C 
ATOM     15  C   UNL     1     -33.310  18.462   1.359  0.00  0.00    +0.036 C 
ATOM     16  C   UNL     1     -31.976  18.453   1.007  0.00  0.00    +0.176 C 
ATOM     17  C   UNL     1     -31.408  19.487   0.296  0.00  0.00    +0.176 C 
ATOM     18  C   UNL     1     -33.495  20.619   0.244  0.00  0.00    -0.001 C 
ATOM     19  C   UNL     1     -32.142  20.585  -0.100  0.00  0.00    +0.040 C 
ATOM     20  C   UNL     1     -29.883  18.003   0.692  0.00  0.00    +0.429 C 
ENDBRANCH  11  14
ENDBRANCH   5  11
BRANCH   2  21
ATOM     21  C   UNL     1     -35.982  24.538   5.633  0.00  0.00    +0.101 C 
BRANCH  21  22
ATOM     22  C   UNL     1     -35.556  25.968   5.326  0.00  0.00    +0.079 C 
BRANCH  22  23
ATOM     23  S   UNL     1     -34.033  26.037   4.334  0.00  0.00    -0.132 S 
BRANCH  23  24
ATOM     24  C   UNL     1     -34.613  27.163   3.045  0.00  0.00    +0.099 C 
BRANCH  24  27
ATOM     25  N   UNL     1     -36.899  25.333   0.921  0.00  0.00    -0.319 N 
ATOM     26  N   UNL     1     -36.958  27.086   2.283  0.00  0.00    -0.318 N 
ATOM     27  C   UNL     1     -35.707  26.551   2.235  0.00  0.00    +0.043 C 
ATOM     28  C   UNL     1     -35.630  25.470   1.410  0.00  0.00    +0.033 C 
ATOM     29  C   UNL     1     -34.534  24.566   1.028  0.00  0.00    +0.048 C 
ATOM     30  C   UNL     1     -37.661  26.325   1.473  0.00  0.00    +0.181 C 
ATOM     31  H   UNL     1     -37.208  24.645   0.288  0.00  0.00    +0.148 HD
ATOM     32  H   UNL     1     -37.265  27.864   2.803  0.00  0.00    +0.148 HD
ENDBRANCH  24  27
ENDBRANCH  23  24
ENDBRANCH  22  23
ENDBRANCH  21  22
ENDBRANCH   2  21
TORSDOF 7
ENDMDL
MODEL 4
REMARK VINA RESULT:      -6.7      4.959      8.129
REMARK  Name = 51710
REMARK  7 active torsions:
REMARK  status: ('A' for Active; 'I' for Inactive)
REMARK    1  A    between atoms: N_2  and  C_21
REMARK    2  A    between atoms: C_5  and  C_11
REMARK    3  A    between atoms: C_11  and  C_14
REMARK    4  A    between atoms: C_21  and  C_22
REMARK    5  A    between atoms: C_22  and  S_23
REMARK    6  A    between atoms: S_23  and  C_24
REMARK    7  A    between atoms: C_24  and  C_27
REMARK                            x       y       z     vdW  Elec       q    Type
REMARK                         _______ _______ _______ _____ _____    ______ ____
ROOT
ATOM      1  O   UNL     1     -35.309  27.159   3.281  0.00  0.00    -0.270 OA
ATOM      2  N   UNL     1     -31.298  28.610   5.114  0.00  0.00    -0.305 N 
ATOM      3  N   UNL     1     -33.321  27.858   4.221  0.00  0.00    -0.254 N 
ATOM      4  N   UNL     1     -32.594  27.066   6.313  0.00  0.00    -0.216 NA
ATOM      5  C   UNL     1     -34.694  26.276   5.400  0.00  0.00    +0.055 C 
ATOM      6  C   UNL     1     -34.495  27.127   4.197  0.00  0.00    +0.249 C 
ATOM      7  C   UNL     1     -32.405  27.816   5.263  0.00  0.00    +0.188 C 
ATOM      8  C   UNL     1     -33.741  26.316   6.343  0.00  0.00    +0.102 C 
ATOM      9  H   UNL     1     -31.210  29.156   4.300  0.00  0.00    +0.149 HD
ATOM     10  H   UNL     1     -33.124  28.444   3.455  0.00  0.00    +0.158 HD
ENDROOT
BRANCH   5  11
ATOM     11  C   UNL     1     -35.929  25.440   5.484  0.00  0.00    +0.059 C 
BRANCH  11  14
ATOM     12  O   UNL     1     -35.821  21.996   1.948  0.00  0.00    -0.435 OA
ATOM     13  O   UNL     1     -35.167  20.265   3.494  0.00  0.00    -0.435 OA
ATOM     14  C   UNL     1     -35.715  24.037   4.983  0.00  0.00    -0.014 C 
ATOM     15  C   UNL     1     -35.898  23.761   3.633  0.00  0.00    +0.036 C 
ATOM     16  C   UNL     1     -35.691  22.461   3.221  0.00  0.00    +0.176 C 
ATOM     17  C   UNL     1     -35.318  21.473   4.103  0.00  0.00    +0.176 C 
ATOM     18  C   UNL     1     -35.335  23.039   5.889  0.00  0.00    -0.001 C 
ATOM     19  C   UNL     1     -35.132  21.730   5.445  0.00  0.00    +0.040 C 
ATOM     20  C   UNL     1     -35.487  20.604   2.128  0.00  0.00    +0.429 C 
ENDBRANCH  11  14
ENDBRANCH   5  11
BRANCH   2  21
ATOM     21  C   UNL     1     -30.265  28.675   6.103  0.00  0.00    +0.101 C 
BRANCH  21  22
ATOM     22  C   UNL     1     -29.080  29.498   5.615  0.00  0.00    +0.079 C 
BRANCH  22  23
ATOM     23  S   UNL     1     -29.425  30.339   4.039  0.00  0.00    -0.132 S 
BRANCH  23  24
ATOM     24  C   UNL     1     -28.424  29.289   2.960  0.00  0.00    +0.099 C 
BRANCH  24  27
ATOM     25  N   UNL     1     -29.925  26.160   1.940  0.00  0.00    -0.319 N 
ATOM     26  N   UNL     1     -30.385  28.329   1.810  0.00  0.00    -0.318 N 
ATOM     27  C   UNL     1     -29.204  28.120   2.456  0.00  0.00    +0.043 C 
ATOM     28  C   UNL     1     -28.888  26.800   2.557  0.00  0.00    +0.033 C 
ATOM     29  C   UNL     1     -27.753  26.075   3.150  0.00  0.00    +0.048 C 
ATOM     30  C   UNL     1     -30.799  27.119   1.508  0.00  0.00    +0.181 C 
ATOM     31  H   UNL     1     -30.026  25.187   1.828  0.00  0.00    +0.148 HD
ATOM     32  H   UNL     1     -30.825  29.187   1.615  0.00  0.00    +0.148 HD
ENDBRANCH  24  27
ENDBRANCH  23  24
ENDBRANCH  22  23
ENDBRANCH  21  22
ENDBRANCH   2  21
TORSDOF 7
ENDMDL
MODEL 5
REMARK VINA RESULT:      -6.6      5.381      9.784
REMARK  Name = 51710
REMARK  7 active torsions:
REMARK  status: ('A' for Active; 'I' for Inactive)
REMARK    1  A    between atoms: N_2  and  C_21
REMARK    2  A    between atoms: C_5  and  C_11
REMARK    3  A    between atoms: C_11  and  C_14
REMARK    4  A    between atoms: C_21  and  C_22
REMARK    5  A    between atoms: C_22  and  S_23
REMARK    6  A    between atoms: S_23  and  C_24
REMARK    7  A    between atoms: C_24  and  C_27
REMARK                            x       y       z     vdW  Elec       q    Type
REMARK                         _______ _______ _______ _____ _____    ______ ____
ROOT
ATOM      1  O   UNL     1     -35.649  27.019   3.183  0.00  0.00    -0.270 OA
ATOM      2  N   UNL     1     -31.577  28.720   4.627  0.00  0.00    -0.305 N 
ATOM      3  N   UNL     1     -33.627  27.842   3.931  0.00  0.00    -0.254 N 
ATOM      4  N   UNL     1     -32.697  27.167   5.983  0.00  0.00    -0.216 NA
ATOM      5  C   UNL     1     -34.823  26.249   5.275  0.00  0.00    +0.055 C 
ATOM      6  C   UNL     1     -34.763  27.059   4.030  0.00  0.00    +0.249 C 
ATOM      7  C   UNL     1     -32.629  27.883   4.895  0.00  0.00    +0.188 C 
ATOM      8  C   UNL     1     -33.801  26.369   6.135  0.00  0.00    +0.102 C 
ATOM      9  H   UNL     1     -31.581  29.236   3.789  0.00  0.00    +0.149 HD
ATOM     10  H   UNL     1     -33.521  28.406   3.130  0.00  0.00    +0.158 HD
ENDROOT
BRANCH   5  11
ATOM     11  C   UNL     1     -36.006  25.362   5.491  0.00  0.00    +0.059 C 
BRANCH  11  14
ATOM     12  O   UNL     1     -36.049  21.947   1.925  0.00  0.00    -0.435 OA
ATOM     13  O   UNL     1     -35.248  20.224   3.407  0.00  0.00    -0.435 OA
ATOM     14  C   UNL     1     -35.790  23.969   4.964  0.00  0.00    -0.014 C 
ATOM     15  C   UNL     1     -36.057  23.698   3.627  0.00  0.00    +0.036 C 
ATOM     16  C   UNL     1     -35.845  22.407   3.190  0.00  0.00    +0.176 C 
ATOM     17  C   UNL     1     -35.388  21.422   4.037  0.00  0.00    +0.176 C 
ATOM     18  C   UNL     1     -35.325  22.975   5.833  0.00  0.00    -0.001 C 
ATOM     19  C   UNL     1     -35.118  21.675   5.365  0.00  0.00    +0.040 C 
ATOM     20  C   UNL     1     -35.668  20.564   2.070  0.00  0.00    +0.429 C 
ENDBRANCH  11  14
ENDBRANCH   5  11
BRANCH   2  21
ATOM     21  C   UNL     1     -30.472  28.870   5.524  0.00  0.00    +0.101 C 
BRANCH  21  22
ATOM     22  C   UNL     1     -29.859  30.260   5.422  0.00  0.00    +0.079 C 
BRANCH  22  23
ATOM     23  S   UNL     1     -29.899  30.910   3.723  0.00  0.00    -0.132 S 
BRANCH  23  24
ATOM     24  C   UNL     1     -31.034  32.289   3.999  0.00  0.00    +0.099 C 
BRANCH  24  27
ATOM     25  N   UNL     1     -33.519  32.996   1.468  0.00  0.00    -0.319 N 
ATOM     26  N   UNL     1     -32.562  31.215   2.387  0.00  0.00    -0.318 N 
ATOM     27  C   UNL     1     -32.075  32.364   2.932  0.00  0.00    +0.043 C 
ATOM     28  C   UNL     1     -32.637  33.480   2.392  0.00  0.00    +0.033 C 
ATOM     29  C   UNL     1     -32.455  34.920   2.631  0.00  0.00    +0.048 C 
ATOM     30  C   UNL     1     -33.439  31.631   1.501  0.00  0.00    +0.181 C 
ATOM     31  H   UNL     1     -34.104  33.531   0.884  0.00  0.00    +0.148 HD
ATOM     32  H   UNL     1     -32.315  30.288   2.608  0.00  0.00    +0.148 HD
ENDBRANCH  24  27
ENDBRANCH  23  24
ENDBRANCH  22  23
ENDBRANCH  21  22
ENDBRANCH   2  21
TORSDOF 7
ENDMDL
MODEL 6
REMARK VINA RESULT:      -6.6      1.399      1.809
REMARK  Name = 51710
REMARK  7 active torsions:
REMARK  status: ('A' for Active; 'I' for Inactive)
REMARK    1  A    between atoms: N_2  and  C_21
REMARK    2  A    between atoms: C_5  and  C_11
REMARK    3  A    between atoms: C_11  and  C_14
REMARK    4  A    between atoms: C_21  and  C_22
REMARK    5  A    between atoms: C_22  and  S_23
REMARK    6  A    between atoms: S_23  and  C_24
REMARK    7  A    between atoms: C_24  and  C_27
REMARK                            x       y       z     vdW  Elec       q    Type
REMARK                         _______ _______ _______ _____ _____    ______ ____
ROOT
ATOM      1  O   UNL     1     -35.384  22.356   5.942  0.00  0.00    -0.270 OA
ATOM      2  N   UNL     1     -35.562  20.024   1.931  0.00  0.00    -0.305 N 
ATOM      3  N   UNL     1     -35.485  21.228   3.932  0.00  0.00    -0.254 N 
ATOM      4  N   UNL     1     -36.284  22.255   1.973  0.00  0.00    -0.216 NA
ATOM      5  C   UNL     1     -36.210  23.516   4.040  0.00  0.00    +0.055 C 
ATOM      6  C   UNL     1     -35.657  22.332   4.747  0.00  0.00    +0.249 C 
ATOM      7  C   UNL     1     -35.798  21.208   2.579  0.00  0.00    +0.188 C 
ATOM      8  C   UNL     1     -36.474  23.382   2.732  0.00  0.00    +0.102 C 
ATOM      9  H   UNL     1     -35.194  19.268   2.441  0.00  0.00    +0.149 HD
ATOM     10  H   UNL     1     -35.121  20.406   4.334  0.00  0.00    +0.158 HD
ENDROOT
BRANCH   5  11
ATOM     11  C   UNL     1     -36.438  24.770   4.820  0.00  0.00    +0.059 C 
BRANCH  11  14
ATOM     12  O   UNL     1     -32.517  27.027   6.797  0.00  0.00    -0.435 OA
ATOM     13  O   UNL     1     -32.037  28.225   4.761  0.00  0.00    -0.435 OA
ATOM     14  C   UNL     1     -35.262  25.707   4.769  0.00  0.00    -0.014 C 
ATOM     15  C   UNL     1     -34.469  25.867   5.900  0.00  0.00    +0.036 C 
ATOM     16  C   UNL     1     -33.403  26.737   5.805  0.00  0.00    +0.176 C 
ATOM     17  C   UNL     1     -33.128  27.421   4.642  0.00  0.00    +0.176 C 
ATOM     18  C   UNL     1     -34.991  26.398   3.582  0.00  0.00    -0.001 C 
ATOM     19  C   UNL     1     -33.905  27.274   3.512  0.00  0.00    +0.040 C 
ATOM     20  C   UNL     1     -31.655  27.970   6.129  0.00  0.00    +0.429 C 
ENDBRANCH  11  14
ENDBRANCH   5  11
BRANCH   2  21
ATOM     21  C   UNL     1     -35.833  19.849   0.537  0.00  0.00    +0.101 C 
BRANCH  21  22
ATOM     22  C   UNL     1     -36.833  18.724   0.302  0.00  0.00    +0.079 C 
BRANCH  22  23
ATOM     23  S   UNL     1     -36.233  17.509  -0.911  0.00  0.00    -0.132 S 
BRANCH  23  24
ATOM     24  C   UNL     1     -34.542  18.124  -1.080  0.00  0.00    +0.099 C 
BRANCH  24  27
ATOM     25  N   UNL     1     -31.996  15.986   0.346  0.00  0.00    -0.319 N 
ATOM     26  N   UNL     1     -33.430  15.938  -1.349  0.00  0.00    -0.318 N 
ATOM     27  C   UNL     1     -33.542  17.102  -0.651  0.00  0.00    +0.043 C 
ATOM     28  C   UNL     1     -32.678  17.168   0.399  0.00  0.00    +0.033 C 
ATOM     29  C   UNL     1     -32.417  18.185   1.429  0.00  0.00    +0.048 C 
ATOM     30  C   UNL     1     -32.482  15.280  -0.720  0.00  0.00    +0.181 C 
ATOM     31  H   UNL     1     -31.286  15.695   0.962  0.00  0.00    +0.148 HD
ATOM     32  H   UNL     1     -33.941  15.656  -2.142  0.00  0.00    +0.148 HD
ENDBRANCH  24  27
ENDBRANCH  23  24
ENDBRANCH  22  23
ENDBRANCH  21  22
ENDBRANCH   2  21
TORSDOF 7
ENDMDL
MODEL 7
REMARK VINA RESULT:      -6.6      3.924      7.585
REMARK  Name = 51710
REMARK  7 active torsions:
REMARK  status: ('A' for Active; 'I' for Inactive)
REMARK    1  A    between atoms: N_2  and  C_21
REMARK    2  A    between atoms: C_5  and  C_11
REMARK    3  A    between atoms: C_11  and  C_14
REMARK    4  A    between atoms: C_21  and  C_22
REMARK    5  A    between atoms: C_22  and  S_23
REMARK    6  A    between atoms: S_23  and  C_24
REMARK    7  A    between atoms: C_24  and  C_27
REMARK                            x       y       z     vdW  Elec       q    Type
REMARK                         _______ _______ _______ _____ _____    ______ ____
ROOT
ATOM      1  O   UNL     1     -34.599  17.639  -0.753  0.00  0.00    -0.270 OA
ATOM      2  N   UNL     1     -37.977  20.339   0.938  0.00  0.00    -0.305 N 
ATOM      3  N   UNL     1     -36.254  18.994   0.113  0.00  0.00    -0.254 N 
ATOM      4  N   UNL     1     -35.876  20.373   1.980  0.00  0.00    -0.216 NA
ATOM      5  C   UNL     1     -34.079  18.984   1.136  0.00  0.00    +0.055 C 
ATOM      6  C   UNL     1     -34.977  18.463   0.073  0.00  0.00    +0.249 C 
ATOM      7  C   UNL     1     -36.675  19.925   1.052  0.00  0.00    +0.188 C 
ATOM      8  C   UNL     1     -34.595  19.883   1.988  0.00  0.00    +0.102 C 
ATOM      9  H   UNL     1     -38.533  19.965   0.217  0.00  0.00    +0.149 HD
ATOM     10  H   UNL     1     -36.903  18.693  -0.564  0.00  0.00    +0.158 HD
ENDROOT
BRANCH   5  11
ATOM     11  C   UNL     1     -32.674  18.482   1.191  0.00  0.00    +0.059 C 
BRANCH  11  14
ATOM     12  O   UNL     1     -31.435  22.622  -1.196  0.00  0.00    -0.435 OA
ATOM     13  O   UNL     1     -29.208  21.825  -1.660  0.00  0.00    -0.435 OA
ATOM     14  C   UNL     1     -31.715  19.355   0.427  0.00  0.00    -0.014 C 
ATOM     15  C   UNL     1     -32.131  20.611   0.001  0.00  0.00    +0.036 C 
ATOM     16  C   UNL     1     -31.218  21.375  -0.696  0.00  0.00    +0.176 C 
ATOM     17  C   UNL     1     -29.946  20.920  -0.962  0.00  0.00    +0.176 C 
ATOM     18  C   UNL     1     -30.424  18.883   0.163  0.00  0.00    -0.001 C 
ATOM     19  C   UNL     1     -29.518  19.677  -0.545  0.00  0.00    +0.040 C 
ATOM     20  C   UNL     1     -30.158  22.902  -1.804  0.00  0.00    +0.429 C 
ENDBRANCH  11  14
ENDBRANCH   5  11
BRANCH   2  21
ATOM     21  C   UNL     1     -38.556  21.294   1.832  0.00  0.00    +0.101 C 
BRANCH  21  22
ATOM     22  C   UNL     1     -38.358  22.718   1.327  0.00  0.00    +0.079 C 
BRANCH  22  23
ATOM     23  S   UNL     1     -38.208  23.918   2.686  0.00  0.00    -0.132 S 
BRANCH  23  24
ATOM     24  C   UNL     1     -36.408  23.907   2.845  0.00  0.00    +0.099 C 
BRANCH  24  27
ATOM     25  N   UNL     1     -35.328  23.210   6.226  0.00  0.00    -0.319 N 
ATOM     26  N   UNL     1     -35.907  22.068   4.411  0.00  0.00    -0.318 N 
ATOM     27  C   UNL     1     -35.979  23.409   4.185  0.00  0.00    +0.043 C 
ATOM     28  C   UNL     1     -35.632  24.144   5.277  0.00  0.00    +0.033 C 
ATOM     29  C   UNL     1     -35.550  25.590   5.537  0.00  0.00    +0.048 C 
ATOM     30  C   UNL     1     -35.508  21.978   5.660  0.00  0.00    +0.181 C 
ATOM     31  H   UNL     1     -35.034  23.390   7.148  0.00  0.00    +0.148 HD
ATOM     32  H   UNL     1     -36.107  21.336   3.784  0.00  0.00    +0.148 HD
ENDBRANCH  24  27
ENDBRANCH  23  24
ENDBRANCH  22  23
ENDBRANCH  21  22
ENDBRANCH   2  21
TORSDOF 7
ENDMDL
MODEL 8
REMARK VINA RESULT:      -6.5      4.661      8.452
REMARK  Name = 51710
REMARK  7 active torsions:
REMARK  status: ('A' for Active; 'I' for Inactive)
REMARK    1  A    between atoms: N_2  and  C_21
REMARK    2  A    between atoms: C_5  and  C_11
REMARK    3  A    between atoms: C_11  and  C_14
REMARK    4  A    between atoms: C_21  and  C_22
REMARK    5  A    between atoms: C_22  and  S_23
REMARK    6  A    between atoms: S_23  and  C_24
REMARK    7  A    between atoms: C_24  and  C_27
REMARK                            x       y       z     vdW  Elec       q    Type
REMARK                         _______ _______ _______ _____ _____    ______ ____
ROOT
ATOM      1  O   UNL     1     -37.566  25.034   4.440  0.00  0.00    -0.270 OA
ATOM      2  N   UNL     1     -34.075  28.031   3.814  0.00  0.00    -0.305 N 
ATOM      3  N   UNL     1     -35.807  26.495   4.132  0.00  0.00    -0.254 N 
ATOM      4  N   UNL     1     -33.571  25.768   4.169  0.00  0.00    -0.216 NA
ATOM      5  C   UNL     1     -35.355  24.163   4.500  0.00  0.00    +0.055 C 
ATOM      6  C   UNL     1     -36.361  25.248   4.359  0.00  0.00    +0.249 C 
ATOM      7  C   UNL     1     -34.442  26.730   4.042  0.00  0.00    +0.188 C 
ATOM      8  C   UNL     1     -34.063  24.508   4.395  0.00  0.00    +0.102 C 
ATOM      9  H   UNL     1     -34.778  28.714   3.727  0.00  0.00    +0.149 HD
ATOM     10  H   UNL     1     -36.416  27.261   4.028  0.00  0.00    +0.158 HD
ENDROOT
BRANCH   5  11
ATOM     11  C   UNL     1     -35.838  22.772   4.749  0.00  0.00    +0.059 C 
BRANCH  11  14
ATOM     12  O   UNL     1     -34.239  19.310   1.612  0.00  0.00    -0.435 OA
ATOM     13  O   UNL     1     -36.072  19.678   0.091  0.00  0.00    -0.435 OA
ATOM     14  C   UNL     1     -35.932  21.957   3.487  0.00  0.00    -0.014 C 
ATOM     15  C   UNL     1     -34.958  21.003   3.218  0.00  0.00    +0.036 C 
ATOM     16  C   UNL     1     -35.086  20.281   2.049  0.00  0.00    +0.176 C 
ATOM     17  C   UNL     1     -36.134  20.491   1.180  0.00  0.00    +0.176 C 
ATOM     18  C   UNL     1     -37.001  22.178   2.610  0.00  0.00    -0.001 C 
ATOM     19  C   UNL     1     -37.108  21.434   1.433  0.00  0.00    +0.040 C 
ATOM     20  C   UNL     1     -34.869  18.932   0.371  0.00  0.00    +0.429 C 
ENDBRANCH  11  14
ENDBRANCH   5  11
BRANCH   2  21
ATOM     21  C   UNL     1     -32.706  28.430   3.698  0.00  0.00    +0.101 C 
BRANCH  21  22
ATOM     22  C   UNL     1     -32.317  29.406   4.801  0.00  0.00    +0.079 C 
BRANCH  22  23
ATOM     23  S   UNL     1     -31.800  28.557   6.324  0.00  0.00    -0.132 S 
BRANCH  23  24
ATOM     24  C   UNL     1     -30.159  29.298   6.490  0.00  0.00    +0.099 C 
BRANCH  24  27
ATOM     25  N   UNL     1     -27.600  26.929   5.532  0.00  0.00    -0.319 N 
ATOM     26  N   UNL     1     -28.522  27.693   7.402  0.00  0.00    -0.318 N 
ATOM     27  C   UNL     1     -29.079  28.284   6.309  0.00  0.00    +0.043 C 
ATOM     28  C   UNL     1     -28.538  27.842   5.140  0.00  0.00    +0.033 C 
ATOM     29  C   UNL     1     -28.787  28.162   3.726  0.00  0.00    +0.048 C 
ATOM     30  C   UNL     1     -27.627  26.873   6.898  0.00  0.00    +0.181 C 
ATOM     31  H   UNL     1     -27.012  26.407   4.939  0.00  0.00    +0.148 HD
ATOM     32  H   UNL     1     -28.740  27.845   8.350  0.00  0.00    +0.148 HD
ENDBRANCH  24  27
ENDBRANCH  23  24
ENDBRANCH  22  23
ENDBRANCH  21  22
ENDBRANCH   2  21
TORSDOF 7
ENDMDL
MODEL 9
REMARK VINA RESULT:      -6.5      3.958      8.313
REMARK  Name = 51710
REMARK  7 active torsions:
REMARK  status: ('A' for Active; 'I' for Inactive)
REMARK    1  A    between atoms: N_2  and  C_21
REMARK    2  A    between atoms: C_5  and  C_11
REMARK    3  A    between atoms: C_11  and  C_14
REMARK    4  A    between atoms: C_21  and  C_22
REMARK    5  A    between atoms: C_22  and  S_23
REMARK    6  A    between atoms: S_23  and  C_24
REMARK    7  A    between atoms: C_24  and  C_27
REMARK                            x       y       z     vdW  Elec       q    Type
REMARK                         _______ _______ _______ _____ _____    ______ ____
ROOT
ATOM      1  O   UNL     1     -31.593  23.913  -1.075  0.00  0.00    -0.270 OA
ATOM      2  N   UNL     1     -33.242  26.701   2.252  0.00  0.00    -0.305 N 
ATOM      3  N   UNL     1     -32.440  25.275   0.584  0.00  0.00    -0.254 N 
ATOM      4  N   UNL     1     -34.422  24.742   1.733  0.00  0.00    -0.216 NA
ATOM      5  C   UNL     1     -33.604  23.253   0.007  0.00  0.00    +0.055 C 
ATOM      6  C   UNL     1     -32.448  24.157  -0.231  0.00  0.00    +0.249 C 
ATOM      7  C   UNL     1     -33.413  25.544   1.538  0.00  0.00    +0.188 C 
ATOM      8  C   UNL     1     -34.481  23.615   0.955  0.00  0.00    +0.102 C 
ATOM      9  H   UNL     1     -32.460  27.268   2.059  0.00  0.00    +0.149 HD
ATOM     10  H   UNL     1     -31.702  25.918   0.482  0.00  0.00    +0.158 HD
ENDROOT
BRANCH   5  11
ATOM     11  C   UNL     1     -33.717  22.011  -0.816  0.00  0.00    +0.059 C 
BRANCH  11  14
ATOM     12  O   UNL     1     -30.019  18.879   0.125  0.00  0.00    -0.435 OA
ATOM     13  O   UNL     1     -31.362  17.567   1.636  0.00  0.00    -0.435 OA
ATOM     14  C   UNL     1     -33.116  20.809  -0.138  0.00  0.00    -0.014 C 
ATOM     15  C   UNL     1     -31.791  20.475  -0.396  0.00  0.00    +0.036 C 
ATOM     16  C   UNL     1     -31.284  19.365   0.247  0.00  0.00    +0.176 C 
ATOM     17  C   UNL     1     -32.051  18.615   1.111  0.00  0.00    +0.176 C 
ATOM     18  C   UNL     1     -33.904  20.054   0.738  0.00  0.00    -0.001 C 
ATOM     19  C   UNL     1     -33.366  18.934   1.377  0.00  0.00    +0.040 C 
ATOM     20  C   UNL     1     -30.075  17.740   1.008  0.00  0.00    +0.429 C 
ENDBRANCH  11  14
ENDBRANCH   5  11
BRANCH   2  21
ATOM     21  C   UNL     1     -34.160  27.115   3.268  0.00  0.00    +0.101 C 
BRANCH  21  22
ATOM     22  C   UNL     1     -33.501  27.125   4.642  0.00  0.00    +0.079 C 
BRANCH  22  23
ATOM     23  S   UNL     1     -33.959  25.675   5.639  0.00  0.00    -0.132 S 
BRANCH  23  24
ATOM     24  C   UNL     1     -35.750  25.758   5.410  0.00  0.00    +0.099 C 
BRANCH  24  27
ATOM     25  N   UNL     1     -36.753  22.558   4.052  0.00  0.00    -0.319 N 
ATOM     26  N   UNL     1     -37.036  24.711   3.583  0.00  0.00    -0.318 N 
ATOM     27  C   UNL     1     -36.268  24.553   4.696  0.00  0.00    +0.043 C 
ATOM     28  C   UNL     1     -36.072  23.245   5.017  0.00  0.00    +0.033 C 
ATOM     29  C   UNL     1     -35.339  22.569   6.099  0.00  0.00    +0.048 C 
ATOM     30  C   UNL     1     -37.315  23.481   3.213  0.00  0.00    +0.181 C 
ATOM     31  H   UNL     1     -36.827  21.580   3.975  0.00  0.00    +0.148 HD
ATOM     32  H   UNL     1     -37.316  25.551   3.154  0.00  0.00    +0.148 HD
ENDBRANCH  24  27
ENDBRANCH  23  24
ENDBRANCH  22  23
ENDBRANCH  21  22
ENDBRANCH   2  21
TORSDOF 7
ENDMDL
