MODEL 1
REMARK VINA RESULT:      -6.9      0.000      0.000
REMARK  Name = 5282494
REMARK  9 active torsions:
REMARK  status: ('A' for Active; 'I' for Inactive)
REMARK    1  A    between atoms: C_6  and  C_24
REMARK    2  A    between atoms: C_6  and  O_28
REMARK    3  A    between atoms: C_9  and  O_21
REMARK    4  A    between atoms: C_24  and  C_25
REMARK    5  A    between atoms: C_25  and  O_26
REMARK    6  A    between atoms: O_28  and  C_30
REMARK    7  A    between atoms: C_30  and  C_31
REMARK    8  A    between atoms: C_31  and  C_32
REMARK    9  A    between atoms: C_32  and  C_33
REMARK                            x       y       z     vdW  Elec       q    Type
REMARK                         _______ _______ _______ _____ _____    ______ ____
ROOT
ATOM      1  O   UNL     1     -31.207  17.591   0.980  0.00  0.00    -0.291 OA
ATOM      2  C   UNL     1     -35.677  24.742   1.508  0.00  0.00    +0.043 C 
ATOM      3  C   UNL     1     -35.874  23.440   2.314  0.00  0.00    +0.004 C 
ATOM      4  C   UNL     1     -35.611  22.165   1.498  0.00  0.00    +0.003 C 
ATOM      5  C   UNL     1     -34.134  22.192   0.985  0.00  0.00    +0.030 C 
ATOM      6  C   UNL     1     -36.082  25.778   2.592  0.00  0.00    +0.188 C 
ATOM      7  C   UNL     1     -34.204  24.783   1.049  0.00  0.00    +0.033 C 
ATOM      8  C   UNL     1     -33.723  20.868   0.220  0.00  0.00    +0.018 C 
ATOM      9  C   UNL     1     -33.781  23.527   0.257  0.00  0.00    +0.111 C 
ATOM     10  C   UNL     1     -37.243  23.630   2.964  0.00  0.00    +0.004 C 
ATOM     11  C   UNL     1     -37.299  25.135   3.296  0.00  0.00    +0.047 C 
ATOM     12  C   UNL     1     -35.852  20.917   2.363  0.00  0.00    +0.004 C 
ATOM     13  C   UNL     1     -36.636  24.860   0.291  0.00  0.00    +0.004 C 
ATOM     14  C   UNL     1     -34.111  19.652   1.072  0.00  0.00    -0.042 C 
ATOM     15  C   UNL     1     -35.520  19.637   1.614  0.00  0.00    +0.022 C 
ATOM     16  C   UNL     1     -32.183  20.895   0.002  0.00  0.00    +0.012 C 
ATOM     17  C   UNL     1     -34.420  20.704  -1.150  0.00  0.00    +0.004 C 
ATOM     18  C   UNL     1     -31.594  19.540  -0.356  0.00  0.00    +0.069 C 
ATOM     19  C   UNL     1     -33.294  18.615   1.322  0.00  0.00    +0.029 C 
ATOM     20  C   UNL     1     -31.956  18.523   0.693  0.00  0.00    +0.173 C 
ENDROOT
BRANCH   9  21
ATOM     21  O   UNL     1     -34.352  23.575  -1.043  0.00  0.00    -0.384 OA
ATOM     22  H   UNL     1     -33.950  22.888  -1.598  0.00  0.00    +0.210 HD
ENDBRANCH   9  21
BRANCH   6  24
ATOM     23  O   UNL     1     -37.479  27.459   1.641  0.00  0.00    -0.290 OA
ATOM     24  C   UNL     1     -36.360  27.147   2.047  0.00  0.00    +0.216 C 
BRANCH  24  25
ATOM     25  C   UNL     1     -35.192  28.110   2.025  0.00  0.00    +0.206 C 
BRANCH  25  26
ATOM     26  O   UNL     1     -35.206  28.936   3.170  0.00  0.00    -0.375 OA
ATOM     27  H   UNL     1     -36.048  28.823   3.640  0.00  0.00    +0.211 HD
ENDBRANCH  25  26
ENDBRANCH  24  25
ENDBRANCH   6  24
BRANCH   6  28
ATOM     28  O   UNL     1     -35.037  25.967   3.541  0.00  0.00    -0.449 OA
BRANCH  28  30
ATOM     29  O   UNL     1     -36.389  26.768   5.229  0.00  0.00    -0.250 OA
ATOM     30  C   UNL     1     -35.434  26.110   4.843  0.00  0.00    +0.317 C 
BRANCH  30  31
ATOM     31  C   UNL     1     -34.500  25.320   5.735  0.00  0.00    +0.110 C 
BRANCH  31  32
ATOM     32  C   UNL     1     -34.396  23.859   5.302  0.00  0.00    +0.012 C 
BRANCH  32  33
ATOM     33  C   UNL     1     -35.422  22.990   6.029  0.00  0.00    +0.001 C 
ATOM     34  C   UNL     1     -35.098  21.511   5.888  0.00  0.00    +0.000 C 
ENDBRANCH  32  33
ENDBRANCH  31  32
ENDBRANCH  30  31
ENDBRANCH  28  30
ENDBRANCH   6  28
TORSDOF 9
ENDMDL
MODEL 2
REMARK VINA RESULT:      -6.9      1.212      1.560
REMARK  Name = 5282494
REMARK  9 active torsions:
REMARK  status: ('A' for Active; 'I' for Inactive)
REMARK    1  A    between atoms: C_6  and  C_24
REMARK    2  A    between atoms: C_6  and  O_28
REMARK    3  A    between atoms: C_9  and  O_21
REMARK    4  A    between atoms: C_24  and  C_25
REMARK    5  A    between atoms: C_25  and  O_26
REMARK    6  A    between atoms: O_28  and  C_30
REMARK    7  A    between atoms: C_30  and  C_31
REMARK    8  A    between atoms: C_31  and  C_32
REMARK    9  A    between atoms: C_32  and  C_33
REMARK                            x       y       z     vdW  Elec       q    Type
REMARK                         _______ _______ _______ _____ _____    ______ ____
ROOT
ATOM      1  O   UNL     1     -29.452  18.586   0.209  0.00  0.00    -0.291 OA
ATOM      2  C   UNL     1     -35.951  23.889   1.224  0.00  0.00    +0.043 C 
ATOM      3  C   UNL     1     -35.629  22.619   2.041  0.00  0.00    +0.004 C 
ATOM      4  C   UNL     1     -35.042  21.478   1.197  0.00  0.00    +0.003 C 
ATOM      5  C   UNL     1     -33.714  21.972   0.534  0.00  0.00    +0.030 C 
ATOM      6  C   UNL     1     -36.566  24.767   2.348  0.00  0.00    +0.188 C 
ATOM      7  C   UNL     1     -34.627  24.397   0.617  0.00  0.00    +0.033 C 
ATOM      8  C   UNL     1     -32.968  20.833  -0.275  0.00  0.00    +0.018 C 
ATOM      9  C   UNL     1     -33.894  23.326  -0.220  0.00  0.00    +0.111 C 
ATOM     10  C   UNL     1     -36.912  22.369   2.829  0.00  0.00    +0.004 C 
ATOM     11  C   UNL     1     -37.428  23.783   3.171  0.00  0.00    +0.047 C 
ATOM     12  C   UNL     1     -34.773  20.246   2.077  0.00  0.00    +0.004 C 
ATOM     13  C   UNL     1     -37.010  23.651   0.113  0.00  0.00    +0.004 C 
ATOM     14  C   UNL     1     -32.848  19.583   0.608  0.00  0.00    -0.042 C 
ATOM     15  C   UNL     1     -34.113  19.123   1.292  0.00  0.00    +0.022 C 
ATOM     16  C   UNL     1     -31.552  21.357  -0.650  0.00  0.00    +0.012 C 
ATOM     17  C   UNL     1     -33.704  20.408  -1.566  0.00  0.00    +0.004 C 
ATOM     18  C   UNL     1     -30.589  20.259  -1.072  0.00  0.00    +0.069 C 
ATOM     19  C   UNL     1     -31.715  18.879   0.768  0.00  0.00    +0.029 C 
ATOM     20  C   UNL     1     -30.491  19.212   0.005  0.00  0.00    +0.173 C 
ENDROOT
BRANCH   9  21
ATOM     21  O   UNL     1     -34.574  23.145  -1.455  0.00  0.00    -0.384 OA
ATOM     22  H   UNL     1     -34.313  23.846  -2.073  0.00  0.00    +0.210 HD
ENDBRANCH   9  21
BRANCH   6  24
ATOM     23  O   UNL     1     -36.758  26.900   1.304  0.00  0.00    -0.290 OA
ATOM     24  C   UNL     1     -37.331  25.953   1.841  0.00  0.00    +0.216 C 
BRANCH  24  25
ATOM     25  C   UNL     1     -38.832  25.913   2.028  0.00  0.00    +0.206 C 
BRANCH  25  26
ATOM     26  O   UNL     1     -39.208  26.614   3.195  0.00  0.00    -0.375 OA
ATOM     27  H   UNL     1     -38.474  26.603   3.829  0.00  0.00    +0.211 HD
ENDBRANCH  25  26
ENDBRANCH  24  25
ENDBRANCH   6  24
BRANCH   6  28
ATOM     28  O   UNL     1     -35.553  25.317   3.186  0.00  0.00    -0.449 OA
BRANCH  28  30
ATOM     29  O   UNL     1     -36.984  25.836   4.919  0.00  0.00    -0.250 OA
ATOM     30  C   UNL     1     -35.891  25.478   4.502  0.00  0.00    +0.317 C 
BRANCH  30  31
ATOM     31  C   UNL     1     -34.695  25.140   5.366  0.00  0.00    +0.110 C 
BRANCH  31  32
ATOM     32  C   UNL     1     -34.348  23.654   5.306  0.00  0.00    +0.012 C 
BRANCH  32  33
ATOM     33  C   UNL     1     -35.370  22.813   6.071  0.00  0.00    +0.001 C 
ATOM     34  C   UNL     1     -35.097  21.326   5.915  0.00  0.00    +0.000 C 
ENDBRANCH  32  33
ENDBRANCH  31  32
ENDBRANCH  30  31
ENDBRANCH  28  30
ENDBRANCH   6  28
TORSDOF 9
ENDMDL
MODEL 3
REMARK VINA RESULT:      -6.2      2.325      3.663
REMARK  Name = 5282494
REMARK  9 active torsions:
REMARK  status: ('A' for Active; 'I' for Inactive)
REMARK    1  A    between atoms: C_6  and  C_24
REMARK    2  A    between atoms: C_6  and  O_28
REMARK    3  A    between atoms: C_9  and  O_21
REMARK    4  A    between atoms: C_24  and  C_25
REMARK    5  A    between atoms: C_25  and  O_26
REMARK    6  A    between atoms: O_28  and  C_30
REMARK    7  A    between atoms: C_30  and  C_31
REMARK    8  A    between atoms: C_31  and  C_32
REMARK    9  A    between atoms: C_32  and  C_33
REMARK                            x       y       z     vdW  Elec       q    Type
REMARK                         _______ _______ _______ _____ _____    ______ ____
ROOT
ATOM      1  O   UNL     1     -27.441  18.804   0.501  0.00  0.00    -0.291 OA
ATOM      2  C   UNL     1     -35.391  21.663   0.354  0.00  0.00    +0.043 C 
ATOM      3  C   UNL     1     -34.801  20.550   1.247  0.00  0.00    +0.004 C 
ATOM      4  C   UNL     1     -33.751  19.683   0.536  0.00  0.00    +0.003 C 
ATOM      5  C   UNL     1     -32.572  20.600   0.071  0.00  0.00    +0.030 C 
ATOM      6  C   UNL     1     -36.425  22.265   1.345  0.00  0.00    +0.188 C 
ATOM      7  C   UNL     1     -34.229  22.590  -0.057  0.00  0.00    +0.033 C 
ATOM      8  C   UNL     1     -31.380  19.787  -0.581  0.00  0.00    +0.018 C 
ATOM      9  C   UNL     1     -33.066  21.838  -0.740  0.00  0.00    +0.111 C 
ATOM     10  C   UNL     1     -36.038  19.875   1.835  0.00  0.00    +0.004 C 
ATOM     11  C   UNL     1     -37.034  21.033   2.054  0.00  0.00    +0.047 C 
ATOM     12  C   UNL     1     -33.233  18.587   1.482  0.00  0.00    +0.004 C 
ATOM     13  C   UNL     1     -36.129  21.117  -0.899  0.00  0.00    +0.004 C 
ATOM     14  C   UNL     1     -30.995  18.625   0.345  0.00  0.00    -0.042 C 
ATOM     15  C   UNL     1     -32.130  17.761   0.839  0.00  0.00    +0.022 C 
ATOM     16  C   UNL     1     -30.172  20.755  -0.749  0.00  0.00    +0.012 C 
ATOM     17  C   UNL     1     -31.727  19.176  -1.957  0.00  0.00    +0.004 C 
ATOM     18  C   UNL     1     -28.850  20.043  -0.987  0.00  0.00    +0.069 C 
ATOM     19  C   UNL     1     -29.733  18.327   0.697  0.00  0.00    +0.029 C 
ATOM     20  C   UNL     1     -28.583  19.060   0.122  0.00  0.00    +0.173 C 
ENDROOT
BRANCH   9  21
ATOM     21  O   UNL     1     -33.451  21.474  -2.059  0.00  0.00    -0.384 OA
ATOM     22  H   UNL     1     -34.417  21.508  -2.135  0.00  0.00    +0.210 HD
ENDBRANCH   9  21
BRANCH   6  24
ATOM     23  O   UNL     1     -37.127  24.205   0.154  0.00  0.00    -0.290 OA
ATOM     24  C   UNL     1     -37.447  23.146   0.692  0.00  0.00    +0.216 C 
BRANCH  24  25
ATOM     25  C   UNL     1     -38.880  22.659   0.737  0.00  0.00    +0.206 C 
BRANCH  25  26
ATOM     26  O   UNL     1     -39.649  23.452   1.617  0.00  0.00    -0.375 OA
ATOM     27  H   UNL     1     -39.330  24.368   1.588  0.00  0.00    +0.211 HD
ENDBRANCH  25  26
ENDBRANCH  24  25
ENDBRANCH   6  24
BRANCH   6  28
ATOM     28  O   UNL     1     -35.789  23.096   2.312  0.00  0.00    -0.449 OA
BRANCH  28  30
ATOM     29  O   UNL     1     -37.474  23.677   3.777  0.00  0.00    -0.250 OA
ATOM     30  C   UNL     1     -36.395  23.153   3.538  0.00  0.00    +0.317 C 
BRANCH  30  31
ATOM     31  C   UNL     1     -35.516  22.463   4.558  0.00  0.00    +0.110 C 
BRANCH  31  32
ATOM     32  C   UNL     1     -35.218  23.359   5.758  0.00  0.00    +0.012 C 
BRANCH  32  33
ATOM     33  C   UNL     1     -34.442  24.608   5.339  0.00  0.00    +0.001 C 
ATOM     34  C   UNL     1     -35.231  25.876   5.626  0.00  0.00    +0.000 C 
ENDBRANCH  32  33
ENDBRANCH  31  32
ENDBRANCH  30  31
ENDBRANCH  28  30
ENDBRANCH   6  28
TORSDOF 9
ENDMDL
MODEL 4
REMARK VINA RESULT:      -6.0      1.560      2.392
REMARK  Name = 5282494
REMARK  9 active torsions:
REMARK  status: ('A' for Active; 'I' for Inactive)
REMARK    1  A    between atoms: C_6  and  C_24
REMARK    2  A    between atoms: C_6  and  O_28
REMARK    3  A    between atoms: C_9  and  O_21
REMARK    4  A    between atoms: C_24  and  C_25
REMARK    5  A    between atoms: C_25  and  O_26
REMARK    6  A    between atoms: O_28  and  C_30
REMARK    7  A    between atoms: C_30  and  C_31
REMARK    8  A    between atoms: C_31  and  C_32
REMARK    9  A    between atoms: C_32  and  C_33
REMARK                            x       y       z     vdW  Elec       q    Type
REMARK                         _______ _______ _______ _____ _____    ______ ____
ROOT
ATOM      1  O   UNL     1     -28.631  18.742   0.273  0.00  0.00    -0.291 OA
ATOM      2  C   UNL     1     -35.918  22.985   0.821  0.00  0.00    +0.043 C 
ATOM      3  C   UNL     1     -35.486  21.737   1.622  0.00  0.00    +0.004 C 
ATOM      4  C   UNL     1     -34.659  20.736   0.801  0.00  0.00    +0.003 C 
ATOM      5  C   UNL     1     -33.365  21.450   0.291  0.00  0.00    +0.030 C 
ATOM      6  C   UNL     1     -36.759  23.707   1.909  0.00  0.00    +0.188 C 
ATOM      7  C   UNL     1     -34.634  23.709   0.366  0.00  0.00    +0.033 C 
ATOM      8  C   UNL     1     -32.385  20.473  -0.479  0.00  0.00    +0.018 C 
ATOM      9  C   UNL     1     -33.675  22.798  -0.430  0.00  0.00    +0.111 C 
ATOM     10  C   UNL     1     -36.785  21.264   2.270  0.00  0.00    +0.004 C 
ATOM     11  C   UNL     1     -37.536  22.569   2.609  0.00  0.00    +0.047 C 
ATOM     12  C   UNL     1     -34.290  19.515   1.661  0.00  0.00    +0.004 C 
ATOM     13  C   UNL     1     -36.822  22.648  -0.396  0.00  0.00    +0.004 C 
ATOM     14  C   UNL     1     -32.160  19.213   0.368  0.00  0.00    -0.042 C 
ATOM     15  C   UNL     1     -33.400  18.540   0.907  0.00  0.00    +0.022 C 
ATOM     16  C   UNL     1     -31.034  21.216  -0.694  0.00  0.00    +0.012 C 
ATOM     17  C   UNL     1     -32.925  20.009  -1.850  0.00  0.00    +0.004 C 
ATOM     18  C   UNL     1     -29.882  20.293  -1.057  0.00  0.00    +0.069 C 
ATOM     19  C   UNL     1     -30.954  18.675   0.615  0.00  0.00    +0.029 C 
ATOM     20  C   UNL     1     -29.728  19.219  -0.012  0.00  0.00    +0.173 C 
ENDROOT
BRANCH   9  21
ATOM     21  O   UNL     1     -34.202  22.581  -1.732  0.00  0.00    -0.384 OA
ATOM     22  H   UNL     1     -34.793  21.811  -1.717  0.00  0.00    +0.210 HD
ENDBRANCH   9  21
BRANCH   6  24
ATOM     23  O   UNL     1     -38.816  24.571   1.072  0.00  0.00    -0.290 OA
ATOM     24  C   UNL     1     -37.643  24.792   1.369  0.00  0.00    +0.216 C 
BRANCH  24  25
ATOM     25  C   UNL     1     -37.010  26.158   1.212  0.00  0.00    +0.206 C 
BRANCH  25  26
ATOM     26  O   UNL     1     -37.466  27.037   2.219  0.00  0.00    -0.375 OA
ATOM     27  H   UNL     1     -37.116  27.927   2.053  0.00  0.00    +0.211 HD
ENDBRANCH  25  26
ENDBRANCH  24  25
ENDBRANCH   6  24
BRANCH   6  28
ATOM     28  O   UNL     1     -35.922  24.358   2.861  0.00  0.00    -0.449 OA
BRANCH  28  30
ATOM     29  O   UNL     1     -37.539  24.735   4.462  0.00  0.00    -0.250 OA
ATOM     30  C   UNL     1     -36.404  24.410   4.141  0.00  0.00    +0.317 C 
BRANCH  30  31
ATOM     31  C   UNL     1     -35.309  24.001   5.100  0.00  0.00    +0.110 C 
BRANCH  31  32
ATOM     32  C   UNL     1     -33.990  24.710   4.799  0.00  0.00    +0.012 C 
BRANCH  32  33
ATOM     33  C   UNL     1     -34.083  26.206   5.097  0.00  0.00    +0.001 C 
ATOM     34  C   UNL     1     -33.447  26.548   6.435  0.00  0.00    +0.000 C 
ENDBRANCH  32  33
ENDBRANCH  31  32
ENDBRANCH  30  31
ENDBRANCH  28  30
ENDBRANCH   6  28
TORSDOF 9
ENDMDL
MODEL 5
REMARK VINA RESULT:      -5.9      2.714      7.727
REMARK  Name = 5282494
REMARK  9 active torsions:
REMARK  status: ('A' for Active; 'I' for Inactive)
REMARK    1  A    between atoms: C_6  and  C_24
REMARK    2  A    between atoms: C_6  and  O_28
REMARK    3  A    between atoms: C_9  and  O_21
REMARK    4  A    between atoms: C_24  and  C_25
REMARK    5  A    between atoms: C_25  and  O_26
REMARK    6  A    between atoms: O_28  and  C_30
REMARK    7  A    between atoms: C_30  and  C_31
REMARK    8  A    between atoms: C_31  and  C_32
REMARK    9  A    between atoms: C_32  and  C_33
REMARK                            x       y       z     vdW  Elec       q    Type
REMARK                         _______ _______ _______ _____ _____    ______ ____
ROOT
ATOM      1  O   UNL     1     -33.466  25.523   5.268  0.00  0.00    -0.291 OA
ATOM      2  C   UNL     1     -36.431  19.654  -0.038  0.00  0.00    +0.043 C 
ATOM      3  C   UNL     1     -35.348  20.719  -0.314  0.00  0.00    +0.004 C 
ATOM      4  C   UNL     1     -35.624  22.067   0.370  0.00  0.00    +0.003 C 
ATOM      5  C   UNL     1     -35.692  21.843   1.916  0.00  0.00    +0.030 C 
ATOM      6  C   UNL     1     -35.876  18.495  -0.911  0.00  0.00    +0.188 C 
ATOM      7  C   UNL     1     -36.455  19.403   1.484  0.00  0.00    +0.033 C 
ATOM      8  C   UNL     1     -35.865  23.191   2.728  0.00  0.00    +0.018 C 
ATOM      9  C   UNL     1     -36.670  20.691   2.307  0.00  0.00    +0.111 C 
ATOM     10  C   UNL     1     -35.193  20.682  -1.832  0.00  0.00    +0.004 C 
ATOM     11  C   UNL     1     -35.372  19.193  -2.195  0.00  0.00    +0.047 C 
ATOM     12  C   UNL     1     -34.516  23.077   0.027  0.00  0.00    +0.004 C 
ATOM     13  C   UNL     1     -37.839  20.063  -0.551  0.00  0.00    +0.004 C 
ATOM     14  C   UNL     1     -34.820  24.207   2.248  0.00  0.00    -0.042 C 
ATOM     15  C   UNL     1     -34.711  24.398   0.754  0.00  0.00    +0.022 C 
ATOM     16  C   UNL     1     -35.648  22.877   4.237  0.00  0.00    +0.012 C 
ATOM     17  C   UNL     1     -37.253  23.847   2.548  0.00  0.00    +0.004 C 
ATOM     18  C   UNL     1     -35.392  24.113   5.085  0.00  0.00    +0.069 C 
ATOM     19  C   UNL     1     -34.047  24.938   3.068  0.00  0.00    +0.029 C 
ATOM     20  C   UNL     1     -34.222  24.885   4.537  0.00  0.00    +0.173 C 
ENDROOT
BRANCH   9  21
ATOM     21  O   UNL     1     -38.026  21.102   2.194  0.00  0.00    -0.384 OA
ATOM     22  H   UNL     1     -38.373  20.837   1.328  0.00  0.00    +0.210 HD
ENDBRANCH   9  21
BRANCH   6  24
ATOM     23  O   UNL     1     -37.320  17.207  -2.303  0.00  0.00    -0.290 OA
ATOM     24  C   UNL     1     -36.873  17.405  -1.174  0.00  0.00    +0.216 C 
BRANCH  24  25
ATOM     25  C   UNL     1     -37.291  16.575   0.020  0.00  0.00    +0.206 C 
BRANCH  25  26
ATOM     26  O   UNL     1     -36.387  15.510   0.229  0.00  0.00    -0.375 OA
ATOM     27  H   UNL     1     -36.875  14.672   0.253  0.00  0.00    +0.211 HD
ENDBRANCH  25  26
ENDBRANCH  24  25
ENDBRANCH   6  24
BRANCH   6  28
ATOM     28  O   UNL     1     -34.783  17.843  -0.270  0.00  0.00    -0.449 OA
BRANCH  28  30
ATOM     29  O   UNL     1     -34.055  16.336  -1.858  0.00  0.00    -0.250 OA
ATOM     30  C   UNL     1     -33.856  17.278  -1.103  0.00  0.00    +0.317 C 
BRANCH  30  31
ATOM     31  C   UNL     1     -32.539  18.006  -0.945  0.00  0.00    +0.110 C 
BRANCH  31  32
ATOM     32  C   UNL     1     -32.344  18.534   0.475  0.00  0.00    +0.012 C 
BRANCH  32  33
ATOM     33  C   UNL     1     -32.103  20.043   0.478  0.00  0.00    +0.001 C 
ATOM     34  C   UNL     1     -31.576  20.526  -0.864  0.00  0.00    +0.000 C 
ENDBRANCH  32  33
ENDBRANCH  31  32
ENDBRANCH  30  31
ENDBRANCH  28  30
ENDBRANCH   6  28
TORSDOF 9
ENDMDL
MODEL 6
REMARK VINA RESULT:      -5.9      2.730      6.701
REMARK  Name = 5282494
REMARK  9 active torsions:
REMARK  status: ('A' for Active; 'I' for Inactive)
REMARK    1  A    between atoms: C_6  and  C_24
REMARK    2  A    between atoms: C_6  and  O_28
REMARK    3  A    between atoms: C_9  and  O_21
REMARK    4  A    between atoms: C_24  and  C_25
REMARK    5  A    between atoms: C_25  and  O_26
REMARK    6  A    between atoms: O_28  and  C_30
REMARK    7  A    between atoms: C_30  and  C_31
REMARK    8  A    between atoms: C_31  and  C_32
REMARK    9  A    between atoms: C_32  and  C_33
REMARK                            x       y       z     vdW  Elec       q    Type
REMARK                         _______ _______ _______ _____ _____    ______ ____
ROOT
ATOM      1  O   UNL     1     -31.818  31.156   3.908  0.00  0.00    -0.291 OA
ATOM      2  C   UNL     1     -36.462  24.392   1.890  0.00  0.00    +0.043 C 
ATOM      3  C   UNL     1     -34.928  24.478   2.038  0.00  0.00    +0.004 C 
ATOM      4  C   UNL     1     -34.335  25.805   1.540  0.00  0.00    +0.003 C 
ATOM      5  C   UNL     1     -34.962  26.977   2.363  0.00  0.00    +0.030 C 
ATOM      6  C   UNL     1     -36.688  22.946   2.409  0.00  0.00    +0.188 C 
ATOM      7  C   UNL     1     -37.072  25.521   2.747  0.00  0.00    +0.033 C 
ATOM      8  C   UNL     1     -34.337  28.387   2.002  0.00  0.00    +0.018 C 
ATOM      9  C   UNL     1     -36.521  26.918   2.390  0.00  0.00    +0.111 C 
ATOM     10  C   UNL     1     -34.439  23.172   1.415  0.00  0.00    +0.004 C 
ATOM     11  C   UNL     1     -35.514  22.138   1.809  0.00  0.00    +0.047 C 
ATOM     12  C   UNL     1     -32.805  25.800   1.698  0.00  0.00    +0.004 C 
ATOM     13  C   UNL     1     -36.943  24.498   0.417  0.00  0.00    +0.004 C 
ATOM     14  C   UNL     1     -32.806  28.286   2.045  0.00  0.00    -0.042 C 
ATOM     15  C   UNL     1     -32.191  27.131   1.293  0.00  0.00    +0.022 C 
ATOM     16  C   UNL     1     -34.831  29.418   3.058  0.00  0.00    +0.012 C 
ATOM     17  C   UNL     1     -34.720  28.890   0.593  0.00  0.00    +0.004 C 
ATOM     18  C   UNL     1     -34.019  30.703   3.081  0.00  0.00    +0.069 C 
ATOM     19  C   UNL     1     -32.009  29.169   2.670  0.00  0.00    +0.029 C 
ATOM     20  C   UNL     1     -32.562  30.392   3.296  0.00  0.00    +0.173 C 
ENDROOT
BRANCH   9  21
ATOM     21  O   UNL     1     -37.076  27.342   1.152  0.00  0.00    -0.384 OA
ATOM     22  H   UNL     1     -38.042  27.262   1.187  0.00  0.00    +0.210 HD
ENDBRANCH   9  21
BRANCH   6  24
ATOM     23  O   UNL     1     -39.069  22.889   2.508  0.00  0.00    -0.290 OA
ATOM     24  C   UNL     1     -38.037  22.384   2.068  0.00  0.00    +0.216 C 
BRANCH  24  25
ATOM     25  C   UNL     1     -38.050  21.173   1.161  0.00  0.00    +0.206 C 
BRANCH  25  26
ATOM     26  O   UNL     1     -39.348  20.624   1.080  0.00  0.00    -0.375 OA
ATOM     27  H   UNL     1     -39.712  20.784   0.195  0.00  0.00    +0.211 HD
ENDBRANCH  25  26
ENDBRANCH  24  25
ENDBRANCH   6  24
BRANCH   6  28
ATOM     28  O   UNL     1     -36.618  22.890   3.830  0.00  0.00    -0.449 OA
BRANCH  28  30
ATOM     29  O   UNL     1     -35.567  20.839   3.933  0.00  0.00    -0.250 OA
ATOM     30  C   UNL     1     -35.740  21.977   4.348  0.00  0.00    +0.317 C 
BRANCH  30  31
ATOM     31  C   UNL     1     -35.011  22.598   5.519  0.00  0.00    +0.110 C 
BRANCH  31  32
ATOM     32  C   UNL     1     -35.291  24.095   5.637  0.00  0.00    +0.012 C 
BRANCH  32  33
ATOM     33  C   UNL     1     -34.064  24.922   5.253  0.00  0.00    +0.001 C 
ATOM     34  C   UNL     1     -34.034  26.250   5.991  0.00  0.00    +0.000 C 
ENDBRANCH  32  33
ENDBRANCH  31  32
ENDBRANCH  30  31
ENDBRANCH  28  30
ENDBRANCH   6  28
TORSDOF 9
ENDMDL
MODEL 7
REMARK VINA RESULT:      -5.8      2.333      7.509
REMARK  Name = 5282494
REMARK  9 active torsions:
REMARK  status: ('A' for Active; 'I' for Inactive)
REMARK    1  A    between atoms: C_6  and  C_24
REMARK    2  A    between atoms: C_6  and  O_28
REMARK    3  A    between atoms: C_9  and  O_21
REMARK    4  A    between atoms: C_24  and  C_25
REMARK    5  A    between atoms: C_25  and  O_26
REMARK    6  A    between atoms: O_28  and  C_30
REMARK    7  A    between atoms: C_30  and  C_31
REMARK    8  A    between atoms: C_31  and  C_32
REMARK    9  A    between atoms: C_32  and  C_33
REMARK                            x       y       z     vdW  Elec       q    Type
REMARK                         _______ _______ _______ _____ _____    ______ ____
ROOT
ATOM      1  O   UNL     1     -33.688  26.657   6.324  0.00  0.00    -0.291 OA
ATOM      2  C   UNL     1     -35.963  20.780   0.696  0.00  0.00    +0.043 C 
ATOM      3  C   UNL     1     -34.695  21.661   0.685  0.00  0.00    +0.004 C 
ATOM      4  C   UNL     1     -34.935  23.091   1.195  0.00  0.00    +0.003 C 
ATOM      5  C   UNL     1     -35.456  23.019   2.668  0.00  0.00    +0.030 C 
ATOM      6  C   UNL     1     -35.377  19.483   0.075  0.00  0.00    +0.188 C 
ATOM      7  C   UNL     1     -36.439  20.674   2.160  0.00  0.00    +0.033 C 
ATOM      8  C   UNL     1     -35.634  24.447   3.329  0.00  0.00    +0.018 C 
ATOM      9  C   UNL     1     -36.669  22.050   2.823  0.00  0.00    +0.111 C 
ATOM     10  C   UNL     1     -34.139  21.465  -0.723  0.00  0.00    +0.004 C 
ATOM     11  C   UNL     1     -34.440  19.987  -1.047  0.00  0.00    +0.047 C 
ATOM     12  C   UNL     1     -33.634  23.908   1.129  0.00  0.00    +0.004 C 
ATOM     13  C   UNL     1     -37.096  21.326  -0.214  0.00  0.00    +0.004 C 
ATOM     14  C   UNL     1     -34.354  25.265   3.114  0.00  0.00    -0.042 C 
ATOM     15  C   UNL     1     -33.813  25.303   1.705  0.00  0.00    +0.022 C 
ATOM     16  C   UNL     1     -35.887  24.245   4.851  0.00  0.00    +0.012 C 
ATOM     17  C   UNL     1     -36.801  25.264   2.731  0.00  0.00    +0.004 C 
ATOM     18  C   UNL     1     -35.685  25.507   5.675  0.00  0.00    +0.069 C 
ATOM     19  C   UNL     1     -33.730  25.958   4.082  0.00  0.00    +0.029 C 
ATOM     20  C   UNL     1     -34.305  26.063   5.443  0.00  0.00    +0.173 C 
ENDROOT
BRANCH   9  21
ATOM     21  O   UNL     1     -37.863  22.626   2.311  0.00  0.00    -0.384 OA
ATOM     22  H   UNL     1     -38.499  22.746   3.032  0.00  0.00    +0.210 HD
ENDBRANCH   9  21
BRANCH   6  24
ATOM     23  O   UNL     1     -37.220  18.002   0.375  0.00  0.00    -0.290 OA
ATOM     24  C   UNL     1     -36.419  18.517  -0.405  0.00  0.00    +0.216 C 
BRANCH  24  25
ATOM     25  C   UNL     1     -36.425  18.218  -1.889  0.00  0.00    +0.206 C 
BRANCH  25  26
ATOM     26  O   UNL     1     -35.843  16.957  -2.145  0.00  0.00    -0.375 OA
ATOM     27  H   UNL     1     -36.206  16.302  -1.529  0.00  0.00    +0.211 HD
ENDBRANCH  25  26
ENDBRANCH  24  25
ENDBRANCH   6  24
BRANCH   6  28
ATOM     28  O   UNL     1     -34.614  18.752   1.031  0.00  0.00    -0.449 OA
BRANCH  28  30
ATOM     29  O   UNL     1     -33.541  17.151  -0.237  0.00  0.00    -0.250 OA
ATOM     30  C   UNL     1     -33.518  18.095   0.540  0.00  0.00    +0.317 C 
BRANCH  30  31
ATOM     31  C   UNL     1     -32.266  18.723   1.113  0.00  0.00    +0.110 C 
BRANCH  31  32
ATOM     32  C   UNL     1     -31.002  17.993   0.663  0.00  0.00    +0.012 C 
BRANCH  32  33
ATOM     33  C   UNL     1     -30.013  18.952   0.001  0.00  0.00    +0.001 C 
ATOM     34  C   UNL     1     -30.688  20.250  -0.413  0.00  0.00    +0.000 C 
ENDBRANCH  32  33
ENDBRANCH  31  32
ENDBRANCH  30  31
ENDBRANCH  28  30
ENDBRANCH   6  28
TORSDOF 9
ENDMDL
MODEL 8
REMARK VINA RESULT:      -5.8      2.097      4.192
REMARK  Name = 5282494
REMARK  9 active torsions:
REMARK  status: ('A' for Active; 'I' for Inactive)
REMARK    1  A    between atoms: C_6  and  C_24
REMARK    2  A    between atoms: C_6  and  O_28
REMARK    3  A    between atoms: C_9  and  O_21
REMARK    4  A    between atoms: C_24  and  C_25
REMARK    5  A    between atoms: C_25  and  O_26
REMARK    6  A    between atoms: O_28  and  C_30
REMARK    7  A    between atoms: C_30  and  C_31
REMARK    8  A    between atoms: C_31  and  C_32
REMARK    9  A    between atoms: C_32  and  C_33
REMARK                            x       y       z     vdW  Elec       q    Type
REMARK                         _______ _______ _______ _____ _____    ______ ____
ROOT
ATOM      1  O   UNL     1     -33.980  17.365  -3.260  0.00  0.00    -0.291 OA
ATOM      2  C   UNL     1     -35.885  23.144   2.603  0.00  0.00    +0.043 C 
ATOM      3  C   UNL     1     -34.937  23.298   1.394  0.00  0.00    +0.004 C 
ATOM      4  C   UNL     1     -34.132  22.029   1.078  0.00  0.00    +0.003 C 
ATOM      5  C   UNL     1     -35.128  20.866   0.760  0.00  0.00    +0.030 C 
ATOM      6  C   UNL     1     -36.456  24.587   2.665  0.00  0.00    +0.188 C 
ATOM      7  C   UNL     1     -36.895  22.030   2.259  0.00  0.00    +0.033 C 
ATOM      8  C   UNL     1     -34.398  19.534   0.314  0.00  0.00    +0.018 C 
ATOM      9  C   UNL     1     -36.219  20.699   1.864  0.00  0.00    +0.111 C 
ATOM     10  C   UNL     1     -34.185  24.592   1.696  0.00  0.00    +0.004 C 
ATOM     11  C   UNL     1     -35.237  25.493   2.376  0.00  0.00    +0.047 C 
ATOM     12  C   UNL     1     -33.198  22.272  -0.119  0.00  0.00    +0.004 C 
ATOM     13  C   UNL     1     -35.141  22.823   3.927  0.00  0.00    +0.004 C 
ATOM     14  C   UNL     1     -33.382  19.860  -0.789  0.00  0.00    -0.042 C 
ATOM     15  C   UNL     1     -32.445  21.011  -0.515  0.00  0.00    +0.022 C 
ATOM     16  C   UNL     1     -35.477  18.553  -0.231  0.00  0.00    +0.012 C 
ATOM     17  C   UNL     1     -33.623  18.841   1.457  0.00  0.00    +0.004 C 
ATOM     18  C   UNL     1     -34.902  17.409  -1.050  0.00  0.00    +0.069 C 
ATOM     19  C   UNL     1     -33.266  19.169  -1.935  0.00  0.00    +0.029 C 
ATOM     20  C   UNL     1     -34.067  17.948  -2.181  0.00  0.00    +0.173 C 
ENDROOT
BRANCH   9  21
ATOM     21  O   UNL     1     -35.688  20.077   3.027  0.00  0.00    -0.384 OA
ATOM     22  H   UNL     1     -35.518  19.140   2.843  0.00  0.00    +0.210 HD
ENDBRANCH   9  21
BRANCH   6  24
ATOM     23  O   UNL     1     -38.364  24.766   4.081  0.00  0.00    -0.290 OA
ATOM     24  C   UNL     1     -37.149  24.909   3.955  0.00  0.00    +0.216 C 
BRANCH  24  25
ATOM     25  C   UNL     1     -36.271  25.415   5.080  0.00  0.00    +0.206 C 
BRANCH  25  26
ATOM     26  O   UNL     1     -36.672  26.708   5.482  0.00  0.00    -0.375 OA
ATOM     27  H   UNL     1     -36.027  27.065   6.112  0.00  0.00    +0.211 HD
ENDBRANCH  25  26
ENDBRANCH  24  25
ENDBRANCH   6  24
BRANCH   6  28
ATOM     28  O   UNL     1     -37.444  24.795   1.659  0.00  0.00    -0.449 OA
BRANCH  28  30
ATOM     29  O   UNL     1     -37.797  27.074   1.698  0.00  0.00    -0.250 OA
ATOM     30  C   UNL     1     -37.482  26.048   1.111  0.00  0.00    +0.317 C 
BRANCH  30  31
ATOM     31  C   UNL     1     -37.068  25.967  -0.342  0.00  0.00    +0.110 C 
BRANCH  31  32
ATOM     32  C   UNL     1     -37.391  24.606  -0.953  0.00  0.00    +0.012 C 
BRANCH  32  33
ATOM     33  C   UNL     1     -36.235  24.092  -1.811  0.00  0.00    +0.001 C 
ATOM     34  C   UNL     1     -36.390  22.613  -2.127  0.00  0.00    +0.000 C 
ENDBRANCH  32  33
ENDBRANCH  31  32
ENDBRANCH  30  31
ENDBRANCH  28  30
ENDBRANCH   6  28
TORSDOF 9
ENDMDL
MODEL 9
REMARK VINA RESULT:      -5.7      2.002      7.873
REMARK  Name = 5282494
REMARK  9 active torsions:
REMARK  status: ('A' for Active; 'I' for Inactive)
REMARK    1  A    between atoms: C_6  and  C_24
REMARK    2  A    between atoms: C_6  and  O_28
REMARK    3  A    between atoms: C_9  and  O_21
REMARK    4  A    between atoms: C_24  and  C_25
REMARK    5  A    between atoms: C_25  and  O_26
REMARK    6  A    between atoms: O_28  and  C_30
REMARK    7  A    between atoms: C_30  and  C_31
REMARK    8  A    between atoms: C_31  and  C_32
REMARK    9  A    between atoms: C_32  and  C_33
REMARK                            x       y       z     vdW  Elec       q    Type
REMARK                         _______ _______ _______ _____ _____    ______ ____
ROOT
ATOM      1  O   UNL     1     -35.205  26.522   5.199  0.00  0.00    -0.291 OA
ATOM      2  C   UNL     1     -34.515  19.666   0.308  0.00  0.00    +0.043 C 
ATOM      3  C   UNL     1     -34.305  21.142  -0.094  0.00  0.00    +0.004 C 
ATOM      4  C   UNL     1     -35.272  22.113   0.601  0.00  0.00    +0.003 C 
ATOM      5  C   UNL     1     -35.068  22.004   2.148  0.00  0.00    +0.030 C 
ATOM      6  C   UNL     1     -33.453  18.998  -0.607  0.00  0.00    +0.188 C 
ATOM      7  C   UNL     1     -34.262  19.561   1.827  0.00  0.00    +0.033 C 
ATOM      8  C   UNL     1     -35.943  23.046   2.959  0.00  0.00    +0.018 C 
ATOM      9  C   UNL     1     -35.134  20.530   2.655  0.00  0.00    +0.111 C 
ATOM     10  C   UNL     1     -34.281  21.093  -1.620  0.00  0.00    +0.004 C 
ATOM     11  C   UNL     1     -33.568  19.764  -1.945  0.00  0.00    +0.047 C 
ATOM     12  C   UNL     1     -35.015  23.553   0.129  0.00  0.00    +0.004 C 
ATOM     13  C   UNL     1     -35.926  19.127  -0.053  0.00  0.00    +0.004 C 
ATOM     14  C   UNL     1     -35.750  24.444   2.358  0.00  0.00    -0.042 C 
ATOM     15  C   UNL     1     -35.897  24.554   0.859  0.00  0.00    +0.022 C 
ATOM     16  C   UNL     1     -35.461  23.031   4.439  0.00  0.00    +0.012 C 
ATOM     17  C   UNL     1     -37.458  22.741   2.923  0.00  0.00    +0.004 C 
ATOM     18  C   UNL     1     -35.922  24.237   5.241  0.00  0.00    +0.069 C 
ATOM     19  C   UNL     1     -35.500  25.548   3.082  0.00  0.00    +0.029 C 
ATOM     20  C   UNL     1     -35.490  25.510   4.562  0.00  0.00    +0.173 C 
ENDROOT
BRANCH   9  21
ATOM     21  O   UNL     1     -36.472  20.052   2.685  0.00  0.00    -0.384 OA
ATOM     22  H   UNL     1     -36.471  19.102   2.880  0.00  0.00    +0.210 HD
ENDBRANCH   9  21
BRANCH   6  24
ATOM     23  O   UNL     1     -34.081  17.020  -1.779  0.00  0.00    -0.290 OA
ATOM     24  C   UNL     1     -33.624  17.515  -0.749  0.00  0.00    +0.216 C 
BRANCH  24  25
ATOM     25  C   UNL     1     -33.205  16.675   0.438  0.00  0.00    +0.206 C 
BRANCH  25  26
ATOM     26  O   UNL     1     -31.853  16.284   0.320  0.00  0.00    -0.375 OA
ATOM     27  H   UNL     1     -31.751  15.373   0.638  0.00  0.00    +0.211 HD
ENDBRANCH  25  26
ENDBRANCH  24  25
ENDBRANCH   6  24
BRANCH   6  28
ATOM     28  O   UNL     1     -32.140  19.167  -0.082  0.00  0.00    -0.449 OA
BRANCH  28  30
ATOM     29  O   UNL     1     -30.863  18.484  -1.878  0.00  0.00    -0.250 OA
ATOM     30  C   UNL     1     -31.140  19.298  -1.008  0.00  0.00    +0.317 C 
BRANCH  30  31
ATOM     31  C   UNL     1     -30.429  20.615  -0.787  0.00  0.00    +0.110 C 
BRANCH  31  32
ATOM     32  C   UNL     1     -30.042  21.284  -2.104  0.00  0.00    +0.012 C 
BRANCH  32  33
ATOM     33  C   UNL     1     -31.013  22.408  -2.463  0.00  0.00    +0.001 C 
ATOM     34  C   UNL     1     -31.367  23.248  -1.247  0.00  0.00    +0.000 C 
ENDBRANCH  32  33
ENDBRANCH  31  32
ENDBRANCH  30  31
ENDBRANCH  28  30
ENDBRANCH   6  28
TORSDOF 9
ENDMDL
