MODEL 1
REMARK VINA RESULT:      -7.3      0.000      0.000
REMARK  Name = 54734969
REMARK  8 active torsions:
REMARK  status: ('A' for Active; 'I' for Inactive)
REMARK    1  A    between atoms: N_2  and  C_13
REMARK    2  A    between atoms: C_6  and  C_29
REMARK    3  A    between atoms: C_8  and  C_21
REMARK    4  A    between atoms: C_10  and  O_27
REMARK    5  A    between atoms: N_20  and  C_23
REMARK    6  A    between atoms: C_23  and  C_24
REMARK    7  A    between atoms: C_24  and  O_25
REMARK    8  A    between atoms: C_29  and  C_31
REMARK                            x       y       z     vdW  Elec       q    Type
REMARK                         _______ _______ _______ _____ _____    ______ ____
ROOT
ATOM      1  O   UNL     1     -39.079  24.255   3.417  0.00  0.00    -0.266 OA
ATOM      2  N   UNL     1     -36.943  25.160   3.190  0.00  0.00    -0.273 N 
ATOM      3  N   UNL     1     -35.994  28.187   1.269  0.00  0.00    -0.240 NA
ATOM      4  C   UNL     1     -36.118  26.201   2.656  0.00  0.00    +0.087 A 
ATOM      5  C   UNL     1     -36.693  27.161   1.825  0.00  0.00    +0.131 A 
ATOM      6  C   UNL     1     -34.028  27.419   2.412  0.00  0.00    +0.003 C 
ATOM      7  C   UNL     1     -34.761  26.375   2.968  0.00  0.00    +0.017 C 
ATOM      8  C   UNL     1     -38.920  26.198   2.101  0.00  0.00    +0.145 A 
ATOM      9  C   UNL     1     -38.327  25.128   2.975  0.00  0.00    +0.272 A 
ATOM     10  C   UNL     1     -38.131  27.131   1.542  0.00  0.00    +0.162 A 
ATOM     11  C   UNL     1     -34.683  28.287   1.566  0.00  0.00    +0.095 C 
ENDROOT
BRANCH   2  13
ATOM     12  F   UNL     1     -34.586  21.039   6.087  0.00  0.00    -0.204 F 
ATOM     13  C   UNL     1     -36.335  24.098   3.937  0.00  0.00    +0.067 C 
ATOM     14  C   UNL     1     -36.086  22.870   3.325  0.00  0.00    +0.020 C 
ATOM     15  C   UNL     1     -35.993  24.294   5.275  0.00  0.00    +0.020 C 
ATOM     16  C   UNL     1     -35.495  21.837   4.051  0.00  0.00    +0.031 C 
ATOM     17  C   UNL     1     -35.402  23.260   6.001  0.00  0.00    +0.031 C 
ATOM     18  C   UNL     1     -35.153  22.031   5.390  0.00  0.00    +0.140 C 
ENDBRANCH   2  13
BRANCH   8  21
ATOM     19  O   UNL     1     -40.817  25.913   0.747  0.00  0.00    -0.270 OA
ATOM     20  N   UNL     1     -41.102  26.537   2.976  0.00  0.00    -0.298 N 
ATOM     21  C   UNL     1     -40.375  26.196   1.855  0.00  0.00    +0.254 C 
ATOM     22  H   UNL     1     -40.617  26.742   3.807  0.00  0.00    +0.150 HD
BRANCH  20  23
ATOM     23  C   UNL     1     -42.546  26.606   2.986  0.00  0.00    +0.122 C 
BRANCH  23  24
ATOM     24  C   UNL     1     -43.039  27.853   3.698  0.00  0.00    +0.158 C 
BRANCH  24  25
ATOM     25  O   UNL     1     -41.949  28.476   4.367  0.00  0.00    -0.380 OA
ATOM     26  H   UNL     1     -41.153  28.413   3.817  0.00  0.00    +0.211 HD
ENDBRANCH  24  25
ENDBRANCH  23  24
ENDBRANCH  20  23
ENDBRANCH   8  21
BRANCH  10  27
ATOM     27  O   UNL     1     -38.549  28.138   0.696  0.00  0.00    -0.504 OA
ATOM     28  H   UNL     1     -37.920  28.622   0.197  0.00  0.00    +0.292 HD
ENDBRANCH  10  27
BRANCH   6  29
ATOM     29  C   UNL     1     -32.584  27.592   2.723  0.00  0.00    +0.054 C 
BRANCH  29  31
ATOM     30  F   UNL     1     -31.576  29.885   7.783  0.00  0.00    -0.204 F 
ATOM     31  C   UNL     1     -32.313  28.208   4.083  0.00  0.00    -0.018 C 
ATOM     32  C   UNL     1     -32.413  27.427   5.234  0.00  0.00    -0.002 C 
ATOM     33  C   UNL     1     -31.964  29.555   4.180  0.00  0.00    -0.002 C 
ATOM     34  C   UNL     1     -32.163  27.994   6.484  0.00  0.00    +0.029 C 
ATOM     35  C   UNL     1     -31.714  30.122   5.430  0.00  0.00    +0.029 C 
ATOM     36  C   UNL     1     -31.814  29.341   6.582  0.00  0.00    +0.140 C 
ENDBRANCH  29  31
ENDBRANCH   6  29
TORSDOF 8
ENDMDL
MODEL 2
REMARK VINA RESULT:      -7.2      3.253      6.415
REMARK  Name = 54734969
REMARK  8 active torsions:
REMARK  status: ('A' for Active; 'I' for Inactive)
REMARK    1  A    between atoms: N_2  and  C_13
REMARK    2  A    between atoms: C_6  and  C_29
REMARK    3  A    between atoms: C_8  and  C_21
REMARK    4  A    between atoms: C_10  and  O_27
REMARK    5  A    between atoms: N_20  and  C_23
REMARK    6  A    between atoms: C_23  and  C_24
REMARK    7  A    between atoms: C_24  and  O_25
REMARK    8  A    between atoms: C_29  and  C_31
REMARK                            x       y       z     vdW  Elec       q    Type
REMARK                         _______ _______ _______ _____ _____    ______ ____
ROOT
ATOM      1  O   UNL     1     -38.661  26.385   3.075  0.00  0.00    -0.266 OA
ATOM      2  N   UNL     1     -37.329  24.472   3.052  0.00  0.00    -0.273 N 
ATOM      3  N   UNL     1     -38.221  21.149   1.667  0.00  0.00    -0.240 NA
ATOM      4  C   UNL     1     -37.183  23.101   2.665  0.00  0.00    +0.087 A 
ATOM      5  C   UNL     1     -38.260  22.448   2.068  0.00  0.00    +0.131 A 
ATOM      6  C   UNL     1     -35.930  21.038   2.373  0.00  0.00    +0.003 C 
ATOM      7  C   UNL     1     -35.992  22.368   2.779  0.00  0.00    +0.017 C 
ATOM      8  C   UNL     1     -39.619  24.477   2.091  0.00  0.00    +0.145 A 
ATOM      9  C   UNL     1     -38.490  25.202   2.767  0.00  0.00    +0.272 A 
ATOM     10  C   UNL     1     -39.507  23.170   1.796  0.00  0.00    +0.162 A 
ATOM     11  C   UNL     1     -37.066  20.475   1.836  0.00  0.00    +0.095 C 
ENDROOT
BRANCH   2  13
ATOM     12  F   UNL     1     -33.231  26.947   5.884  0.00  0.00    -0.204 F 
ATOM     13  C   UNL     1     -36.273  25.110   3.782  0.00  0.00    +0.067 C 
ATOM     14  C   UNL     1     -35.292  25.829   3.101  0.00  0.00    +0.020 C 
ATOM     15  C   UNL     1     -36.228  25.010   5.173  0.00  0.00    +0.020 C 
ATOM     16  C   UNL     1     -34.264  26.450   3.811  0.00  0.00    +0.031 C 
ATOM     17  C   UNL     1     -35.200  25.631   5.882  0.00  0.00    +0.031 C 
ATOM     18  C   UNL     1     -34.218  26.351   5.203  0.00  0.00    +0.140 C 
ENDBRANCH   2  13
BRANCH   8  21
ATOM     19  O   UNL     1     -41.286  25.246   0.627  0.00  0.00    -0.270 OA
ATOM     20  N   UNL     1     -41.411  25.821   2.884  0.00  0.00    -0.298 N 
ATOM     21  C   UNL     1     -40.857  25.216   1.774  0.00  0.00    +0.254 C 
ATOM     22  H   UNL     1     -40.959  25.714   3.752  0.00  0.00    +0.150 HD
BRANCH  20  23
ATOM     23  C   UNL     1     -42.625  26.604   2.829  0.00  0.00    +0.122 C 
BRANCH  23  24
ATOM     24  C   UNL     1     -42.544  27.819   3.734  0.00  0.00    +0.158 C 
BRANCH  24  25
ATOM     25  O   UNL     1     -41.306  27.806   4.434  0.00  0.00    -0.380 OA
ATOM     26  H   UNL     1     -41.173  28.662   4.871  0.00  0.00    +0.211 HD
ENDBRANCH  24  25
ENDBRANCH  23  24
ENDBRANCH  20  23
ENDBRANCH   8  21
BRANCH  10  27
ATOM     27  O   UNL     1     -40.482  22.389   1.213  0.00  0.00    -0.504 OA
ATOM     28  H   UNL     1     -40.606  21.504   1.497  0.00  0.00    +0.292 HD
ENDBRANCH  10  27
BRANCH   6  29
ATOM     29  C   UNL     1     -34.675  20.253   2.514  0.00  0.00    +0.054 C 
BRANCH  29  31
ATOM     30  F   UNL     1     -32.087  19.143  -2.381  0.00  0.00    -0.204 F 
ATOM     31  C   UNL     1     -33.980  19.954   1.198  0.00  0.00    -0.018 C 
ATOM     32  C   UNL     1     -33.716  18.634   0.833  0.00  0.00    -0.002 C 
ATOM     33  C   UNL     1     -33.604  21.001   0.356  0.00  0.00    -0.002 C 
ATOM     34  C   UNL     1     -33.078  18.361  -0.377  0.00  0.00    +0.029 C 
ATOM     35  C   UNL     1     -32.966  20.727  -0.854  0.00  0.00    +0.029 C 
ATOM     36  C   UNL     1     -32.702  19.407  -1.220  0.00  0.00    +0.140 C 
ENDBRANCH  29  31
ENDBRANCH   6  29
TORSDOF 8
ENDMDL
MODEL 3
REMARK VINA RESULT:      -7.1      4.679      7.041
REMARK  Name = 54734969
REMARK  8 active torsions:
REMARK  status: ('A' for Active; 'I' for Inactive)
REMARK    1  A    between atoms: N_2  and  C_13
REMARK    2  A    between atoms: C_6  and  C_29
REMARK    3  A    between atoms: C_8  and  C_21
REMARK    4  A    between atoms: C_10  and  O_27
REMARK    5  A    between atoms: N_20  and  C_23
REMARK    6  A    between atoms: C_23  and  C_24
REMARK    7  A    between atoms: C_24  and  O_25
REMARK    8  A    between atoms: C_29  and  C_31
REMARK                            x       y       z     vdW  Elec       q    Type
REMARK                         _______ _______ _______ _____ _____    ______ ____
ROOT
ATOM      1  O   UNL     1     -38.522  23.266   2.278  0.00  0.00    -0.266 OA
ATOM      2  N   UNL     1     -36.635  21.907   2.119  0.00  0.00    -0.273 N 
ATOM      3  N   UNL     1     -36.312  18.756   0.188  0.00  0.00    -0.240 NA
ATOM      4  C   UNL     1     -36.027  20.739   1.557  0.00  0.00    +0.087 A 
ATOM      5  C   UNL     1     -36.796  19.889   0.765  0.00  0.00    +0.131 A 
ATOM      6  C   UNL     1     -34.151  19.260   1.104  0.00  0.00    +0.003 C 
ATOM      7  C   UNL     1     -34.669  20.413   1.688  0.00  0.00    +0.017 C 
ATOM      8  C   UNL     1     -38.747  21.348   0.937  0.00  0.00    +0.145 A 
ATOM      9  C   UNL     1     -37.956  22.269   1.823  0.00  0.00    +0.272 A 
ATOM     10  C   UNL     1     -38.196  20.214   0.471  0.00  0.00    +0.162 A 
ATOM     11  C   UNL     1     -35.010  18.465   0.378  0.00  0.00    +0.095 C 
ENDROOT
BRANCH   2  13
ATOM     12  F   UNL     1     -33.732  25.037   5.684  0.00  0.00    -0.204 F 
ATOM     13  C   UNL     1     -35.887  22.713   3.038  0.00  0.00    +0.067 C 
ATOM     14  C   UNL     1     -35.184  23.825   2.576  0.00  0.00    +0.020 C 
ATOM     15  C   UNL     1     -35.863  22.385   4.394  0.00  0.00    +0.020 C 
ATOM     16  C   UNL     1     -34.456  24.611   3.470  0.00  0.00    +0.031 C 
ATOM     17  C   UNL     1     -35.134  23.171   5.287  0.00  0.00    +0.031 C 
ATOM     18  C   UNL     1     -34.431  24.283   4.826  0.00  0.00    +0.140 C 
ENDBRANCH   2  13
BRANCH   8  21
ATOM     19  O   UNL     1     -41.045  20.892   0.783  0.00  0.00    -0.270 OA
ATOM     20  N   UNL     1     -40.259  22.976   0.095  0.00  0.00    -0.298 N 
ATOM     21  C   UNL     1     -40.142  21.699   0.603  0.00  0.00    +0.254 C 
ATOM     22  H   UNL     1     -39.444  23.522   0.003  0.00  0.00    +0.150 HD
BRANCH  20  23
ATOM     23  C   UNL     1     -41.523  23.550  -0.307  0.00  0.00    +0.122 C 
BRANCH  23  24
ATOM     24  C   UNL     1     -41.997  24.601   0.680  0.00  0.00    +0.158 C 
BRANCH  24  25
ATOM     25  O   UNL     1     -40.966  24.858   1.627  0.00  0.00    -0.380 OA
ATOM     26  H   UNL     1     -40.342  25.502   1.259  0.00  0.00    +0.211 HD
ENDBRANCH  24  25
ENDBRANCH  23  24
ENDBRANCH  20  23
ENDBRANCH   8  21
BRANCH  10  27
ATOM     27  O   UNL     1     -38.828  19.274  -0.315  0.00  0.00    -0.504 OA
ATOM     28  H   UNL     1     -38.406  18.947  -1.086  0.00  0.00    +0.292 HD
ENDBRANCH  10  27
BRANCH   6  29
ATOM     29  C   UNL     1     -32.716  18.901   1.260  0.00  0.00    +0.054 C 
BRANCH  29  31
ATOM     30  F   UNL     1     -29.228  21.841  -2.067  0.00  0.00    -0.204 F 
ATOM     31  C   UNL     1     -31.779  19.691   0.367  0.00  0.00    -0.018 C 
ATOM     32  C   UNL     1     -32.181  20.922  -0.151  0.00  0.00    -0.002 C 
ATOM     33  C   UNL     1     -30.515  19.185   0.062  0.00  0.00    -0.002 C 
ATOM     34  C   UNL     1     -31.319  21.649  -0.973  0.00  0.00    +0.029 C 
ATOM     35  C   UNL     1     -29.652  19.912  -0.759  0.00  0.00    +0.029 C 
ATOM     36  C   UNL     1     -30.054  21.143  -1.277  0.00  0.00    +0.140 C 
ENDBRANCH  29  31
ENDBRANCH   6  29
TORSDOF 8
ENDMDL
MODEL 4
REMARK VINA RESULT:      -7.1      4.114      5.602
REMARK  Name = 54734969
REMARK  8 active torsions:
REMARK  status: ('A' for Active; 'I' for Inactive)
REMARK    1  A    between atoms: N_2  and  C_13
REMARK    2  A    between atoms: C_6  and  C_29
REMARK    3  A    between atoms: C_8  and  C_21
REMARK    4  A    between atoms: C_10  and  O_27
REMARK    5  A    between atoms: N_20  and  C_23
REMARK    6  A    between atoms: C_23  and  C_24
REMARK    7  A    between atoms: C_24  and  O_25
REMARK    8  A    between atoms: C_29  and  C_31
REMARK                            x       y       z     vdW  Elec       q    Type
REMARK                         _______ _______ _______ _____ _____    ______ ____
ROOT
ATOM      1  O   UNL     1     -37.364  19.986  -0.262  0.00  0.00    -0.266 OA
ATOM      2  N   UNL     1     -36.384  21.294   1.401  0.00  0.00    -0.273 N 
ATOM      3  N   UNL     1     -38.067  23.821   3.532  0.00  0.00    -0.240 NA
ATOM      4  C   UNL     1     -36.554  22.282   2.423  0.00  0.00    +0.087 A 
ATOM      5  C   UNL     1     -37.805  22.873   2.592  0.00  0.00    +0.131 A 
ATOM      6  C   UNL     1     -35.802  23.626   4.304  0.00  0.00    +0.003 C 
ATOM      7  C   UNL     1     -35.556  22.660   3.333  0.00  0.00    +0.017 C 
ATOM      8  C   UNL     1     -38.802  21.472   0.858  0.00  0.00    +0.145 A 
ATOM      9  C   UNL     1     -37.459  20.838   0.626  0.00  0.00    +0.272 A 
ATOM     10  C   UNL     1     -38.942  22.452   1.767  0.00  0.00    +0.162 A 
ATOM     11  C   UNL     1     -37.062  24.180   4.356  0.00  0.00    +0.095 C 
ENDROOT
BRANCH   2  13
ATOM     12  F   UNL     1     -31.298  19.291   0.375  0.00  0.00    -0.204 F 
ATOM     13  C   UNL     1     -35.073  20.778   1.136  0.00  0.00    +0.067 C 
ATOM     14  C   UNL     1     -34.649  19.604   1.757  0.00  0.00    +0.020 C 
ATOM     15  C   UNL     1     -34.224  21.450   0.258  0.00  0.00    +0.020 C 
ATOM     16  C   UNL     1     -33.373  19.101   1.500  0.00  0.00    +0.031 C 
ATOM     17  C   UNL     1     -32.948  20.947   0.001  0.00  0.00    +0.031 C 
ATOM     18  C   UNL     1     -32.523  19.773   0.621  0.00  0.00    +0.140 C 
ENDBRANCH   2  13
BRANCH   8  21
ATOM     19  O   UNL     1     -40.986  20.647   0.612  0.00  0.00    -0.270 OA
ATOM     20  N   UNL     1     -39.713  21.061  -1.297  0.00  0.00    -0.298 N 
ATOM     21  C   UNL     1     -39.956  21.015   0.060  0.00  0.00    +0.254 C 
ATOM     22  H   UNL     1     -38.835  21.381  -1.607  0.00  0.00    +0.150 HD
BRANCH  20  23
ATOM     23  C   UNL     1     -40.691  20.662  -2.285  0.00  0.00    +0.122 C 
BRANCH  23  24
ATOM     24  C   UNL     1     -40.680  19.161  -2.504  0.00  0.00    +0.158 C 
BRANCH  24  25
ATOM     25  O   UNL     1     -41.467  18.531  -1.500  0.00  0.00    -0.380 OA
ATOM     26  H   UNL     1     -40.897  18.266  -0.762  0.00  0.00    +0.211 HD
ENDBRANCH  24  25
ENDBRANCH  23  24
ENDBRANCH  20  23
ENDBRANCH   8  21
BRANCH  10  27
ATOM     27  O   UNL     1     -40.108  23.134   2.043  0.00  0.00    -0.504 OA
ATOM     28  H   UNL     1     -40.333  23.337   2.931  0.00  0.00    +0.292 HD
ENDBRANCH  10  27
BRANCH   6  29
ATOM     29  C   UNL     1     -34.739  24.044   5.256  0.00  0.00    +0.054 C 
BRANCH  29  31
ATOM     30  F   UNL     1     -32.145  28.856   3.839  0.00  0.00    -0.204 F 
ATOM     31  C   UNL     1     -34.041  25.337   4.875  0.00  0.00    -0.018 C 
ATOM     32  C   UNL     1     -33.687  26.256   5.864  0.00  0.00    -0.002 C 
ATOM     33  C   UNL     1     -33.755  25.607   3.537  0.00  0.00    -0.002 C 
ATOM     34  C   UNL     1     -33.046  27.444   5.513  0.00  0.00    +0.029 C 
ATOM     35  C   UNL     1     -33.114  26.795   3.186  0.00  0.00    +0.029 C 
ATOM     36  C   UNL     1     -32.759  27.714   4.175  0.00  0.00    +0.140 C 
ENDBRANCH  29  31
ENDBRANCH   6  29
TORSDOF 8
ENDMDL
MODEL 5
REMARK VINA RESULT:      -6.9      5.330      7.341
REMARK  Name = 54734969
REMARK  8 active torsions:
REMARK  status: ('A' for Active; 'I' for Inactive)
REMARK    1  A    between atoms: N_2  and  C_13
REMARK    2  A    between atoms: C_6  and  C_29
REMARK    3  A    between atoms: C_8  and  C_21
REMARK    4  A    between atoms: C_10  and  O_27
REMARK    5  A    between atoms: N_20  and  C_23
REMARK    6  A    between atoms: C_23  and  C_24
REMARK    7  A    between atoms: C_24  and  O_25
REMARK    8  A    between atoms: C_29  and  C_31
REMARK                            x       y       z     vdW  Elec       q    Type
REMARK                         _______ _______ _______ _____ _____    ______ ____
ROOT
ATOM      1  O   UNL     1     -35.835  18.292  -1.070  0.00  0.00    -0.266 OA
ATOM      2  N   UNL     1     -35.407  19.787   0.666  0.00  0.00    -0.273 N 
ATOM      3  N   UNL     1     -37.874  21.923   2.430  0.00  0.00    -0.240 NA
ATOM      4  C   UNL     1     -35.928  20.726   1.613  0.00  0.00    +0.087 A 
ATOM      5  C   UNL     1     -37.285  21.044   1.576  0.00  0.00    +0.131 A 
ATOM      6  C   UNL     1     -35.760  22.210   3.532  0.00  0.00    +0.003 C 
ATOM      7  C   UNL     1     -35.177  21.310   2.644  0.00  0.00    +0.017 C 
ATOM      8  C   UNL     1     -37.699  19.453  -0.231  0.00  0.00    +0.145 A 
ATOM      9  C   UNL     1     -36.236  19.111  -0.239  0.00  0.00    +0.272 A 
ATOM     10  C   UNL     1     -38.173  20.389   0.610  0.00  0.00    +0.162 A 
ATOM     11  C   UNL     1     -37.100  22.490   3.378  0.00  0.00    +0.095 C 
ENDROOT
BRANCH   2  13
ATOM     12  F   UNL     1     -29.922  18.886   0.466  0.00  0.00    -0.204 F 
ATOM     13  C   UNL     1     -33.993  19.554   0.616  0.00  0.00    +0.067 C 
ATOM     14  C   UNL     1     -33.167  20.442  -0.073  0.00  0.00    +0.020 C 
ATOM     15  C   UNL     1     -33.447  18.442   1.254  0.00  0.00    +0.020 C 
ATOM     16  C   UNL     1     -31.791  20.216  -0.123  0.00  0.00    +0.031 C 
ATOM     17  C   UNL     1     -32.071  18.216   1.203  0.00  0.00    +0.031 C 
ATOM     18  C   UNL     1     -31.243  19.103   0.515  0.00  0.00    +0.140 C 
ENDBRANCH   2  13
BRANCH   8  21
ATOM     19  O   UNL     1     -39.197  19.388  -2.038  0.00  0.00    -0.270 OA
ATOM     20  N   UNL     1     -38.668  17.402  -0.936  0.00  0.00    -0.298 N 
ATOM     21  C   UNL     1     -38.602  18.760  -1.170  0.00  0.00    +0.254 C 
ATOM     22  H   UNL     1     -38.133  17.025  -0.200  0.00  0.00    +0.150 HD
BRANCH  20  23
ATOM     23  C   UNL     1     -39.485  16.507  -1.723  0.00  0.00    +0.122 C 
BRANCH  23  24
ATOM     24  C   UNL     1     -39.916  15.294  -0.919  0.00  0.00    +0.158 C 
BRANCH  24  25
ATOM     25  O   UNL     1     -38.849  14.885  -0.072  0.00  0.00    -0.380 OA
ATOM     26  H   UNL     1     -38.148  14.483  -0.607  0.00  0.00    +0.211 HD
ENDBRANCH  24  25
ENDBRANCH  23  24
ENDBRANCH  20  23
ENDBRANCH   8  21
BRANCH  10  27
ATOM     27  O   UNL     1     -39.483  20.815   0.687  0.00  0.00    -0.504 OA
ATOM     28  H   UNL     1     -40.149  20.372   0.199  0.00  0.00    +0.292 HD
ENDBRANCH  10  27
BRANCH   6  29
ATOM     29  C   UNL     1     -34.961  22.848   4.611  0.00  0.00    +0.054 C 
BRANCH  29  31
ATOM     30  F   UNL     1     -33.550  28.216   3.573  0.00  0.00    -0.204 F 
ATOM     31  C   UNL     1     -34.582  24.291   4.332  0.00  0.00    -0.018 C 
ATOM     32  C   UNL     1     -34.361  24.712   3.021  0.00  0.00    -0.002 C 
ATOM     33  C   UNL     1     -34.454  25.194   5.387  0.00  0.00    -0.002 C 
ATOM     34  C   UNL     1     -34.014  26.039   2.765  0.00  0.00    +0.029 C 
ATOM     35  C   UNL     1     -34.106  26.520   5.131  0.00  0.00    +0.029 C 
ATOM     36  C   UNL     1     -33.886  26.943   3.820  0.00  0.00    +0.140 C 
ENDBRANCH  29  31
ENDBRANCH   6  29
TORSDOF 8
ENDMDL
MODEL 6
REMARK VINA RESULT:      -6.9      4.218      6.784
REMARK  Name = 54734969
REMARK  8 active torsions:
REMARK  status: ('A' for Active; 'I' for Inactive)
REMARK    1  A    between atoms: N_2  and  C_13
REMARK    2  A    between atoms: C_6  and  C_29
REMARK    3  A    between atoms: C_8  and  C_21
REMARK    4  A    between atoms: C_10  and  O_27
REMARK    5  A    between atoms: N_20  and  C_23
REMARK    6  A    between atoms: C_23  and  C_24
REMARK    7  A    between atoms: C_24  and  O_25
REMARK    8  A    between atoms: C_29  and  C_31
REMARK                            x       y       z     vdW  Elec       q    Type
REMARK                         _______ _______ _______ _____ _____    ______ ____
ROOT
ATOM      1  O   UNL     1     -38.378  21.525  -0.327  0.00  0.00    -0.266 OA
ATOM      2  N   UNL     1     -37.783  22.779   1.546  0.00  0.00    -0.273 N 
ATOM      3  N   UNL     1     -35.265  21.888   4.119  0.00  0.00    -0.240 NA
ATOM      4  C   UNL     1     -36.954  22.906   2.706  0.00  0.00    +0.087 A 
ATOM      5  C   UNL     1     -36.091  21.863   3.039  0.00  0.00    +0.131 A 
ATOM      6  C   UNL     1     -36.050  24.101   4.620  0.00  0.00    +0.003 C 
ATOM      7  C   UNL     1     -36.889  24.053   3.511  0.00  0.00    +0.017 C 
ATOM      8  C   UNL     1     -36.724  20.586   1.056  0.00  0.00    +0.145 A 
ATOM      9  C   UNL     1     -37.689  21.677   0.685  0.00  0.00    +0.272 A 
ATOM     10  C   UNL     1     -36.000  20.675   2.184  0.00  0.00    +0.162 A 
ATOM     11  C   UNL     1     -35.270  22.997   4.886  0.00  0.00    +0.095 C 
ENDROOT
BRANCH   2  13
ATOM     12  F   UNL     1     -41.591  26.691   0.483  0.00  0.00    -0.204 F 
ATOM     13  C   UNL     1     -38.764  23.788   1.272  0.00  0.00    +0.067 C 
ATOM     14  C   UNL     1     -40.041  23.684   1.822  0.00  0.00    +0.020 C 
ATOM     15  C   UNL     1     -38.441  24.871   0.456  0.00  0.00    +0.020 C 
ATOM     16  C   UNL     1     -40.996  24.665   1.556  0.00  0.00    +0.031 C 
ATOM     17  C   UNL     1     -39.397  25.852   0.190  0.00  0.00    +0.031 C 
ATOM     18  C   UNL     1     -40.674  25.750   0.739  0.00  0.00    +0.140 C 
ENDBRANCH   2  13
BRANCH   8  21
ATOM     19  O   UNL     1     -35.523  19.139  -0.350  0.00  0.00    -0.270 OA
ATOM     20  N   UNL     1     -37.785  18.724   0.032  0.00  0.00    -0.298 N 
ATOM     21  C   UNL     1     -36.598  19.411   0.171  0.00  0.00    +0.254 C 
ATOM     22  H   UNL     1     -38.579  19.055   0.511  0.00  0.00    +0.150 HD
BRANCH  20  23
ATOM     23  C   UNL     1     -37.917  17.538  -0.785  0.00  0.00    +0.122 C 
BRANCH  23  24
ATOM     24  C   UNL     1     -37.681  16.276   0.024  0.00  0.00    +0.158 C 
BRANCH  24  25
ATOM     25  O   UNL     1     -36.287  16.122   0.263  0.00  0.00    -0.380 OA
ATOM     26  H   UNL     1     -35.905  15.541  -0.414  0.00  0.00    +0.211 HD
ENDBRANCH  24  25
ENDBRANCH  23  24
ENDBRANCH  20  23
ENDBRANCH   8  21
BRANCH  10  27
ATOM     27  O   UNL     1     -35.112  19.727   2.649  0.00  0.00    -0.504 OA
ATOM     28  H   UNL     1     -34.240  19.694   2.307  0.00  0.00    +0.292 HD
ENDBRANCH  10  27
BRANCH   6  29
ATOM     29  C   UNL     1     -35.997  25.307   5.489  0.00  0.00    +0.054 C 
BRANCH  29  31
ATOM     30  F   UNL     1     -31.427  28.525   4.689  0.00  0.00    -0.204 F 
ATOM     31  C   UNL     1     -34.768  26.171   5.274  0.00  0.00    -0.018 C 
ATOM     32  C   UNL     1     -33.859  26.361   6.314  0.00  0.00    -0.002 C 
ATOM     33  C   UNL     1     -34.550  26.777   4.037  0.00  0.00    -0.002 C 
ATOM     34  C   UNL     1     -32.729  27.156   6.116  0.00  0.00    +0.029 C 
ATOM     35  C   UNL     1     -33.421  27.571   3.838  0.00  0.00    +0.029 C 
ATOM     36  C   UNL     1     -32.511  27.761   4.878  0.00  0.00    +0.140 C 
ENDBRANCH  29  31
ENDBRANCH   6  29
TORSDOF 8
ENDMDL
MODEL 7
REMARK VINA RESULT:      -6.8      3.416      7.371
REMARK  Name = 54734969
REMARK  8 active torsions:
REMARK  status: ('A' for Active; 'I' for Inactive)
REMARK    1  A    between atoms: N_2  and  C_13
REMARK    2  A    between atoms: C_6  and  C_29
REMARK    3  A    between atoms: C_8  and  C_21
REMARK    4  A    between atoms: C_10  and  O_27
REMARK    5  A    between atoms: N_20  and  C_23
REMARK    6  A    between atoms: C_23  and  C_24
REMARK    7  A    between atoms: C_24  and  O_25
REMARK    8  A    between atoms: C_29  and  C_31
REMARK                            x       y       z     vdW  Elec       q    Type
REMARK                         _______ _______ _______ _____ _____    ______ ____
ROOT
ATOM      1  O   UNL     1     -32.953  26.219   4.602  0.00  0.00    -0.266 OA
ATOM      2  N   UNL     1     -35.013  25.817   3.589  0.00  0.00    -0.273 N 
ATOM      3  N   UNL     1     -36.933  28.148   1.435  0.00  0.00    -0.240 NA
ATOM      4  C   UNL     1     -36.058  26.296   2.736  0.00  0.00    +0.087 A 
ATOM      5  C   UNL     1     -35.991  27.601   2.249  0.00  0.00    +0.131 A 
ATOM      6  C   UNL     1     -38.106  26.054   1.448  0.00  0.00    +0.003 C 
ATOM      7  C   UNL     1     -37.132  25.515   2.284  0.00  0.00    +0.017 C 
ATOM      8  C   UNL     1     -33.823  27.980   3.309  0.00  0.00    +0.145 A 
ATOM      9  C   UNL     1     -33.880  26.589   3.877  0.00  0.00    +0.272 A 
ATOM     10  C   UNL     1     -34.840  28.453   2.569  0.00  0.00    +0.162 A 
ATOM     11  C   UNL     1     -37.968  27.369   1.062  0.00  0.00    +0.095 C 
ENDROOT
BRANCH   2  13
ATOM     12  F   UNL     1     -35.512  20.802   5.942  0.00  0.00    -0.204 F 
ATOM     13  C   UNL     1     -35.141  24.525   4.196  0.00  0.00    +0.067 C 
ATOM     14  C   UNL     1     -35.119  23.378   3.403  0.00  0.00    +0.020 C 
ATOM     15  C   UNL     1     -35.288  24.415   5.578  0.00  0.00    +0.020 C 
ATOM     16  C   UNL     1     -35.244  22.120   3.993  0.00  0.00    +0.031 C 
ATOM     17  C   UNL     1     -35.414  23.157   6.168  0.00  0.00    +0.031 C 
ATOM     18  C   UNL     1     -35.391  22.010   5.376  0.00  0.00    +0.140 C 
ENDBRANCH   2  13
BRANCH   8  21
ATOM     19  O   UNL     1     -31.948  29.242   2.675  0.00  0.00    -0.270 OA
ATOM     20  N   UNL     1     -32.459  29.038   4.941  0.00  0.00    -0.298 N 
ATOM     21  C   UNL     1     -32.643  28.821   3.591  0.00  0.00    +0.254 C 
ATOM     22  H   UNL     1     -33.098  28.637   5.573  0.00  0.00    +0.150 HD
BRANCH  20  23
ATOM     23  C   UNL     1     -31.371  29.830   5.469  0.00  0.00    +0.122 C 
BRANCH  23  24
ATOM     24  C   UNL     1     -30.470  29.006   6.370  0.00  0.00    +0.158 C 
BRANCH  24  25
ATOM     25  O   UNL     1     -31.021  27.704   6.527  0.00  0.00    -0.380 OA
ATOM     26  H   UNL     1     -30.568  27.088   5.932  0.00  0.00    +0.211 HD
ENDBRANCH  24  25
ENDBRANCH  23  24
ENDBRANCH  20  23
ENDBRANCH   8  21
BRANCH  10  27
ATOM     27  O   UNL     1     -34.922  29.717   2.025  0.00  0.00    -0.504 OA
ATOM     28  H   UNL     1     -34.141  30.170   1.770  0.00  0.00    +0.292 HD
ENDBRANCH  10  27
BRANCH   6  29
ATOM     29  C   UNL     1     -39.258  25.235   0.987  0.00  0.00    +0.054 C 
BRANCH  29  31
ATOM     30  F   UNL     1     -44.185  26.634   3.364  0.00  0.00    -0.204 F 
ATOM     31  C   UNL     1     -40.582  25.611   1.626  0.00  0.00    -0.018 C 
ATOM     32  C   UNL     1     -40.609  26.131   2.920  0.00  0.00    -0.002 C 
ATOM     33  C   UNL     1     -41.771  25.436   0.919  0.00  0.00    -0.002 C 
ATOM     34  C   UNL     1     -41.826  26.477   3.506  0.00  0.00    +0.029 C 
ATOM     35  C   UNL     1     -42.989  25.782   1.505  0.00  0.00    +0.029 C 
ATOM     36  C   UNL     1     -43.016  26.303   2.799  0.00  0.00    +0.140 C 
ENDBRANCH  29  31
ENDBRANCH   6  29
TORSDOF 8
ENDMDL
MODEL 8
REMARK VINA RESULT:      -6.8      1.069      2.092
REMARK  Name = 54734969
REMARK  8 active torsions:
REMARK  status: ('A' for Active; 'I' for Inactive)
REMARK    1  A    between atoms: N_2  and  C_13
REMARK    2  A    between atoms: C_6  and  C_29
REMARK    3  A    between atoms: C_8  and  C_21
REMARK    4  A    between atoms: C_10  and  O_27
REMARK    5  A    between atoms: N_20  and  C_23
REMARK    6  A    between atoms: C_23  and  C_24
REMARK    7  A    between atoms: C_24  and  O_25
REMARK    8  A    between atoms: C_29  and  C_31
REMARK                            x       y       z     vdW  Elec       q    Type
REMARK                         _______ _______ _______ _____ _____    ______ ____
ROOT
ATOM      1  O   UNL     1     -39.041  24.230   3.334  0.00  0.00    -0.266 OA
ATOM      2  N   UNL     1     -36.908  25.151   3.144  0.00  0.00    -0.273 N 
ATOM      3  N   UNL     1     -35.951  28.191   1.247  0.00  0.00    -0.240 NA
ATOM      4  C   UNL     1     -36.083  26.200   2.627  0.00  0.00    +0.087 A 
ATOM      5  C   UNL     1     -36.651  27.158   1.789  0.00  0.00    +0.131 A 
ATOM      6  C   UNL     1     -33.998  27.434   2.420  0.00  0.00    +0.003 C 
ATOM      7  C   UNL     1     -34.732  26.382   2.961  0.00  0.00    +0.017 C 
ATOM      8  C   UNL     1     -38.875  26.178   2.027  0.00  0.00    +0.145 A 
ATOM      9  C   UNL     1     -38.289  25.110   2.907  0.00  0.00    +0.272 A 
ATOM     10  C   UNL     1     -38.084  27.119   1.483  0.00  0.00    +0.162 A 
ATOM     11  C   UNL     1     -34.646  28.299   1.566  0.00  0.00    +0.095 C 
ENDROOT
BRANCH   2  13
ATOM     12  F   UNL     1     -34.566  21.043   6.072  0.00  0.00    -0.204 F 
ATOM     13  C   UNL     1     -36.305  24.092   3.899  0.00  0.00    +0.067 C 
ATOM     14  C   UNL     1     -35.971  24.293   5.237  0.00  0.00    +0.020 C 
ATOM     15  C   UNL     1     -36.052  22.861   3.293  0.00  0.00    +0.020 C 
ATOM     16  C   UNL     1     -35.384  23.263   5.972  0.00  0.00    +0.031 C 
ATOM     17  C   UNL     1     -35.464  21.831   4.028  0.00  0.00    +0.031 C 
ATOM     18  C   UNL     1     -35.130  22.031   5.367  0.00  0.00    +0.140 C 
ENDBRANCH   2  13
BRANCH   8  21
ATOM     19  O   UNL     1     -41.013  27.147   2.013  0.00  0.00    -0.270 OA
ATOM     20  N   UNL     1     -40.754  24.971   1.216  0.00  0.00    -0.298 N 
ATOM     21  C   UNL     1     -40.326  26.166   1.757  0.00  0.00    +0.254 C 
ATOM     22  H   UNL     1     -40.090  24.261   1.061  0.00  0.00    +0.150 HD
BRANCH  20  23
ATOM     23  C   UNL     1     -42.132  24.715   0.866  0.00  0.00    +0.122 C 
BRANCH  23  24
ATOM     24  C   UNL     1     -42.416  25.077  -0.580  0.00  0.00    +0.158 C 
BRANCH  24  25
ATOM     25  O   UNL     1     -42.301  23.912  -1.390  0.00  0.00    -0.380 OA
ATOM     26  H   UNL     1     -41.546  23.384  -1.090  0.00  0.00    +0.211 HD
ENDBRANCH  24  25
ENDBRANCH  23  24
ENDBRANCH  20  23
ENDBRANCH   8  21
BRANCH  10  27
ATOM     27  O   UNL     1     -38.495  28.125   0.634  0.00  0.00    -0.504 OA
ATOM     28  H   UNL     1     -39.376  28.445   0.677  0.00  0.00    +0.292 HD
ENDBRANCH  10  27
BRANCH   6  29
ATOM     29  C   UNL     1     -32.561  27.616   2.754  0.00  0.00    +0.054 C 
BRANCH  29  31
ATOM     30  F   UNL     1     -31.646  29.854   7.857  0.00  0.00    -0.204 F 
ATOM     31  C   UNL     1     -32.315  28.218   4.125  0.00  0.00    -0.018 C 
ATOM     32  C   UNL     1     -31.990  29.569   4.246  0.00  0.00    -0.002 C 
ATOM     33  C   UNL     1     -32.414  27.419   5.264  0.00  0.00    -0.002 C 
ATOM     34  C   UNL     1     -31.765  30.121   5.507  0.00  0.00    +0.029 C 
ATOM     35  C   UNL     1     -32.189  27.971   6.525  0.00  0.00    +0.029 C 
ATOM     36  C   UNL     1     -31.864  29.322   6.647  0.00  0.00    +0.140 C 
ENDBRANCH  29  31
ENDBRANCH   6  29
TORSDOF 8
ENDMDL
MODEL 9
REMARK VINA RESULT:      -6.7      3.298      7.246
REMARK  Name = 54734969
REMARK  8 active torsions:
REMARK  status: ('A' for Active; 'I' for Inactive)
REMARK    1  A    between atoms: N_2  and  C_13
REMARK    2  A    between atoms: C_6  and  C_29
REMARK    3  A    between atoms: C_8  and  C_21
REMARK    4  A    between atoms: C_10  and  O_27
REMARK    5  A    between atoms: N_20  and  C_23
REMARK    6  A    between atoms: C_23  and  C_24
REMARK    7  A    between atoms: C_24  and  O_25
REMARK    8  A    between atoms: C_29  and  C_31
REMARK                            x       y       z     vdW  Elec       q    Type
REMARK                         _______ _______ _______ _____ _____    ______ ____
ROOT
ATOM      1  O   UNL     1     -33.086  26.220   4.496  0.00  0.00    -0.266 OA
ATOM      2  N   UNL     1     -35.140  25.759   3.493  0.00  0.00    -0.273 N 
ATOM      3  N   UNL     1     -37.134  28.032   1.346  0.00  0.00    -0.240 NA
ATOM      4  C   UNL     1     -36.201  26.207   2.645  0.00  0.00    +0.087 A 
ATOM      5  C   UNL     1     -36.173  27.513   2.156  0.00  0.00    +0.131 A 
ATOM      6  C   UNL     1     -38.248  25.906   1.367  0.00  0.00    +0.003 C 
ATOM      7  C   UNL     1     -37.255  25.396   2.199  0.00  0.00    +0.017 C 
ATOM      8  C   UNL     1     -34.012  27.954   3.205  0.00  0.00    +0.145 A 
ATOM      9  C   UNL     1     -34.027  26.563   3.776  0.00  0.00    +0.272 A 
ATOM     10  C   UNL     1     -35.046  28.397   2.469  0.00  0.00    +0.162 A 
ATOM     11  C   UNL     1     -38.148  27.224   0.979  0.00  0.00    +0.095 C 
ENDROOT
BRANCH   2  13
ATOM     12  F   UNL     1     -35.486  20.735   5.855  0.00  0.00    -0.204 F 
ATOM     13  C   UNL     1     -35.229  24.464   4.103  0.00  0.00    +0.067 C 
ATOM     14  C   UNL     1     -35.193  23.318   3.309  0.00  0.00    +0.020 C 
ATOM     15  C   UNL     1     -35.350  24.352   5.487  0.00  0.00    +0.020 C 
ATOM     16  C   UNL     1     -35.280  22.058   3.901  0.00  0.00    +0.031 C 
ATOM     17  C   UNL     1     -35.437  23.092   6.079  0.00  0.00    +0.031 C 
ATOM     18  C   UNL     1     -35.402  21.945   5.287  0.00  0.00    +0.140 C 
ENDBRANCH   2  13
BRANCH   8  21
ATOM     19  O   UNL     1     -32.138  29.215   2.567  0.00  0.00    -0.270 OA
ATOM     20  N   UNL     1     -32.718  29.116   4.823  0.00  0.00    -0.298 N 
ATOM     21  C   UNL     1     -32.855  28.828   3.481  0.00  0.00    +0.254 C 
ATOM     22  H   UNL     1     -33.371  28.736   5.455  0.00  0.00    +0.150 HD
BRANCH  20  23
ATOM     23  C   UNL     1     -31.660  29.952   5.344  0.00  0.00    +0.122 C 
BRANCH  23  24
ATOM     24  C   UNL     1     -31.317  29.588   6.777  0.00  0.00    +0.158 C 
BRANCH  24  25
ATOM     25  O   UNL     1     -32.019  28.406   7.145  0.00  0.00    -0.380 OA
ATOM     26  H   UNL     1     -31.930  27.745   6.442  0.00  0.00    +0.211 HD
ENDBRANCH  24  25
ENDBRANCH  23  24
ENDBRANCH  20  23
ENDBRANCH   8  21
BRANCH  10  27
ATOM     27  O   UNL     1     -35.166  29.658   1.925  0.00  0.00    -0.504 OA
ATOM     28  H   UNL     1     -35.986  29.939   1.569  0.00  0.00    +0.292 HD
ENDBRANCH  10  27
BRANCH   6  29
ATOM     29  C   UNL     1     -39.378  25.054   0.912  0.00  0.00    +0.054 C 
BRANCH  29  31
ATOM     30  F   UNL     1     -38.049  19.601   0.295  0.00  0.00    -0.204 F 
ATOM     31  C   UNL     1     -39.022  23.588   0.746  0.00  0.00    -0.018 C 
ATOM     32  C   UNL     1     -39.461  22.653   1.683  0.00  0.00    -0.002 C 
ATOM     33  C   UNL     1     -38.253  23.177  -0.343  0.00  0.00    -0.002 C 
ATOM     34  C   UNL     1     -39.133  21.306   1.529  0.00  0.00    +0.029 C 
ATOM     35  C   UNL     1     -37.925  21.830  -0.496  0.00  0.00    +0.029 C 
ATOM     36  C   UNL     1     -38.365  20.894   0.440  0.00  0.00    +0.140 C 
ENDBRANCH  29  31
ENDBRANCH   6  29
TORSDOF 8
ENDMDL
