MODEL 1
REMARK VINA RESULT:      -5.7      0.000      0.000
REMARK  Name = 53248311
REMARK  10 active torsions:
REMARK  status: ('A' for Active; 'I' for Inactive)
REMARK    1  A    between atoms: C_2  and  O_10
REMARK    2  A    between atoms: C_2  and  C_12
REMARK    3  A    between atoms: C_3  and  O_21
REMARK    4  A    between atoms: C_13  and  C_14
REMARK    5  A    between atoms: C_16  and  C_18
REMARK    6  A    between atoms: C_18  and  O_19
REMARK    7  A    between atoms: O_21  and  C_23
REMARK    8  A    between atoms: C_24  and  O_29
REMARK    9  A    between atoms: C_25  and  O_31
REMARK   10  A    between atoms: C_26  and  O_33
REMARK                            x       y       z     vdW  Elec       q    Type
REMARK                         _______ _______ _______ _____ _____    ______ ____
ROOT
ATOM      1  C   UNL     1     -35.543  27.177   0.904  0.00  0.00    +0.028 C 
ATOM      2  C   UNL     1     -34.305  26.469   1.592  0.00  0.00    +0.129 C 
ATOM      3  C   UNL     1     -33.038  27.387   1.682  0.00  0.00    +0.121 C 
ATOM      4  C   UNL     1     -35.099  27.787  -0.453  0.00  0.00    +0.003 C 
ATOM      5  C   UNL     1     -32.697  27.991   0.303  0.00  0.00    +0.030 C 
ATOM      6  C   UNL     1     -33.884  28.703  -0.339  0.00  0.00    +0.003 C 
ATOM      7  C   UNL     1     -36.187  28.289   1.767  0.00  0.00    +0.003 C 
ATOM      8  C   UNL     1     -36.673  26.160   0.595  0.00  0.00    +0.003 C 
ATOM      9  C   UNL     1     -31.796  26.641   2.206  0.00  0.00    +0.032 C 
ENDROOT
BRANCH   2  10
ATOM     10  O   UNL     1     -33.921  25.359   0.751  0.00  0.00    -0.380 OA
ATOM     11  H   UNL     1     -34.045  25.600  -0.180  0.00  0.00    +0.211 HD
ENDBRANCH   2  10
BRANCH   2  12
ATOM     12  C   UNL     1     -34.650  25.898   2.947  0.00  0.00    +0.002 C 
ATOM     13  C   UNL     1     -34.578  24.591   3.240  0.00  0.00    -0.006 C 
BRANCH  13  14
ATOM     14  C   UNL     1     -34.897  23.956   4.523  0.00  0.00    -0.016 C 
ATOM     15  C   UNL     1     -34.920  24.840   5.743  0.00  0.00    +0.031 C 
ATOM     16  C   UNL     1     -35.126  22.626   4.529  0.00  0.00    +0.077 C 
BRANCH  16  18
ATOM     17  O   UNL     1     -36.191  22.120   6.641  0.00  0.00    -0.245 OA
ATOM     18  C   UNL     1     -35.460  21.810   5.717  0.00  0.00    +0.338 C 
BRANCH  18  19
ATOM     19  O   UNL     1     -34.830  20.616   5.604  0.00  0.00    -0.477 OA
ATOM     20  H   UNL     1     -34.966  20.084   4.845  0.00  0.00    +0.295 HD
ENDBRANCH  18  19
ENDBRANCH  16  18
ENDBRANCH  13  14
ENDBRANCH   2  12
BRANCH   3  21
ATOM     21  O   UNL     1     -33.284  28.465   2.593  0.00  0.00    -0.331 OA
BRANCH  21  23
ATOM     22  O   UNL     1     -32.903  28.008   4.848  0.00  0.00    -0.329 OA
ATOM     23  C   UNL     1     -32.315  28.485   3.640  0.00  0.00    +0.266 C 
ATOM     24  C   UNL     1     -31.837  29.928   3.810  0.00  0.00    +0.196 C 
ATOM     25  C   UNL     1     -30.906  30.067   5.015  0.00  0.00    +0.171 C 
ATOM     26  C   UNL     1     -31.503  29.401   6.255  0.00  0.00    +0.167 C 
ATOM     27  C   UNL     1     -31.976  27.980   5.935  0.00  0.00    +0.147 C 
ATOM     28  C   UNL     1     -32.680  27.338   7.125  0.00  0.00    +0.035 C 
BRANCH  24  29
ATOM     29  O   UNL     1     -31.138  30.309   2.625  0.00  0.00    -0.378 OA
ATOM     30  H   UNL     1     -31.594  31.058   2.209  0.00  0.00    +0.211 HD
ENDBRANCH  24  29
BRANCH  25  31
ATOM     31  O   UNL     1     -30.710  31.451   5.307  0.00  0.00    -0.379 OA
ATOM     32  H   UNL     1     -30.584  31.942   4.481  0.00  0.00    +0.211 HD
ENDBRANCH  25  31
BRANCH  26  33
ATOM     33  O   UNL     1     -30.518  29.349   7.283  0.00  0.00    -0.379 OA
ATOM     34  H   UNL     1     -29.928  30.115   7.204  0.00  0.00    +0.211 HD
ENDBRANCH  26  33
ENDBRANCH  21  23
ENDBRANCH   3  21
TORSDOF 10
ENDMDL
MODEL 2
REMARK VINA RESULT:      -5.6      3.652      6.637
REMARK  Name = 53248311
REMARK  10 active torsions:
REMARK  status: ('A' for Active; 'I' for Inactive)
REMARK    1  A    between atoms: C_2  and  O_10
REMARK    2  A    between atoms: C_2  and  C_12
REMARK    3  A    between atoms: C_3  and  O_21
REMARK    4  A    between atoms: C_13  and  C_14
REMARK    5  A    between atoms: C_16  and  C_18
REMARK    6  A    between atoms: C_18  and  O_19
REMARK    7  A    between atoms: O_21  and  C_23
REMARK    8  A    between atoms: C_24  and  O_29
REMARK    9  A    between atoms: C_25  and  O_31
REMARK   10  A    between atoms: C_26  and  O_33
REMARK                            x       y       z     vdW  Elec       q    Type
REMARK                         _______ _______ _______ _____ _____    ______ ____
ROOT
ATOM      1  C   UNL     1     -38.349  21.514   1.017  0.00  0.00    +0.028 C 
ATOM      2  C   UNL     1     -36.939  21.308   1.709  0.00  0.00    +0.129 C 
ATOM      3  C   UNL     1     -35.766  21.130   0.684  0.00  0.00    +0.121 C 
ATOM      4  C   UNL     1     -38.579  20.389  -0.027  0.00  0.00    +0.003 C 
ATOM      5  C   UNL     1     -36.099  20.030  -0.346  0.00  0.00    +0.030 C 
ATOM      6  C   UNL     1     -37.442  20.253  -1.035  0.00  0.00    +0.003 C 
ATOM      7  C   UNL     1     -38.508  22.887   0.320  0.00  0.00    +0.003 C 
ATOM      8  C   UNL     1     -39.502  21.417   2.050  0.00  0.00    +0.003 C 
ATOM      9  C   UNL     1     -34.430  20.772   1.362  0.00  0.00    +0.032 C 
ENDROOT
BRANCH   2  10
ATOM     10  O   UNL     1     -36.999  20.069   2.450  0.00  0.00    -0.380 OA
ATOM     11  H   UNL     1     -36.460  19.399   2.003  0.00  0.00    +0.211 HD
ENDBRANCH   2  10
BRANCH   2  12
ATOM     12  C   UNL     1     -36.621  22.401   2.701  0.00  0.00    +0.002 C 
ATOM     13  C   UNL     1     -35.999  22.183   3.870  0.00  0.00    -0.006 C 
BRANCH  13  14
ATOM     14  C   UNL     1     -35.657  23.182   4.887  0.00  0.00    -0.016 C 
ATOM     15  C   UNL     1     -35.329  22.675   6.268  0.00  0.00    +0.031 C 
ATOM     16  C   UNL     1     -35.681  24.482   4.527  0.00  0.00    +0.077 C 
BRANCH  16  18
ATOM     17  O   UNL     1     -34.306  25.875   5.950  0.00  0.00    -0.245 OA
ATOM     18  C   UNL     1     -35.369  25.631   5.407  0.00  0.00    +0.338 C 
BRANCH  18  19
ATOM     19  O   UNL     1     -36.475  26.408   5.499  0.00  0.00    -0.477 OA
ATOM     20  H   UNL     1     -36.900  26.522   6.326  0.00  0.00    +0.295 HD
ENDBRANCH  18  19
ENDBRANCH  16  18
ENDBRANCH  13  14
ENDBRANCH   2  12
BRANCH   3  21
ATOM     21  O   UNL     1     -35.552  22.355  -0.025  0.00  0.00    -0.331 OA
BRANCH  21  23
ATOM     22  O   UNL     1     -34.340  24.105   0.929  0.00  0.00    -0.329 OA
ATOM     23  C   UNL     1     -34.245  22.871   0.222  0.00  0.00    +0.266 C 
ATOM     24  C   UNL     1     -33.559  23.080  -1.129  0.00  0.00    +0.196 C 
ATOM     25  C   UNL     1     -32.206  23.772  -0.965  0.00  0.00    +0.171 C 
ATOM     26  C   UNL     1     -32.321  25.004  -0.067  0.00  0.00    +0.167 C 
ATOM     27  C   UNL     1     -33.060  24.664   1.230  0.00  0.00    +0.147 C 
ATOM     28  C   UNL     1     -33.290  25.903   2.091  0.00  0.00    +0.035 C 
BRANCH  24  29
ATOM     29  O   UNL     1     -33.366  21.801  -1.734  0.00  0.00    -0.378 OA
ATOM     30  H   UNL     1     -32.892  21.220  -1.118  0.00  0.00    +0.211 HD
ENDBRANCH  24  29
BRANCH  25  31
ATOM     31  O   UNL     1     -31.732  24.200  -2.242  0.00  0.00    -0.379 OA
ATOM     32  H   UNL     1     -30.817  23.904  -2.364  0.00  0.00    +0.211 HD
ENDBRANCH  25  31
BRANCH  26  33
ATOM     33  O   UNL     1     -31.016  25.482   0.246  0.00  0.00    -0.379 OA
ATOM     34  H   UNL     1     -30.827  25.318   1.183  0.00  0.00    +0.211 HD
ENDBRANCH  26  33
ENDBRANCH  21  23
ENDBRANCH   3  21
TORSDOF 10
ENDMDL
MODEL 3
REMARK VINA RESULT:      -5.6      3.504      8.461
REMARK  Name = 53248311
REMARK  10 active torsions:
REMARK  status: ('A' for Active; 'I' for Inactive)
REMARK    1  A    between atoms: C_2  and  O_10
REMARK    2  A    between atoms: C_2  and  C_12
REMARK    3  A    between atoms: C_3  and  O_21
REMARK    4  A    between atoms: C_13  and  C_14
REMARK    5  A    between atoms: C_16  and  C_18
REMARK    6  A    between atoms: C_18  and  O_19
REMARK    7  A    between atoms: O_21  and  C_23
REMARK    8  A    between atoms: C_24  and  O_29
REMARK    9  A    between atoms: C_25  and  O_31
REMARK   10  A    between atoms: C_26  and  O_33
REMARK                            x       y       z     vdW  Elec       q    Type
REMARK                         _______ _______ _______ _____ _____    ______ ____
ROOT
ATOM      1  C   UNL     1     -34.909  25.268   5.104  0.00  0.00    +0.028 C 
ATOM      2  C   UNL     1     -34.966  25.368   3.525  0.00  0.00    +0.129 C 
ATOM      3  C   UNL     1     -35.695  24.153   2.854  0.00  0.00    +0.121 C 
ATOM      4  C   UNL     1     -34.344  23.881   5.512  0.00  0.00    +0.003 C 
ATOM      5  C   UNL     1     -35.107  22.816   3.352  0.00  0.00    +0.030 C 
ATOM      6  C   UNL     1     -35.087  22.711   4.874  0.00  0.00    +0.003 C 
ATOM      7  C   UNL     1     -36.279  25.476   5.794  0.00  0.00    +0.003 C 
ATOM      8  C   UNL     1     -33.958  26.339   5.701  0.00  0.00    +0.003 C 
ATOM      9  C   UNL     1     -35.606  24.179   1.316  0.00  0.00    +0.032 C 
ENDROOT
BRANCH   2  10
ATOM     10  O   UNL     1     -33.607  25.322   3.040  0.00  0.00    -0.380 OA
ATOM     11  H   UNL     1     -33.280  26.225   2.906  0.00  0.00    +0.211 HD
ENDBRANCH   2  10
BRANCH   2  12
ATOM     12  C   UNL     1     -35.559  26.674   3.054  0.00  0.00    +0.002 C 
ATOM     13  C   UNL     1     -34.822  27.709   2.621  0.00  0.00    -0.006 C 
BRANCH  13  14
ATOM     14  C   UNL     1     -35.315  29.008   2.151  0.00  0.00    -0.016 C 
ATOM     15  C   UNL     1     -34.736  30.240   2.798  0.00  0.00    +0.031 C 
ATOM     16  C   UNL     1     -36.265  29.013   1.193  0.00  0.00    +0.077 C 
BRANCH  16  18
ATOM     17  O   UNL     1     -37.786  30.889   1.061  0.00  0.00    -0.245 OA
ATOM     18  C   UNL     1     -36.885  30.216   0.594  0.00  0.00    +0.338 C 
BRANCH  18  19
ATOM     19  O   UNL     1     -36.260  30.477  -0.580  0.00  0.00    -0.477 OA
ATOM     20  H   UNL     1     -36.759  30.739  -1.328  0.00  0.00    +0.295 HD
ENDBRANCH  18  19
ENDBRANCH  16  18
ENDBRANCH  13  14
ENDBRANCH   2  12
BRANCH   3  21
ATOM     21  O   UNL     1     -37.087  24.179   3.186  0.00  0.00    -0.331 OA
BRANCH  21  23
ATOM     22  O   UNL     1     -38.813  24.787   1.738  0.00  0.00    -0.329 OA
ATOM     23  C   UNL     1     -37.888  23.759   2.082  0.00  0.00    +0.266 C 
ATOM     24  C   UNL     1     -38.629  22.487   2.495  0.00  0.00    +0.196 C 
ATOM     25  C   UNL     1     -39.627  22.050   1.423  0.00  0.00    +0.171 C 
ATOM     26  C   UNL     1     -40.496  23.223   0.966  0.00  0.00    +0.167 C 
ATOM     27  C   UNL     1     -39.631  24.438   0.621  0.00  0.00    +0.147 C 
ATOM     28  C   UNL     1     -40.482  25.656   0.274  0.00  0.00    +0.035 C 
BRANCH  24  29
ATOM     29  O   UNL     1     -37.665  21.453   2.695  0.00  0.00    -0.378 OA
ATOM     30  H   UNL     1     -37.363  21.123   1.835  0.00  0.00    +0.211 HD
ENDBRANCH  24  29
BRANCH  25  31
ATOM     31  O   UNL     1     -40.488  21.043   1.955  0.00  0.00    -0.379 OA
ATOM     32  H   UNL     1     -40.264  20.185   1.563  0.00  0.00    +0.211 HD
ENDBRANCH  25  31
BRANCH  26  33
ATOM     33  O   UNL     1     -41.244  22.834  -0.183  0.00  0.00    -0.379 OA
ATOM     34  H   UNL     1     -41.485  21.898  -0.111  0.00  0.00    +0.211 HD
ENDBRANCH  26  33
ENDBRANCH  21  23
ENDBRANCH   3  21
TORSDOF 10
ENDMDL
MODEL 4
REMARK VINA RESULT:      -5.5      3.838      6.533
REMARK  Name = 53248311
REMARK  10 active torsions:
REMARK  status: ('A' for Active; 'I' for Inactive)
REMARK    1  A    between atoms: C_2  and  O_10
REMARK    2  A    between atoms: C_2  and  C_12
REMARK    3  A    between atoms: C_3  and  O_21
REMARK    4  A    between atoms: C_13  and  C_14
REMARK    5  A    between atoms: C_16  and  C_18
REMARK    6  A    between atoms: C_18  and  O_19
REMARK    7  A    between atoms: O_21  and  C_23
REMARK    8  A    between atoms: C_24  and  O_29
REMARK    9  A    between atoms: C_25  and  O_31
REMARK   10  A    between atoms: C_26  and  O_33
REMARK                            x       y       z     vdW  Elec       q    Type
REMARK                         _______ _______ _______ _____ _____    ______ ____
ROOT
ATOM      1  C   UNL     1     -35.173  23.813   4.759  0.00  0.00    +0.028 C 
ATOM      2  C   UNL     1     -35.988  23.421   3.459  0.00  0.00    +0.129 C 
ATOM      3  C   UNL     1     -36.627  24.656   2.733  0.00  0.00    +0.121 C 
ATOM      4  C   UNL     1     -36.057  24.704   5.672  0.00  0.00    +0.003 C 
ATOM      5  C   UNL     1     -37.445  25.512   3.723  0.00  0.00    +0.030 C 
ATOM      6  C   UNL     1     -36.643  25.916   4.956  0.00  0.00    +0.003 C 
ATOM      7  C   UNL     1     -33.847  24.556   4.465  0.00  0.00    +0.003 C 
ATOM      8  C   UNL     1     -34.791  22.556   5.583  0.00  0.00    +0.003 C 
ATOM      9  C   UNL     1     -37.547  24.251   1.565  0.00  0.00    +0.032 C 
ENDROOT
BRANCH   2  10
ATOM     10  O   UNL     1     -37.099  22.600   3.878  0.00  0.00    -0.380 OA
ATOM     11  H   UNL     1     -37.134  22.571   4.847  0.00  0.00    +0.211 HD
ENDBRANCH   2  10
BRANCH   2  12
ATOM     12  C   UNL     1     -35.169  22.598   2.494  0.00  0.00    +0.002 C 
ATOM     13  C   UNL     1     -35.439  21.317   2.198  0.00  0.00    -0.006 C 
BRANCH  13  14
ATOM     14  C   UNL     1     -34.696  20.448   1.280  0.00  0.00    -0.016 C 
ATOM     15  C   UNL     1     -34.830  20.728  -0.195  0.00  0.00    +0.031 C 
ATOM     16  C   UNL     1     -33.962  19.449   1.812  0.00  0.00    +0.077 C 
BRANCH  16  18
ATOM     17  O   UNL     1     -31.958  18.542   0.805  0.00  0.00    -0.245 OA
ATOM     18  C   UNL     1     -33.149  18.472   1.054  0.00  0.00    +0.338 C 
BRANCH  18  19
ATOM     19  O   UNL     1     -33.950  17.443   0.689  0.00  0.00    -0.477 OA
ATOM     20  H   UNL     1     -34.519  17.532  -0.050  0.00  0.00    +0.295 HD
ENDBRANCH  18  19
ENDBRANCH  16  18
ENDBRANCH  13  14
ENDBRANCH   2  12
BRANCH   3  21
ATOM     21  O   UNL     1     -35.595  25.479   2.177  0.00  0.00    -0.331 OA
BRANCH  21  23
ATOM     22  O   UNL     1     -35.072  25.386  -0.094  0.00  0.00    -0.329 OA
ATOM     23  C   UNL     1     -35.953  25.945   0.877  0.00  0.00    +0.266 C 
ATOM     24  C   UNL     1     -35.850  27.470   0.879  0.00  0.00    +0.196 C 
ATOM     25  C   UNL     1     -36.071  28.045  -0.519  0.00  0.00    +0.171 C 
ATOM     26  C   UNL     1     -35.224  27.311  -1.559  0.00  0.00    +0.167 C 
ATOM     27  C   UNL     1     -35.391  25.795  -1.425  0.00  0.00    +0.147 C 
ATOM     28  C   UNL     1     -34.468  25.039  -2.374  0.00  0.00    +0.035 C 
BRANCH  24  29
ATOM     29  O   UNL     1     -36.845  27.984   1.766  0.00  0.00    -0.378 OA
ATOM     30  H   UNL     1     -36.427  28.575   2.411  0.00  0.00    +0.211 HD
ENDBRANCH  24  29
BRANCH  25  31
ATOM     31  O   UNL     1     -35.692  29.422  -0.534  0.00  0.00    -0.379 OA
ATOM     32  H   UNL     1     -36.484  29.977  -0.455  0.00  0.00    +0.211 HD
ENDBRANCH  25  31
BRANCH  26  33
ATOM     33  O   UNL     1     -35.626  27.715  -2.865  0.00  0.00    -0.379 OA
ATOM     34  H   UNL     1     -35.141  27.200  -3.527  0.00  0.00    +0.211 HD
ENDBRANCH  26  33
ENDBRANCH  21  23
ENDBRANCH   3  21
TORSDOF 10
ENDMDL
MODEL 5
REMARK VINA RESULT:      -5.4      2.466      5.802
REMARK  Name = 53248311
REMARK  10 active torsions:
REMARK  status: ('A' for Active; 'I' for Inactive)
REMARK    1  A    between atoms: C_2  and  O_10
REMARK    2  A    between atoms: C_2  and  C_12
REMARK    3  A    between atoms: C_3  and  O_21
REMARK    4  A    between atoms: C_13  and  C_14
REMARK    5  A    between atoms: C_16  and  C_18
REMARK    6  A    between atoms: C_18  and  O_19
REMARK    7  A    between atoms: O_21  and  C_23
REMARK    8  A    between atoms: C_24  and  O_29
REMARK    9  A    between atoms: C_25  and  O_31
REMARK   10  A    between atoms: C_26  and  O_33
REMARK                            x       y       z     vdW  Elec       q    Type
REMARK                         _______ _______ _______ _____ _____    ______ ____
ROOT
ATOM      1  C   UNL     1     -36.023  23.033   2.823  0.00  0.00    +0.028 C 
ATOM      2  C   UNL     1     -36.572  24.402   3.399  0.00  0.00    +0.129 C 
ATOM      3  C   UNL     1     -35.640  25.034   4.490  0.00  0.00    +0.121 C 
ATOM      4  C   UNL     1     -35.680  22.080   4.000  0.00  0.00    +0.003 C 
ATOM      5  C   UNL     1     -35.309  24.006   5.592  0.00  0.00    +0.030 C 
ATOM      6  C   UNL     1     -34.747  22.702   5.034  0.00  0.00    +0.003 C 
ATOM      7  C   UNL     1     -34.773  23.190   1.924  0.00  0.00    +0.003 C 
ATOM      8  C   UNL     1     -37.092  22.318   1.957  0.00  0.00    +0.003 C 
ATOM      9  C   UNL     1     -36.258  26.278   5.156  0.00  0.00    +0.032 C 
ENDROOT
BRANCH   2  10
ATOM     10  O   UNL     1     -37.819  24.118   4.071  0.00  0.00    -0.380 OA
ATOM     11  H   UNL     1     -37.896  24.678   4.860  0.00  0.00    +0.211 HD
ENDBRANCH   2  10
BRANCH   2  12
ATOM     12  C   UNL     1     -36.875  25.403   2.310  0.00  0.00    +0.002 C 
ATOM     13  C   UNL     1     -38.114  25.829   2.019  0.00  0.00    -0.006 C 
BRANCH  13  14
ATOM     14  C   UNL     1     -38.495  26.791   0.980  0.00  0.00    -0.016 C 
ATOM     15  C   UNL     1     -39.871  26.651   0.381  0.00  0.00    +0.031 C 
ATOM     16  C   UNL     1     -37.585  27.719   0.616  0.00  0.00    +0.077 C 
BRANCH  16  18
ATOM     17  O   UNL     1     -37.594  28.669  -1.609  0.00  0.00    -0.245 OA
ATOM     18  C   UNL     1     -37.781  28.768  -0.409  0.00  0.00    +0.338 C 
BRANCH  18  19
ATOM     19  O   UNL     1     -38.238  29.885   0.207  0.00  0.00    -0.477 OA
ATOM     20  H   UNL     1     -39.135  30.137   0.114  0.00  0.00    +0.295 HD
ENDBRANCH  18  19
ENDBRANCH  16  18
ENDBRANCH  13  14
ENDBRANCH   2  12
BRANCH   3  21
ATOM     21  O   UNL     1     -34.410  25.457   3.891  0.00  0.00    -0.331 OA
BRANCH  21  23
ATOM     22  O   UNL     1     -34.328  27.481   2.734  0.00  0.00    -0.329 OA
ATOM     23  C   UNL     1     -34.235  26.867   4.017  0.00  0.00    +0.266 C 
ATOM     24  C   UNL     1     -32.856  27.116   4.631  0.00  0.00    +0.196 C 
ATOM     25  C   UNL     1     -32.523  28.608   4.664  0.00  0.00    +0.171 C 
ATOM     26  C   UNL     1     -32.789  29.264   3.308  0.00  0.00    +0.167 C 
ATOM     27  C   UNL     1     -34.184  28.901   2.794  0.00  0.00    +0.147 C 
ATOM     28  C   UNL     1     -34.429  29.449   1.391  0.00  0.00    +0.035 C 
BRANCH  24  29
ATOM     29  O   UNL     1     -32.861  26.602   5.963  0.00  0.00    -0.378 OA
ATOM     30  H   UNL     1     -32.401  25.748   5.981  0.00  0.00    +0.211 HD
ENDBRANCH  24  29
BRANCH  25  31
ATOM     31  O   UNL     1     -31.139  28.779   4.974  0.00  0.00    -0.379 OA
ATOM     32  H   UNL     1     -30.766  27.934   5.268  0.00  0.00    +0.211 HD
ENDBRANCH  25  31
BRANCH  26  33
ATOM     33  O   UNL     1     -32.689  30.679   3.443  0.00  0.00    -0.379 OA
ATOM     34  H   UNL     1     -32.390  31.063   2.604  0.00  0.00    +0.211 HD
ENDBRANCH  26  33
ENDBRANCH  21  23
ENDBRANCH   3  21
TORSDOF 10
ENDMDL
MODEL 6
REMARK VINA RESULT:      -5.4      1.925      6.674
REMARK  Name = 53248311
REMARK  10 active torsions:
REMARK  status: ('A' for Active; 'I' for Inactive)
REMARK    1  A    between atoms: C_2  and  O_10
REMARK    2  A    between atoms: C_2  and  C_12
REMARK    3  A    between atoms: C_3  and  O_21
REMARK    4  A    between atoms: C_13  and  C_14
REMARK    5  A    between atoms: C_16  and  C_18
REMARK    6  A    between atoms: C_18  and  O_19
REMARK    7  A    between atoms: O_21  and  C_23
REMARK    8  A    between atoms: C_24  and  O_29
REMARK    9  A    between atoms: C_25  and  O_31
REMARK   10  A    between atoms: C_26  and  O_33
REMARK                            x       y       z     vdW  Elec       q    Type
REMARK                         _______ _______ _______ _____ _____    ______ ____
ROOT
ATOM      1  C   UNL     1     -34.526  28.218   1.234  0.00  0.00    +0.028 C 
ATOM      2  C   UNL     1     -34.451  27.901   2.784  0.00  0.00    +0.129 C 
ATOM      3  C   UNL     1     -35.197  26.580   3.182  0.00  0.00    +0.121 C 
ATOM      4  C   UNL     1     -36.005  28.154   0.766  0.00  0.00    +0.003 C 
ATOM      5  C   UNL     1     -36.640  26.578   2.635  0.00  0.00    +0.030 C 
ATOM      6  C   UNL     1     -36.703  26.849   1.135  0.00  0.00    +0.003 C 
ATOM      7  C   UNL     1     -33.680  27.261   0.359  0.00  0.00    +0.003 C 
ATOM      8  C   UNL     1     -34.014  29.650   0.928  0.00  0.00    +0.003 C 
ATOM      9  C   UNL     1     -35.255  26.365   4.707  0.00  0.00    +0.032 C 
ENDROOT
BRANCH   2  10
ATOM     10  O   UNL     1     -35.145  28.962   3.476  0.00  0.00    -0.380 OA
ATOM     11  H   UNL     1     -36.093  28.913   3.277  0.00  0.00    +0.211 HD
ENDBRANCH   2  10
BRANCH   2  12
ATOM     12  C   UNL     1     -33.032  27.890   3.300  0.00  0.00    +0.002 C 
ATOM     13  C   UNL     1     -32.530  28.838   4.107  0.00  0.00    -0.006 C 
BRANCH  13  14
ATOM     14  C   UNL     1     -31.169  28.905   4.648  0.00  0.00    -0.016 C 
ATOM     15  C   UNL     1     -30.071  29.318   3.702  0.00  0.00    +0.031 C 
ATOM     16  C   UNL     1     -30.988  28.575   5.943  0.00  0.00    +0.077 C 
BRANCH  16  18
ATOM     17  O   UNL     1     -29.102  29.549   7.104  0.00  0.00    -0.245 OA
ATOM     18  C   UNL     1     -29.697  28.580   6.667  0.00  0.00    +0.338 C 
BRANCH  18  19
ATOM     19  O   UNL     1     -29.277  27.298   6.796  0.00  0.00    -0.477 OA
ATOM     20  H   UNL     1     -28.428  27.117   7.147  0.00  0.00    +0.295 HD
ENDBRANCH  18  19
ENDBRANCH  16  18
ENDBRANCH  13  14
ENDBRANCH   2  12
BRANCH   3  21
ATOM     21  O   UNL     1     -34.510  25.451   2.633  0.00  0.00    -0.331 OA
BRANCH  21  23
ATOM     22  O   UNL     1     -34.933  23.601   3.990  0.00  0.00    -0.329 OA
ATOM     23  C   UNL     1     -35.282  24.260   2.775  0.00  0.00    +0.266 C 
ATOM     24  C   UNL     1     -34.986  23.360   1.574  0.00  0.00    +0.196 C 
ATOM     25  C   UNL     1     -35.658  21.996   1.721  0.00  0.00    +0.171 C 
ATOM     26  C   UNL     1     -35.390  21.393   3.101  0.00  0.00    +0.167 C 
ATOM     27  C   UNL     1     -35.690  22.409   4.205  0.00  0.00    +0.147 C 
ATOM     28  C   UNL     1     -35.320  21.871   5.584  0.00  0.00    +0.035 C 
BRANCH  24  29
ATOM     29  O   UNL     1     -35.477  24.007   0.400  0.00  0.00    -0.378 OA
ATOM     30  H   UNL     1     -35.596  24.953   0.578  0.00  0.00    +0.211 HD
ENDBRANCH  24  29
BRANCH  25  31
ATOM     31  O   UNL     1     -35.136  21.100   0.739  0.00  0.00    -0.379 OA
ATOM     32  H   UNL     1     -35.432  20.197   0.935  0.00  0.00    +0.211 HD
ENDBRANCH  25  31
BRANCH  26  33
ATOM     33  O   UNL     1     -36.214  20.244   3.281  0.00  0.00    -0.379 OA
ATOM     34  H   UNL     1     -35.674  19.443   3.197  0.00  0.00    +0.211 HD
ENDBRANCH  26  33
ENDBRANCH  21  23
ENDBRANCH   3  21
TORSDOF 10
ENDMDL
MODEL 7
REMARK VINA RESULT:      -5.3     10.308     13.910
REMARK  Name = 53248311
REMARK  10 active torsions:
REMARK  status: ('A' for Active; 'I' for Inactive)
REMARK    1  A    between atoms: C_2  and  O_10
REMARK    2  A    between atoms: C_2  and  C_12
REMARK    3  A    between atoms: C_3  and  O_21
REMARK    4  A    between atoms: C_13  and  C_14
REMARK    5  A    between atoms: C_16  and  C_18
REMARK    6  A    between atoms: C_18  and  O_19
REMARK    7  A    between atoms: O_21  and  C_23
REMARK    8  A    between atoms: C_24  and  O_29
REMARK    9  A    between atoms: C_25  and  O_31
REMARK   10  A    between atoms: C_26  and  O_33
REMARK                            x       y       z     vdW  Elec       q    Type
REMARK                         _______ _______ _______ _____ _____    ______ ____
ROOT
ATOM      1  C   UNL     1     -38.686  35.140   1.256  0.00  0.00    +0.028 C 
ATOM      2  C   UNL     1     -39.585  34.882  -0.022  0.00  0.00    +0.129 C 
ATOM      3  C   UNL     1     -40.325  33.501   0.010  0.00  0.00    +0.121 C 
ATOM      4  C   UNL     1     -37.752  33.920   1.482  0.00  0.00    +0.003 C 
ATOM      5  C   UNL     1     -39.332  32.352   0.290  0.00  0.00    +0.030 C 
ATOM      6  C   UNL     1     -38.493  32.589   1.542  0.00  0.00    +0.003 C 
ATOM      7  C   UNL     1     -39.497  35.398   2.549  0.00  0.00    +0.003 C 
ATOM      8  C   UNL     1     -37.774  36.380   1.062  0.00  0.00    +0.003 C 
ATOM      9  C   UNL     1     -41.067  33.191  -1.304  0.00  0.00    +0.032 C 
ENDROOT
BRANCH   2  10
ATOM     10  O   UNL     1     -38.704  34.825  -1.165  0.00  0.00    -0.380 OA
ATOM     11  H   UNL     1     -39.159  35.185  -1.942  0.00  0.00    +0.211 HD
ENDBRANCH   2  10
BRANCH   2  12
ATOM     12  C   UNL     1     -40.562  36.007  -0.272  0.00  0.00    +0.002 C 
ATOM     13  C   UNL     1     -40.638  36.677  -1.432  0.00  0.00    -0.006 C 
BRANCH  13  14
ATOM     14  C   UNL     1     -41.550  37.779  -1.756  0.00  0.00    -0.016 C 
ATOM     15  C   UNL     1     -41.212  38.623  -2.958  0.00  0.00    +0.031 C 
ATOM     16  C   UNL     1     -42.612  37.976  -0.948  0.00  0.00    +0.077 C 
BRANCH  16  18
ATOM     17  O   UNL     1     -44.416  39.165  -2.037  0.00  0.00    -0.245 OA
ATOM     18  C   UNL     1     -43.639  39.029  -1.108  0.00  0.00    +0.338 C 
BRANCH  18  19
ATOM     19  O   UNL     1     -43.600  39.831  -0.016  0.00  0.00    -0.477 OA
ATOM     20  H   UNL     1     -44.377  39.977   0.486  0.00  0.00    +0.295 HD
ENDBRANCH  18  19
ENDBRANCH  16  18
ENDBRANCH  13  14
ENDBRANCH   2  12
BRANCH   3  21
ATOM     21  O   UNL     1     -41.310  33.502   1.048  0.00  0.00    -0.331 OA
BRANCH  21  23
ATOM     22  O   UNL     1     -43.392  34.441   0.575  0.00  0.00    -0.329 OA
ATOM     23  C   UNL     1     -42.612  33.249   0.523  0.00  0.00    +0.266 C 
ATOM     24  C   UNL     1     -43.256  32.150   1.369  0.00  0.00    +0.196 C 
ATOM     25  C   UNL     1     -44.713  31.920   0.968  0.00  0.00    +0.171 C 
ATOM     26  C   UNL     1     -45.477  33.242   0.881  0.00  0.00    +0.167 C 
ATOM     27  C   UNL     1     -44.705  34.261   0.040  0.00  0.00    +0.147 C 
ATOM     28  C   UNL     1     -45.390  35.624   0.033  0.00  0.00    +0.035 C 
BRANCH  24  29
ATOM     29  O   UNL     1     -42.516  30.945   1.174  0.00  0.00    -0.378 OA
ATOM     30  H   UNL     1     -42.692  30.598   0.286  0.00  0.00    +0.211 HD
ENDBRANCH  24  29
BRANCH  25  31
ATOM     31  O   UNL     1     -45.354  31.104   1.950  0.00  0.00    -0.379 OA
ATOM     32  H   UNL     1     -46.233  30.846   1.632  0.00  0.00    +0.211 HD
ENDBRANCH  25  31
BRANCH  26  33
ATOM     33  O   UNL     1     -46.752  33.010   0.287  0.00  0.00    -0.379 OA
ATOM     34  H   UNL     1     -47.117  32.176   0.619  0.00  0.00    +0.211 HD
ENDBRANCH  26  33
ENDBRANCH  21  23
ENDBRANCH   3  21
TORSDOF 10
ENDMDL
MODEL 8
REMARK VINA RESULT:      -5.3      4.905      8.253
REMARK  Name = 53248311
REMARK  10 active torsions:
REMARK  status: ('A' for Active; 'I' for Inactive)
REMARK    1  A    between atoms: C_2  and  O_10
REMARK    2  A    between atoms: C_2  and  C_12
REMARK    3  A    between atoms: C_3  and  O_21
REMARK    4  A    between atoms: C_13  and  C_14
REMARK    5  A    between atoms: C_16  and  C_18
REMARK    6  A    between atoms: C_18  and  O_19
REMARK    7  A    between atoms: O_21  and  C_23
REMARK    8  A    between atoms: C_24  and  O_29
REMARK    9  A    between atoms: C_25  and  O_31
REMARK   10  A    between atoms: C_26  and  O_33
REMARK                            x       y       z     vdW  Elec       q    Type
REMARK                         _______ _______ _______ _____ _____    ______ ____
ROOT
ATOM      1  C   UNL     1     -37.574  21.362   0.877  0.00  0.00    +0.028 C 
ATOM      2  C   UNL     1     -36.353  20.905   1.777  0.00  0.00    +0.129 C 
ATOM      3  C   UNL     1     -35.171  20.291   0.950  0.00  0.00    +0.121 C 
ATOM      4  C   UNL     1     -37.988  20.196  -0.060  0.00  0.00    +0.003 C 
ATOM      5  C   UNL     1     -35.679  19.176   0.010  0.00  0.00    +0.030 C 
ATOM      6  C   UNL     1     -36.831  19.633  -0.879  0.00  0.00    +0.003 C 
ATOM      7  C   UNL     1     -37.282  22.617   0.019  0.00  0.00    +0.003 C 
ATOM      8  C   UNL     1     -38.812  21.710   1.745  0.00  0.00    +0.003 C 
ATOM      9  C   UNL     1     -34.060  19.704   1.842  0.00  0.00    +0.032 C 
ENDROOT
BRANCH   2  10
ATOM     10  O   UNL     1     -36.823  19.841   2.633  0.00  0.00    -0.380 OA
ATOM     11  H   UNL     1     -37.143  19.105   2.088  0.00  0.00    +0.211 HD
ENDBRANCH   2  10
BRANCH   2  12
ATOM     12  C   UNL     1     -35.858  22.011   2.678  0.00  0.00    +0.002 C 
ATOM     13  C   UNL     1     -36.093  22.051   3.999  0.00  0.00    -0.006 C 
BRANCH  13  14
ATOM     14  C   UNL     1     -35.654  23.085   4.941  0.00  0.00    -0.016 C 
ATOM     15  C   UNL     1     -35.230  22.631   6.314  0.00  0.00    +0.031 C 
ATOM     16  C   UNL     1     -35.678  24.369   4.526  0.00  0.00    +0.077 C 
BRANCH  16  18
ATOM     17  O   UNL     1     -34.155  25.828   5.711  0.00  0.00    -0.245 OA
ATOM     18  C   UNL     1     -35.277  25.547   5.326  0.00  0.00    +0.338 C 
BRANCH  18  19
ATOM     19  O   UNL     1     -36.378  26.303   5.552  0.00  0.00    -0.477 OA
ATOM     20  H   UNL     1     -37.183  25.895   5.801  0.00  0.00    +0.295 HD
ENDBRANCH  18  19
ENDBRANCH  16  18
ENDBRANCH  13  14
ENDBRANCH   2  12
BRANCH   3  21
ATOM     21  O   UNL     1     -34.561  21.307   0.148  0.00  0.00    -0.331 OA
BRANCH  21  23
ATOM     22  O   UNL     1     -32.382  20.582  -0.263  0.00  0.00    -0.329 OA
ATOM     23  C   UNL     1     -33.683  20.739  -0.823  0.00  0.00    +0.266 C 
ATOM     24  C   UNL     1     -33.638  21.682  -2.026  0.00  0.00    +0.196 C 
ATOM     25  C   UNL     1     -32.604  21.224  -3.054  0.00  0.00    +0.171 C 
ATOM     26  C   UNL     1     -31.263  20.912  -2.388  0.00  0.00    +0.167 C 
ATOM     27  C   UNL     1     -31.458  19.993  -1.179  0.00  0.00    +0.147 C 
ATOM     28  C   UNL     1     -30.150  19.762  -0.429  0.00  0.00    +0.035 C 
BRANCH  24  29
ATOM     29  O   UNL     1     -34.932  21.697  -2.630  0.00  0.00    -0.378 OA
ATOM     30  H   UNL     1     -34.842  21.880  -3.579  0.00  0.00    +0.211 HD
ENDBRANCH  24  29
BRANCH  25  31
ATOM     31  O   UNL     1     -32.390  22.263  -4.010  0.00  0.00    -0.379 OA
ATOM     32  H   UNL     1     -32.834  23.073  -3.713  0.00  0.00    +0.211 HD
ENDBRANCH  25  31
BRANCH  26  33
ATOM     33  O   UNL     1     -30.405  20.275  -3.331  0.00  0.00    -0.379 OA
ATOM     34  H   UNL     1     -30.934  19.926  -4.065  0.00  0.00    +0.211 HD
ENDBRANCH  26  33
ENDBRANCH  21  23
ENDBRANCH   3  21
TORSDOF 10
ENDMDL
MODEL 9
REMARK VINA RESULT:      -5.3      3.799      6.476
REMARK  Name = 53248311
REMARK  10 active torsions:
REMARK  status: ('A' for Active; 'I' for Inactive)
REMARK    1  A    between atoms: C_2  and  O_10
REMARK    2  A    between atoms: C_2  and  C_12
REMARK    3  A    between atoms: C_3  and  O_21
REMARK    4  A    between atoms: C_13  and  C_14
REMARK    5  A    between atoms: C_16  and  C_18
REMARK    6  A    between atoms: C_18  and  O_19
REMARK    7  A    between atoms: O_21  and  C_23
REMARK    8  A    between atoms: C_24  and  O_29
REMARK    9  A    between atoms: C_25  and  O_31
REMARK   10  A    between atoms: C_26  and  O_33
REMARK                            x       y       z     vdW  Elec       q    Type
REMARK                         _______ _______ _______ _____ _____    ______ ____
ROOT
ATOM      1  C   UNL     1     -36.723  21.298   0.574  0.00  0.00    +0.028 C 
ATOM      2  C   UNL     1     -37.209  22.030   1.892  0.00  0.00    +0.129 C 
ATOM      3  C   UNL     1     -36.045  22.332   2.897  0.00  0.00    +0.121 C 
ATOM      4  C   UNL     1     -35.871  20.058   0.957  0.00  0.00    +0.003 C 
ATOM      5  C   UNL     1     -35.221  21.059   3.183  0.00  0.00    +0.030 C 
ATOM      6  C   UNL     1     -34.725  20.379   1.910  0.00  0.00    +0.003 C 
ATOM      7  C   UNL     1     -35.896  22.201  -0.374  0.00  0.00    +0.003 C 
ATOM      8  C   UNL     1     -37.926  20.783  -0.260  0.00  0.00    +0.003 C 
ATOM      9  C   UNL     1     -36.547  22.897   4.239  0.00  0.00    +0.032 C 
ENDROOT
BRANCH   2  10
ATOM     10  O   UNL     1     -38.095  21.124   2.585  0.00  0.00    -0.380 OA
ATOM     11  H   UNL     1     -38.978  21.167   2.187  0.00  0.00    +0.211 HD
ENDBRANCH   2  10
BRANCH   2  12
ATOM     12  C   UNL     1     -37.999  23.281   1.595  0.00  0.00    +0.002 C 
ATOM     13  C   UNL     1     -39.232  23.510   2.074  0.00  0.00    -0.006 C 
BRANCH  13  14
ATOM     14  C   UNL     1     -40.067  24.691   1.833  0.00  0.00    -0.016 C 
ATOM     15  C   UNL     1     -40.372  25.039   0.399  0.00  0.00    +0.031 C 
ATOM     16  C   UNL     1     -40.485  25.397   2.904  0.00  0.00    +0.077 C 
BRANCH  16  18
ATOM     17  O   UNL     1     -42.029  26.994   1.944  0.00  0.00    -0.245 OA
ATOM     18  C   UNL     1     -41.329  26.612   2.865  0.00  0.00    +0.338 C 
BRANCH  18  19
ATOM     19  O   UNL     1     -41.221  27.244   4.059  0.00  0.00    -0.477 OA
ATOM     20  H   UNL     1     -41.147  28.177   4.091  0.00  0.00    +0.295 HD
ENDBRANCH  18  19
ENDBRANCH  16  18
ENDBRANCH  13  14
ENDBRANCH   2  12
BRANCH   3  21
ATOM     21  O   UNL     1     -35.167  23.316   2.340  0.00  0.00    -0.331 OA
BRANCH  21  23
ATOM     22  O   UNL     1     -36.017  25.444   1.900  0.00  0.00    -0.329 OA
ATOM     23  C   UNL     1     -35.425  24.607   2.891  0.00  0.00    +0.266 C 
ATOM     24  C   UNL     1     -34.092  25.193   3.360  0.00  0.00    +0.196 C 
ATOM     25  C   UNL     1     -34.254  26.639   3.829  0.00  0.00    +0.171 C 
ATOM     26  C   UNL     1     -35.035  27.467   2.807  0.00  0.00    +0.167 C 
ATOM     27  C   UNL     1     -36.323  26.748   2.396  0.00  0.00    +0.147 C 
ATOM     28  C   UNL     1     -37.061  27.499   1.293  0.00  0.00    +0.035 C 
BRANCH  24  29
ATOM     29  O   UNL     1     -33.610  24.396   4.442  0.00  0.00    -0.378 OA
ATOM     30  H   UNL     1     -33.202  24.970   5.109  0.00  0.00    +0.211 HD
ENDBRANCH  24  29
BRANCH  25  31
ATOM     31  O   UNL     1     -32.966  27.235   3.988  0.00  0.00    -0.379 OA
ATOM     32  H   UNL     1     -33.027  28.187   3.816  0.00  0.00    +0.211 HD
ENDBRANCH  25  31
BRANCH  26  33
ATOM     33  O   UNL     1     -35.362  28.731   3.377  0.00  0.00    -0.379 OA
ATOM     34  H   UNL     1     -34.602  29.067   3.876  0.00  0.00    +0.211 HD
ENDBRANCH  26  33
ENDBRANCH  21  23
ENDBRANCH   3  21
TORSDOF 10
ENDMDL
