MODEL 1
REMARK VINA RESULT:      -7.0      0.000      0.000
REMARK  Name = 5476534
REMARK  4 active torsions:
REMARK  status: ('A' for Active; 'I' for Inactive)
REMARK    1  A    between atoms: C_1  and  C_6
REMARK    2  A    between atoms: C_2  and  C_21
REMARK    3  A    between atoms: C_9  and  C_14
REMARK    4  A    between atoms: C_24  and  C_29
REMARK                            x       y       z     vdW  Elec       q    Type
REMARK                         _______ _______ _______ _____ _____    ______ ____
ROOT
ATOM      1  C   UNL     1     -34.742  19.557   1.572  0.00  0.00    +0.041 C 
ATOM      2  C   UNL     1     -33.556  18.871   1.429  0.00  0.00    +0.041 C 
ENDROOT
BRANCH   1   6
ATOM      3  O   UNL     1     -35.172  20.725   3.654  0.00  0.00    -0.453 OA
ATOM      4  C   UNL     1     -35.186  22.873   2.955  0.00  0.00    +0.038 C 
ATOM      5  C   UNL     1     -35.319  22.022   4.047  0.00  0.00    +0.145 C 
ATOM      6  C   UNL     1     -34.945  20.742   2.315  0.00  0.00    +0.145 C 
ATOM      7  C   UNL     1     -34.944  22.033   1.838  0.00  0.00    +0.041 C 
ATOM      8  C   UNL     1     -35.308  24.258   3.166  0.00  0.00    +0.006 C 
ATOM      9  C   UNL     1     -35.557  24.722   4.464  0.00  0.00    +0.031 C 
ATOM     10  C   UNL     1     -35.568  22.453   5.350  0.00  0.00    +0.038 C 
ATOM     11  C   UNL     1     -35.684  23.833   5.536  0.00  0.00    +0.006 C 
BRANCH   9  14
ATOM     12  N   UNL     1     -34.825  27.067   4.093  0.00  0.00    -0.343 N 
ATOM     13  N   UNL     1     -36.626  26.605   5.508  0.00  0.00    -0.285 NA
ATOM     14  C   UNL     1     -35.684  26.152   4.700  0.00  0.00    +0.117 C 
ATOM     15  H   UNL     1     -34.928  28.030   4.266  0.00  0.00    +0.144 HD
ATOM     16  H   UNL     1     -34.113  26.748   3.491  0.00  0.00    +0.144 HD
ATOM     17  H   UNL     1     -36.714  27.571   5.668  0.00  0.00    +0.188 HD
ENDBRANCH   9  14
ENDBRANCH   1   6
BRANCH   2  21
ATOM     18  O   UNL     1     -32.171  17.013   0.709  0.00  0.00    -0.453 OA
ATOM     19  C   UNL     1     -33.616  15.872  -0.599  0.00  0.00    +0.038 C 
ATOM     20  C   UNL     1     -32.325  15.915  -0.082  0.00  0.00    +0.145 C 
ATOM     21  C   UNL     1     -33.349  17.624   0.671  0.00  0.00    +0.145 C 
ATOM     22  C   UNL     1     -34.276  17.018  -0.085  0.00  0.00    +0.041 C 
ATOM     23  C   UNL     1     -33.965  14.804  -1.444  0.00  0.00    +0.006 C 
ATOM     24  C   UNL     1     -32.999  13.828  -1.730  0.00  0.00    +0.031 C 
ATOM     25  C   UNL     1     -31.344  14.962  -0.348  0.00  0.00    +0.038 C 
ATOM     26  C   UNL     1     -31.712  13.908  -1.190  0.00  0.00    +0.006 C 
BRANCH  24  29
ATOM     27  N   UNL     1     -32.626  12.459  -3.768  0.00  0.00    -0.343 N 
ATOM     28  N   UNL     1     -34.359  11.929  -2.293  0.00  0.00    -0.285 NA
ATOM     29  C   UNL     1     -33.344  12.716  -2.601  0.00  0.00    +0.117 C 
ATOM     30  H   UNL     1     -32.876  11.701  -4.344  0.00  0.00    +0.144 HD
ATOM     31  H   UNL     1     -31.868  13.037  -4.016  0.00  0.00    +0.144 HD
ATOM     32  H   UNL     1     -34.595  11.175  -2.881  0.00  0.00    +0.188 HD
ENDBRANCH  24  29
ENDBRANCH   2  21
TORSDOF 4
ENDMDL
MODEL 2
REMARK VINA RESULT:      -7.0      0.405     10.919
REMARK  Name = 5476534
REMARK  4 active torsions:
REMARK  status: ('A' for Active; 'I' for Inactive)
REMARK    1  A    between atoms: C_1  and  C_6
REMARK    2  A    between atoms: C_2  and  C_21
REMARK    3  A    between atoms: C_9  and  C_14
REMARK    4  A    between atoms: C_24  and  C_29
REMARK                            x       y       z     vdW  Elec       q    Type
REMARK                         _______ _______ _______ _____ _____    ______ ____
ROOT
ATOM      1  C   UNL     1     -33.528  18.820   1.461  0.00  0.00    +0.041 C 
ATOM      2  C   UNL     1     -34.687  19.563   1.501  0.00  0.00    +0.041 C 
ENDROOT
BRANCH   1   6
ATOM      3  O   UNL     1     -32.133  16.964   0.761  0.00  0.00    -0.453 OA
ATOM      4  C   UNL     1     -33.543  15.847  -0.605  0.00  0.00    +0.038 C 
ATOM      5  C   UNL     1     -32.270  15.875  -0.048  0.00  0.00    +0.145 C 
ATOM      6  C   UNL     1     -33.315  17.632   0.725  0.00  0.00    +0.145 C 
ATOM      7  C   UNL     1     -34.213  16.990  -0.097  0.00  0.00    +0.041 C 
ATOM      8  C   UNL     1     -33.872  14.791  -1.474  0.00  0.00    +0.006 C 
ATOM      9  C   UNL     1     -32.905  13.814  -1.742  0.00  0.00    +0.031 C 
ATOM     10  C   UNL     1     -31.286  14.918  -0.296  0.00  0.00    +0.038 C 
ATOM     11  C   UNL     1     -31.635  13.878  -1.161  0.00  0.00    +0.006 C 
BRANCH   9  14
ATOM     12  N   UNL     1     -32.455  11.555  -2.672  0.00  0.00    -0.343 N 
ATOM     13  N   UNL     1     -34.273  12.806  -3.441  0.00  0.00    -0.285 NA
ATOM     14  C   UNL     1     -33.230  12.714  -2.637  0.00  0.00    +0.117 C 
ATOM     15  H   UNL     1     -32.692  10.823  -3.286  0.00  0.00    +0.144 HD
ATOM     16  H   UNL     1     -31.670  11.470  -2.083  0.00  0.00    +0.144 HD
ATOM     17  H   UNL     1     -34.494  12.063  -4.047  0.00  0.00    +0.188 HD
ENDBRANCH   9  14
ENDBRANCH   1   6
BRANCH   2  21
ATOM     18  O   UNL     1     -35.160  20.710   3.587  0.00  0.00    -0.453 OA
ATOM     19  C   UNL     1     -35.164  22.865   2.910  0.00  0.00    +0.038 C 
ATOM     20  C   UNL     1     -35.316  22.002   3.990  0.00  0.00    +0.145 C 
ATOM     21  C   UNL     1     -34.916  20.791   2.284  0.00  0.00    +0.145 C 
ATOM     22  C   UNL     1     -34.899  22.037   1.789  0.00  0.00    +0.041 C 
ATOM     23  C   UNL     1     -35.292  24.248   3.132  0.00  0.00    +0.006 C 
ATOM     24  C   UNL     1     -35.568  24.698   4.431  0.00  0.00    +0.031 C 
ATOM     25  C   UNL     1     -35.592  22.419   5.292  0.00  0.00    +0.038 C 
ATOM     26  C   UNL     1     -35.714  23.797   5.490  0.00  0.00    +0.006 C 
BRANCH  24  29
ATOM     27  N   UNL     1     -34.830  27.046   4.102  0.00  0.00    -0.343 N 
ATOM     28  N   UNL     1     -36.663  26.567   5.469  0.00  0.00    -0.285 NA
ATOM     29  C   UNL     1     -35.702  26.125   4.679  0.00  0.00    +0.117 C 
ATOM     30  H   UNL     1     -34.938  28.007   4.284  0.00  0.00    +0.144 HD
ATOM     31  H   UNL     1     -34.105  26.735   3.513  0.00  0.00    +0.144 HD
ATOM     32  H   UNL     1     -36.757  27.533   5.639  0.00  0.00    +0.188 HD
ENDBRANCH  24  29
ENDBRANCH   2  21
TORSDOF 4
ENDMDL
MODEL 3
REMARK VINA RESULT:      -6.9      1.181      1.667
REMARK  Name = 5476534
REMARK  4 active torsions:
REMARK  status: ('A' for Active; 'I' for Inactive)
REMARK    1  A    between atoms: C_1  and  C_6
REMARK    2  A    between atoms: C_2  and  C_21
REMARK    3  A    between atoms: C_9  and  C_14
REMARK    4  A    between atoms: C_24  and  C_29
REMARK                            x       y       z     vdW  Elec       q    Type
REMARK                         _______ _______ _______ _____ _____    ______ ____
ROOT
ATOM      1  C   UNL     1     -35.147  19.654   1.408  0.00  0.00    +0.041 C 
ATOM      2  C   UNL     1     -34.032  18.922   1.067  0.00  0.00    +0.041 C 
ENDROOT
BRANCH   1   6
ATOM      3  O   UNL     1     -35.284  20.543   3.660  0.00  0.00    -0.453 OA
ATOM      4  C   UNL     1     -35.243  22.766   3.257  0.00  0.00    +0.038 C 
ATOM      5  C   UNL     1     -35.311  21.779   4.235  0.00  0.00    +0.145 C 
ATOM      6  C   UNL     1     -35.200  20.734   2.318  0.00  0.00    +0.145 C 
ATOM      7  C   UNL     1     -35.171  22.077   2.018  0.00  0.00    +0.041 C 
ATOM      8  C   UNL     1     -35.259  24.112   3.660  0.00  0.00    +0.006 C 
ATOM      9  C   UNL     1     -35.342  24.405   5.028  0.00  0.00    +0.031 C 
ATOM     10  C   UNL     1     -35.395  22.038   5.603  0.00  0.00    +0.038 C 
ATOM     11  C   UNL     1     -35.408  23.383   5.980  0.00  0.00    +0.006 C 
BRANCH   9  14
ATOM     12  N   UNL     1     -34.231  26.388   6.029  0.00  0.00    -0.343 N 
ATOM     13  N   UNL     1     -36.457  26.512   5.327  0.00  0.00    -0.285 NA
ATOM     14  C   UNL     1     -35.358  25.793   5.462  0.00  0.00    +0.117 C 
ATOM     15  H   UNL     1     -34.264  27.329   6.317  0.00  0.00    +0.144 HD
ATOM     16  H   UNL     1     -33.404  25.866   6.142  0.00  0.00    +0.144 HD
ATOM     17  H   UNL     1     -36.470  27.451   5.620  0.00  0.00    +0.188 HD
ENDBRANCH   9  14
ENDBRANCH   1   6
BRANCH   2  21
ATOM     18  O   UNL     1     -34.919  17.648  -0.799  0.00  0.00    -0.453 OA
ATOM     19  C   UNL     1     -33.414  15.969  -0.937  0.00  0.00    +0.038 C 
ATOM     20  C   UNL     1     -34.573  16.516  -1.475  0.00  0.00    +0.145 C 
ATOM     21  C   UNL     1     -33.982  17.782   0.133  0.00  0.00    +0.145 C 
ATOM     22  C   UNL     1     -33.040  16.828   0.129  0.00  0.00    +0.041 C 
ATOM     23  C   UNL     1     -32.900  14.790  -1.506  0.00  0.00    +0.006 C 
ATOM     24  C   UNL     1     -33.578  14.217  -2.591  0.00  0.00    +0.031 C 
ATOM     25  C   UNL     1     -35.270  15.970  -2.552  0.00  0.00    +0.038 C 
ATOM     26  C   UNL     1     -34.742  14.799  -3.103  0.00  0.00    +0.006 C 
BRANCH  24  29
ATOM     27  N   UNL     1     -33.540  12.534  -4.417  0.00  0.00    -0.343 N 
ATOM     28  N   UNL     1     -32.120  12.307  -2.575  0.00  0.00    -0.285 NA
ATOM     29  C   UNL     1     -33.060  12.998  -3.194  0.00  0.00    +0.117 C 
ATOM     30  H   UNL     1     -33.176  11.707  -4.807  0.00  0.00    +0.144 HD
ATOM     31  H   UNL     1     -34.243  13.034  -4.892  0.00  0.00    +0.144 HD
ATOM     32  H   UNL     1     -31.768  11.481  -2.980  0.00  0.00    +0.188 HD
ENDBRANCH  24  29
ENDBRANCH   2  21
TORSDOF 4
ENDMDL
MODEL 4
REMARK VINA RESULT:      -6.9      1.188     10.956
REMARK  Name = 5476534
REMARK  4 active torsions:
REMARK  status: ('A' for Active; 'I' for Inactive)
REMARK    1  A    between atoms: C_1  and  C_6
REMARK    2  A    between atoms: C_2  and  C_21
REMARK    3  A    between atoms: C_9  and  C_14
REMARK    4  A    between atoms: C_24  and  C_29
REMARK                            x       y       z     vdW  Elec       q    Type
REMARK                         _______ _______ _______ _____ _____    ______ ____
ROOT
ATOM      1  C   UNL     1     -34.023  18.946   1.032  0.00  0.00    +0.041 C 
ATOM      2  C   UNL     1     -35.133  19.693   1.358  0.00  0.00    +0.041 C 
ENDROOT
BRANCH   1   6
ATOM      3  O   UNL     1     -34.794  17.787  -0.954  0.00  0.00    -0.453 OA
ATOM      4  C   UNL     1     -33.453  15.969  -0.947  0.00  0.00    +0.038 C 
ATOM      5  C   UNL     1     -34.480  16.633  -1.609  0.00  0.00    +0.145 C 
ATOM      6  C   UNL     1     -33.972  17.864   0.125  0.00  0.00    +0.145 C 
ATOM      7  C   UNL     1     -33.131  16.775   0.175  0.00  0.00    +0.041 C 
ATOM      8  C   UNL     1     -32.991  14.751  -1.478  0.00  0.00    +0.006 C 
ATOM      9  C   UNL     1     -33.584  14.259  -2.648  0.00  0.00    +0.031 C 
ATOM     10  C   UNL     1     -35.090  16.169  -2.774  0.00  0.00    +0.038 C 
ATOM     11  C   UNL     1     -34.615  14.958  -3.283  0.00  0.00    +0.006 C 
BRANCH   9  14
ATOM     12  N   UNL     1     -33.972  12.165  -3.928  0.00  0.00    -0.343 N 
ATOM     13  N   UNL     1     -31.860  12.631  -3.042  0.00  0.00    -0.285 NA
ATOM     14  C   UNL     1     -33.117  13.001  -3.211  0.00  0.00    +0.117 C 
ATOM     15  H   UNL     1     -33.636  11.319  -4.299  0.00  0.00    +0.144 HD
ATOM     16  H   UNL     1     -34.914  12.423  -4.060  0.00  0.00    +0.144 HD
ATOM     17  H   UNL     1     -31.543  11.781  -3.422  0.00  0.00    +0.188 HD
ENDBRANCH   9  14
ENDBRANCH   1   6
BRANCH   2  21
ATOM     18  O   UNL     1     -35.257  20.558   3.623  0.00  0.00    -0.453 OA
ATOM     19  C   UNL     1     -35.243  22.784   3.241  0.00  0.00    +0.038 C 
ATOM     20  C   UNL     1     -35.291  21.787   4.209  0.00  0.00    +0.145 C 
ATOM     21  C   UNL     1     -35.190  20.808   2.320  0.00  0.00    +0.145 C 
ATOM     22  C   UNL     1     -35.176  22.109   1.994  0.00  0.00    +0.041 C 
ATOM     23  C   UNL     1     -35.269  24.127   3.657  0.00  0.00    +0.006 C 
ATOM     24  C   UNL     1     -35.341  24.404   5.030  0.00  0.00    +0.031 C 
ATOM     25  C   UNL     1     -35.364  22.031   5.580  0.00  0.00    +0.038 C 
ATOM     26  C   UNL     1     -35.388  23.372   5.972  0.00  0.00    +0.006 C 
BRANCH  24  29
ATOM     27  N   UNL     1     -34.221  26.413   5.964  0.00  0.00    -0.343 N 
ATOM     28  N   UNL     1     -36.496  26.472   5.435  0.00  0.00    -0.285 NA
ATOM     29  C   UNL     1     -35.367  25.788   5.479  0.00  0.00    +0.117 C 
ATOM     30  H   UNL     1     -34.260  27.350   6.264  0.00  0.00    +0.144 HD
ATOM     31  H   UNL     1     -33.370  25.918   6.008  0.00  0.00    +0.144 HD
ATOM     32  H   UNL     1     -36.517  27.409   5.738  0.00  0.00    +0.188 HD
ENDBRANCH  24  29
ENDBRANCH   2  21
TORSDOF 4
ENDMDL
MODEL 5
REMARK VINA RESULT:      -6.9      4.674     11.300
REMARK  Name = 5476534
REMARK  4 active torsions:
REMARK  status: ('A' for Active; 'I' for Inactive)
REMARK    1  A    between atoms: C_1  and  C_6
REMARK    2  A    between atoms: C_2  and  C_21
REMARK    3  A    between atoms: C_9  and  C_14
REMARK    4  A    between atoms: C_24  and  C_29
REMARK                            x       y       z     vdW  Elec       q    Type
REMARK                         _______ _______ _______ _____ _____    ______ ____
ROOT
ATOM      1  C   UNL     1     -36.442  22.663   1.955  0.00  0.00    +0.041 C 
ATOM      2  C   UNL     1     -37.710  22.692   1.417  0.00  0.00    +0.041 C 
ENDROOT
BRANCH   1   6
ATOM      3  O   UNL     1     -34.412  22.100   0.753  0.00  0.00    -0.453 OA
ATOM      4  C   UNL     1     -34.055  19.985   1.464  0.00  0.00    +0.038 C 
ATOM      5  C   UNL     1     -33.588  21.018   0.658  0.00  0.00    +0.145 C 
ATOM      6  C   UNL     1     -35.404  21.765   1.617  0.00  0.00    +0.145 C 
ATOM      7  C   UNL     1     -35.233  20.480   2.082  0.00  0.00    +0.041 C 
ATOM      8  C   UNL     1     -33.332  18.780   1.497  0.00  0.00    +0.006 C 
ATOM      9  C   UNL     1     -32.173  18.669   0.717  0.00  0.00    +0.031 C 
ATOM     10  C   UNL     1     -32.440  20.938  -0.129  0.00  0.00    +0.038 C 
ATOM     11  C   UNL     1     -31.737  19.731  -0.081  0.00  0.00    +0.006 C 
BRANCH   9  14
ATOM     12  N   UNL     1     -30.075  17.407   1.136  0.00  0.00    -0.343 N 
ATOM     13  N   UNL     1     -31.987  16.297   0.377  0.00  0.00    -0.285 NA
ATOM     14  C   UNL     1     -31.412  17.429   0.741  0.00  0.00    +0.117 C 
ATOM     15  H   UNL     1     -29.579  16.557   1.144  0.00  0.00    +0.144 HD
ATOM     16  H   UNL     1     -29.628  18.242   1.406  0.00  0.00    +0.144 HD
ATOM     17  H   UNL     1     -31.474  15.458   0.392  0.00  0.00    +0.188 HD
ENDBRANCH   9  14
ENDBRANCH   1   6
BRANCH   2  21
ATOM     18  O   UNL     1     -39.875  23.712   1.011  0.00  0.00    -0.453 OA
ATOM     19  C   UNL     1     -40.047  25.094   2.790  0.00  0.00    +0.038 C 
ATOM     20  C   UNL     1     -40.663  24.633   1.632  0.00  0.00    +0.145 C 
ATOM     21  C   UNL     1     -38.798  23.617   1.783  0.00  0.00    +0.145 C 
ATOM     22  C   UNL     1     -38.809  24.404   2.868  0.00  0.00    +0.041 C 
ATOM     23  C   UNL     1     -40.713  26.057   3.568  0.00  0.00    +0.006 C 
ATOM     24  C   UNL     1     -41.970  26.511   3.146  0.00  0.00    +0.031 C 
ATOM     25  C   UNL     1     -41.911  25.066   1.185  0.00  0.00    +0.038 C 
ATOM     26  C   UNL     1     -42.556  26.022   1.974  0.00  0.00    +0.006 C 
BRANCH  24  29
ATOM     27  N   UNL     1     -44.022  27.354   4.261  0.00  0.00    -0.343 N 
ATOM     28  N   UNL     1     -42.035  28.580   4.366  0.00  0.00    -0.285 NA
ATOM     29  C   UNL     1     -42.675  27.506   3.940  0.00  0.00    +0.117 C 
ATOM     30  H   UNL     1     -44.480  28.039   4.799  0.00  0.00    +0.144 HD
ATOM     31  H   UNL     1     -44.517  26.562   3.949  0.00  0.00    +0.144 HD
ATOM     32  H   UNL     1     -42.510  29.255   4.904  0.00  0.00    +0.188 HD
ENDBRANCH  24  29
ENDBRANCH   2  21
TORSDOF 4
ENDMDL
MODEL 6
REMARK VINA RESULT:      -6.9      4.694      6.106
REMARK  Name = 5476534
REMARK  4 active torsions:
REMARK  status: ('A' for Active; 'I' for Inactive)
REMARK    1  A    between atoms: C_1  and  C_6
REMARK    2  A    between atoms: C_2  and  C_21
REMARK    3  A    between atoms: C_9  and  C_14
REMARK    4  A    between atoms: C_24  and  C_29
REMARK                            x       y       z     vdW  Elec       q    Type
REMARK                         _______ _______ _______ _____ _____    ______ ____
ROOT
ATOM      1  C   UNL     1     -37.563  23.135   1.352  0.00  0.00    +0.041 C 
ATOM      2  C   UNL     1     -36.721  22.445   2.196  0.00  0.00    +0.041 C 
ENDROOT
BRANCH   1   6
ATOM      3  O   UNL     1     -39.790  24.026   0.992  0.00  0.00    -0.453 OA
ATOM      4  C   UNL     1     -40.022  25.366   2.796  0.00  0.00    +0.038 C 
ATOM      5  C   UNL     1     -40.626  24.887   1.638  0.00  0.00    +0.145 C 
ATOM      6  C   UNL     1     -38.654  23.950   1.732  0.00  0.00    +0.145 C 
ATOM      7  C   UNL     1     -38.744  24.752   2.847  0.00  0.00    +0.041 C 
ATOM      8  C   UNL     1     -40.737  26.272   3.599  0.00  0.00    +0.006 C 
ATOM      9  C   UNL     1     -42.024  26.655   3.201  0.00  0.00    +0.031 C 
ATOM     10  C   UNL     1     -41.904  25.250   1.214  0.00  0.00    +0.038 C 
ATOM     11  C   UNL     1     -42.595  26.152   2.028  0.00  0.00    +0.006 C 
BRANCH   9  14
ATOM     12  N   UNL     1     -44.100  27.339   4.381  0.00  0.00    -0.343 N 
ATOM     13  N   UNL     1     -42.208  28.709   4.435  0.00  0.00    -0.285 NA
ATOM     14  C   UNL     1     -42.777  27.591   4.021  0.00  0.00    +0.117 C 
ATOM     15  H   UNL     1     -44.592  27.986   4.936  0.00  0.00    +0.144 HD
ATOM     16  H   UNL     1     -44.543  26.513   4.077  0.00  0.00    +0.144 HD
ATOM     17  H   UNL     1     -42.716  29.343   4.990  0.00  0.00    +0.188 HD
ENDBRANCH   9  14
ENDBRANCH   1   6
BRANCH   2  21
ATOM     18  O   UNL     1     -34.696  22.021   0.927  0.00  0.00    -0.453 OA
ATOM     19  C   UNL     1     -34.196  19.921   1.593  0.00  0.00    +0.038 C 
ATOM     20  C   UNL     1     -33.814  20.991   0.791  0.00  0.00    +0.145 C 
ATOM     21  C   UNL     1     -35.596  21.579   1.799  0.00  0.00    +0.145 C 
ATOM     22  C   UNL     1     -35.382  20.336   2.252  0.00  0.00    +0.041 C 
ATOM     23  C   UNL     1     -33.403  18.760   1.586  0.00  0.00    +0.006 C 
ATOM     24  C   UNL     1     -32.262  18.729   0.771  0.00  0.00    +0.031 C 
ATOM     25  C   UNL     1     -32.687  20.991  -0.029  0.00  0.00    +0.038 C 
ATOM     26  C   UNL     1     -31.913  19.827  -0.021  0.00  0.00    +0.006 C 
BRANCH  24  29
ATOM     27  N   UNL     1     -30.089  17.582   1.133  0.00  0.00    -0.343 N 
ATOM     28  N   UNL     1     -31.942  16.383   0.363  0.00  0.00    -0.285 NA
ATOM     29  C   UNL     1     -31.429  17.537   0.752  0.00  0.00    +0.117 C 
ATOM     30  H   UNL     1     -29.543  16.764   1.112  0.00  0.00    +0.144 HD
ATOM     31  H   UNL     1     -29.689  18.434   1.422  0.00  0.00    +0.144 HD
ATOM     32  H   UNL     1     -31.380  15.574   0.349  0.00  0.00    +0.188 HD
ENDBRANCH  24  29
ENDBRANCH   2  21
TORSDOF 4
ENDMDL
MODEL 7
REMARK VINA RESULT:      -6.9      6.881     14.296
REMARK  Name = 5476534
REMARK  4 active torsions:
REMARK  status: ('A' for Active; 'I' for Inactive)
REMARK    1  A    between atoms: C_1  and  C_6
REMARK    2  A    between atoms: C_2  and  C_21
REMARK    3  A    between atoms: C_9  and  C_14
REMARK    4  A    between atoms: C_24  and  C_29
REMARK                            x       y       z     vdW  Elec       q    Type
REMARK                         _______ _______ _______ _____ _____    ______ ____
ROOT
ATOM      1  C   UNL     1     -34.265  28.755   2.862  0.00  0.00    +0.041 C 
ATOM      2  C   UNL     1     -35.166  29.795   2.813  0.00  0.00    +0.041 C 
ENDROOT
BRANCH   1   6
ATOM      3  O   UNL     1     -34.903  27.146   4.560  0.00  0.00    -0.453 OA
ATOM      4  C   UNL     1     -34.807  25.215   3.392  0.00  0.00    +0.038 C 
ATOM      5  C   UNL     1     -35.075  25.795   4.627  0.00  0.00    +0.145 C 
ATOM      6  C   UNL     1     -34.526  27.433   3.287  0.00  0.00    +0.145 C 
ATOM      7  C   UNL     1     -34.453  26.285   2.530  0.00  0.00    +0.041 C 
ATOM      8  C   UNL     1     -34.932  23.820   3.265  0.00  0.00    +0.006 C 
ATOM      9  C   UNL     1     -35.320  23.074   4.386  0.00  0.00    +0.031 C 
ATOM     10  C   UNL     1     -35.461  25.080   5.760  0.00  0.00    +0.038 C 
ATOM     11  C   UNL     1     -35.579  23.696   5.611  0.00  0.00    +0.006 C 
BRANCH   9  14
ATOM     12  N   UNL     1     -35.886  21.033   3.087  0.00  0.00    -0.343 N 
ATOM     13  N   UNL     1     -35.171  20.858   5.305  0.00  0.00    -0.285 NA
ATOM     14  C   UNL     1     -35.455  21.630   4.271  0.00  0.00    +0.117 C 
ATOM     15  H   UNL     1     -35.970  20.054   3.031  0.00  0.00    +0.144 HD
ATOM     16  H   UNL     1     -36.106  21.593   2.307  0.00  0.00    +0.144 HD
ATOM     17  H   UNL     1     -35.262  19.882   5.230  0.00  0.00    +0.188 HD
ENDBRANCH   9  14
ENDBRANCH   1   6
BRANCH   2  21
ATOM     18  O   UNL     1     -35.746  31.816   1.600  0.00  0.00    -0.453 OA
ATOM     19  C   UNL     1     -33.986  33.143   2.095  0.00  0.00    +0.038 C 
ATOM     20  C   UNL     1     -35.193  33.046   1.410  0.00  0.00    +0.145 C 
ATOM     21  C   UNL     1     -34.887  31.179   2.389  0.00  0.00    +0.145 C 
ATOM     22  C   UNL     1     -33.806  31.890   2.737  0.00  0.00    +0.041 C 
ATOM     23  C   UNL     1     -33.265  34.347   2.017  0.00  0.00    +0.006 C 
ATOM     24  C   UNL     1     -33.790  35.398   1.253  0.00  0.00    +0.031 C 
ATOM     25  C   UNL     1     -35.741  34.072   0.642  0.00  0.00    +0.038 C 
ATOM     26  C   UNL     1     -35.007  35.261   0.579  0.00  0.00    +0.006 C 
BRANCH  24  29
ATOM     27  N   UNL     1     -33.688  37.833   0.777  0.00  0.00    -0.343 N 
ATOM     28  N   UNL     1     -31.768  36.681   1.445  0.00  0.00    -0.285 NA
ATOM     29  C   UNL     1     -33.058  36.652   1.163  0.00  0.00    +0.117 C 
ATOM     30  H   UNL     1     -33.173  38.670   0.722  0.00  0.00    +0.144 HD
ATOM     31  H   UNL     1     -34.648  37.831   0.559  0.00  0.00    +0.144 HD
ATOM     32  H   UNL     1     -31.269  37.528   1.385  0.00  0.00    +0.188 HD
ENDBRANCH  24  29
ENDBRANCH   2  21
TORSDOF 4
ENDMDL
MODEL 8
REMARK VINA RESULT:      -6.8      6.961     11.198
REMARK  Name = 5476534
REMARK  4 active torsions:
REMARK  status: ('A' for Active; 'I' for Inactive)
REMARK    1  A    between atoms: C_1  and  C_6
REMARK    2  A    between atoms: C_2  and  C_21
REMARK    3  A    between atoms: C_9  and  C_14
REMARK    4  A    between atoms: C_24  and  C_29
REMARK                            x       y       z     vdW  Elec       q    Type
REMARK                         _______ _______ _______ _____ _____    ______ ____
ROOT
ATOM      1  C   UNL     1     -34.798  29.931   3.114  0.00  0.00    +0.041 C 
ATOM      2  C   UNL     1     -35.166  28.784   2.444  0.00  0.00    +0.041 C 
ENDROOT
BRANCH   1   6
ATOM      3  O   UNL     1     -33.715  32.083   2.840  0.00  0.00    -0.453 OA
ATOM      4  C   UNL     1     -35.178  33.140   1.481  0.00  0.00    +0.038 C 
ATOM      5  C   UNL     1     -33.976  33.243   2.173  0.00  0.00    +0.145 C 
ATOM      6  C   UNL     1     -34.745  31.238   2.579  0.00  0.00    +0.145 C 
ATOM      7  C   UNL     1     -35.668  31.836   1.751  0.00  0.00    +0.041 C 
ATOM      8  C   UNL     1     -35.616  34.244   0.730  0.00  0.00    +0.006 C 
ATOM      9  C   UNL     1     -34.825  35.401   0.709  0.00  0.00    +0.031 C 
ATOM     10  C   UNL     1     -33.167  34.380   2.173  0.00  0.00    +0.038 C 
ATOM     11  C   UNL     1     -33.622  35.464   1.419  0.00  0.00    +0.006 C 
BRANCH   9  14
ATOM     12  N   UNL     1     -36.304  37.368   0.375  0.00  0.00    -0.343 N 
ATOM     13  N   UNL     1     -34.673  36.837  -1.212  0.00  0.00    -0.285 NA
ATOM     14  C   UNL     1     -35.263  36.552  -0.065  0.00  0.00    +0.117 C 
ATOM     15  H   UNL     1     -36.585  38.142  -0.165  0.00  0.00    +0.144 HD
ATOM     16  H   UNL     1     -36.759  37.169   1.225  0.00  0.00    +0.144 HD
ATOM     17  H   UNL     1     -34.968  37.615  -1.737  0.00  0.00    +0.188 HD
ENDBRANCH   9  14
ENDBRANCH   1   6
BRANCH   2  21
ATOM     18  O   UNL     1     -35.036  27.226   4.301  0.00  0.00    -0.453 OA
ATOM     19  C   UNL     1     -35.351  25.256   3.241  0.00  0.00    +0.038 C 
ATOM     20  C   UNL     1     -35.127  25.877   4.466  0.00  0.00    +0.145 C 
ATOM     21  C   UNL     1     -35.201  27.418   2.997  0.00  0.00    +0.145 C 
ATOM     22  C   UNL     1     -35.396  26.301   2.282  0.00  0.00    +0.041 C 
ATOM     23  C   UNL     1     -35.474  23.856   3.211  0.00  0.00    +0.006 C 
ATOM     24  C   UNL     1     -35.367  23.145   4.414  0.00  0.00    +0.031 C 
ATOM     25  C   UNL     1     -35.015  25.198   5.678  0.00  0.00    +0.038 C 
ATOM     26  C   UNL     1     -35.142  23.807   5.625  0.00  0.00    +0.006 C 
BRANCH  24  29
ATOM     27  N   UNL     1     -35.938  21.017   3.269  0.00  0.00    -0.343 N 
ATOM     28  N   UNL     1     -35.188  21.000   5.482  0.00  0.00    -0.285 NA
ATOM     29  C   UNL     1     -35.493  21.696   4.401  0.00  0.00    +0.117 C 
ATOM     30  H   UNL     1     -36.017  20.036   3.282  0.00  0.00    +0.144 HD
ATOM     31  H   UNL     1     -36.174  21.519   2.455  0.00  0.00    +0.144 HD
ATOM     32  H   UNL     1     -35.272  20.019   5.476  0.00  0.00    +0.188 HD
ENDBRANCH  24  29
ENDBRANCH   2  21
TORSDOF 4
ENDMDL
MODEL 9
REMARK VINA RESULT:      -6.8      6.925     14.260
REMARK  Name = 5476534
REMARK  4 active torsions:
REMARK  status: ('A' for Active; 'I' for Inactive)
REMARK    1  A    between atoms: C_1  and  C_6
REMARK    2  A    between atoms: C_2  and  C_21
REMARK    3  A    between atoms: C_9  and  C_14
REMARK    4  A    between atoms: C_24  and  C_29
REMARK                            x       y       z     vdW  Elec       q    Type
REMARK                         _______ _______ _______ _____ _____    ______ ____
ROOT
ATOM      1  C   UNL     1     -35.148  28.773   2.418  0.00  0.00    +0.041 C 
ATOM      2  C   UNL     1     -34.804  29.922   3.095  0.00  0.00    +0.041 C 
ENDROOT
BRANCH   1   6
ATOM      3  O   UNL     1     -34.892  27.200   4.245  0.00  0.00    -0.453 OA
ATOM      4  C   UNL     1     -35.341  25.245   3.206  0.00  0.00    +0.038 C 
ATOM      5  C   UNL     1     -34.999  25.851   4.410  0.00  0.00    +0.145 C 
ATOM      6  C   UNL     1     -35.165  27.460   2.941  0.00  0.00    +0.145 C 
ATOM      7  C   UNL     1     -35.447  26.298   2.260  0.00  0.00    +0.041 C 
ATOM      8  C   UNL     1     -35.498  23.848   3.179  0.00  0.00    +0.006 C 
ATOM      9  C   UNL     1     -35.303  23.126   4.363  0.00  0.00    +0.031 C 
ATOM     10  C   UNL     1     -34.798  25.160   5.605  0.00  0.00    +0.038 C 
ATOM     11  C   UNL     1     -34.959  23.773   5.554  0.00  0.00    +0.006 C 
BRANCH   9  14
ATOM     12  N   UNL     1     -35.884  21.005   3.208  0.00  0.00    -0.343 N 
ATOM     13  N   UNL     1     -35.209  20.982   5.445  0.00  0.00    -0.285 NA
ATOM     14  C   UNL     1     -35.462  21.679   4.353  0.00  0.00    +0.117 C 
ATOM     15  H   UNL     1     -35.986  20.026   3.223  0.00  0.00    +0.144 HD
ATOM     16  H   UNL     1     -36.082  21.509   2.385  0.00  0.00    +0.144 HD
ATOM     17  H   UNL     1     -35.316  20.004   5.440  0.00  0.00    +0.188 HD
ENDBRANCH   9  14
ENDBRANCH   1   6
BRANCH   2  21
ATOM     18  O   UNL     1     -33.721  32.072   2.783  0.00  0.00    -0.453 OA
ATOM     19  C   UNL     1     -35.242  33.145   1.503  0.00  0.00    +0.038 C 
ATOM     20  C   UNL     1     -34.007  33.237   2.137  0.00  0.00    +0.145 C 
ATOM     21  C   UNL     1     -34.767  31.289   2.543  0.00  0.00    +0.145 C 
ATOM     22  C   UNL     1     -35.726  31.842   1.788  0.00  0.00    +0.041 C 
ATOM     23  C   UNL     1     -35.709  34.257   0.780  0.00  0.00    +0.006 C 
ATOM     24  C   UNL     1     -34.913  35.409   0.728  0.00  0.00    +0.031 C 
ATOM     25  C   UNL     1     -33.193  34.368   2.105  0.00  0.00    +0.038 C 
ATOM     26  C   UNL     1     -33.677  35.461   1.380  0.00  0.00    +0.006 C 
BRANCH  24  29
ATOM     27  N   UNL     1     -36.539  37.249   0.353  0.00  0.00    -0.343 N 
ATOM     28  N   UNL     1     -34.704  36.990  -1.070  0.00  0.00    -0.285 NA
ATOM     29  C   UNL     1     -35.380  36.568  -0.017  0.00  0.00    +0.117 C 
ATOM     30  H   UNL     1     -36.837  38.030  -0.164  0.00  0.00    +0.144 HD
ATOM     31  H   UNL     1     -37.058  36.947   1.134  0.00  0.00    +0.144 HD
ATOM     32  H   UNL     1     -35.017  37.774  -1.576  0.00  0.00    +0.188 HD
ENDBRANCH  24  29
ENDBRANCH   2  21
TORSDOF 4
ENDMDL
