MODEL 1
REMARK VINA RESULT:      -7.3      0.000      0.000
REMARK  Name = 21120860
REMARK  5 active torsions:
REMARK  status: ('A' for Active; 'I' for Inactive)
REMARK    1  A    between atoms: C_9  and  O_25
REMARK    2  A    between atoms: C_15  and  O_27
REMARK    3  A    between atoms: C_16  and  O_29
REMARK    4  A    between atoms: C_18  and  O_31
REMARK    5  A    between atoms: O_31  and  C_33
REMARK                            x       y       z     vdW  Elec       q    Type
REMARK                         _______ _______ _______ _____ _____    ______ ____
ROOT
ATOM      1  O   UNL     1     -37.225  20.842   0.516  0.00  0.00    -0.332 OA
ATOM      2  O   UNL     1     -33.339  23.765   0.182  0.00  0.00    -0.450 OA
ATOM      3  O   UNL     1     -35.746  22.651   6.411  0.00  0.00    -0.294 OA
ATOM      4  O   UNL     1     -31.325  23.258  -0.657  0.00  0.00    -0.246 OA
ATOM      5  C   UNL     1     -35.264  22.169   0.219  0.00  0.00    +0.073 C 
ATOM      6  C   UNL     1     -35.251  21.529   1.635  0.00  0.00    +0.062 C 
ATOM      7  C   UNL     1     -35.676  22.492   2.850  0.00  0.00    +0.036 C 
ATOM      8  C   UNL     1     -34.418  21.318  -0.798  0.00  0.00    +0.060 C 
ATOM      9  C   UNL     1     -36.144  20.305   1.312  0.00  0.00    +0.209 C 
ATOM     10  C   UNL     1     -34.782  23.616   0.133  0.00  0.00    +0.171 C 
ATOM     11  C   UNL     1     -34.964  23.878   2.627  0.00  0.00    +0.007 C 
ATOM     12  C   UNL     1     -36.752  22.030  -0.143  0.00  0.00    +0.148 C 
ATOM     13  C   UNL     1     -34.939  19.846  -0.910  0.00  0.00    +0.036 C 
ATOM     14  C   UNL     1     -35.308  24.499   1.263  0.00  0.00    +0.044 C 
ATOM     15  C   UNL     1     -35.403  19.266   0.442  0.00  0.00    +0.161 C 
ATOM     16  C   UNL     1     -35.091  21.932   4.194  0.00  0.00    +0.167 C 
ATOM     17  C   UNL     1     -35.059  24.909   3.785  0.00  0.00    +0.008 C 
ATOM     18  C   UNL     1     -32.923  21.473  -0.506  0.00  0.00    +0.266 C 
ATOM     19  C   UNL     1     -37.211  22.646   2.997  0.00  0.00    +0.003 C 
ATOM     20  C   UNL     1     -34.599  24.290   5.107  0.00  0.00    +0.067 C 
ATOM     21  C   UNL     1     -35.224  22.936   5.334  0.00  0.00    +0.177 C 
ATOM     22  C   UNL     1     -34.036  18.868  -1.663  0.00  0.00    +0.003 C 
ATOM     23  C   UNL     1     -32.467  22.902  -0.371  0.00  0.00    +0.358 C 
ATOM     24  C   UNL     1     -36.394  25.641   3.946  0.00  0.00    +0.000 C 
ENDROOT
BRANCH   9  25
ATOM     25  O   UNL     1     -36.636  19.652   2.469  0.00  0.00    -0.362 OA
ATOM     26  H   UNL     1     -37.482  19.224   2.265  0.00  0.00    +0.213 HD
ENDBRANCH   9  25
BRANCH  15  27
ATOM     27  O   UNL     1     -34.331  18.678   1.172  0.00  0.00    -0.380 OA
ATOM     28  H   UNL     1     -33.887  19.359   1.702  0.00  0.00    +0.211 HD
ENDBRANCH  15  27
BRANCH  16  29
ATOM     29  O   UNL     1     -35.679  20.717   4.619  0.00  0.00    -0.377 OA
ATOM     30  H   UNL     1     -35.549  20.613   5.576  0.00  0.00    +0.211 HD
ENDBRANCH  16  29
BRANCH  18  31
ATOM     31  O   UNL     1     -32.151  20.956  -1.586  0.00  0.00    -0.441 OA
BRANCH  31  33
ATOM     32  O   UNL     1     -29.919  20.440  -1.881  0.00  0.00    -0.250 OA
ATOM     33  C   UNL     1     -30.960  20.381  -1.242  0.00  0.00    +0.318 C 
ATOM     34  C   UNL     1     -31.106  19.651   0.059  0.00  0.00    +0.121 C 
ENDBRANCH  31  33
ENDBRANCH  18  31
TORSDOF 5
ENDMDL
MODEL 2
REMARK VINA RESULT:      -7.1      3.349      6.415
REMARK  Name = 21120860
REMARK  5 active torsions:
REMARK  status: ('A' for Active; 'I' for Inactive)
REMARK    1  A    between atoms: C_9  and  O_25
REMARK    2  A    between atoms: C_15  and  O_27
REMARK    3  A    between atoms: C_16  and  O_29
REMARK    4  A    between atoms: C_18  and  O_31
REMARK    5  A    between atoms: O_31  and  C_33
REMARK                            x       y       z     vdW  Elec       q    Type
REMARK                         _______ _______ _______ _____ _____    ______ ____
ROOT
ATOM      1  O   UNL     1     -36.557  23.228   4.430  0.00  0.00    -0.332 OA
ATOM      2  O   UNL     1     -33.581  25.075   1.039  0.00  0.00    -0.450 OA
ATOM      3  O   UNL     1     -40.220  25.491  -0.226  0.00  0.00    -0.294 OA
ATOM      4  O   UNL     1     -32.094  26.730   1.293  0.00  0.00    -0.246 OA
ATOM      5  C   UNL     1     -34.993  24.187   2.903  0.00  0.00    +0.073 C 
ATOM      6  C   UNL     1     -36.356  24.923   2.785  0.00  0.00    +0.062 C 
ATOM      7  C   UNL     1     -37.275  24.514   1.532  0.00  0.00    +0.036 C 
ATOM      8  C   UNL     1     -34.007  24.961   3.853  0.00  0.00    +0.060 C 
ATOM      9  C   UNL     1     -36.873  24.622   4.214  0.00  0.00    +0.209 C 
ATOM     10  C   UNL     1     -34.261  23.917   1.589  0.00  0.00    +0.171 C 
ATOM     11  C   UNL     1     -36.340  24.422   0.269  0.00  0.00    +0.007 C 
ATOM     12  C   UNL     1     -35.430  22.888   3.601  0.00  0.00    +0.148 C 
ATOM     13  C   UNL     1     -34.600  25.147   5.290  0.00  0.00    +0.036 C 
ATOM     14  C   UNL     1     -35.182  23.432   0.470  0.00  0.00    +0.044 C 
ATOM     15  C   UNL     1     -36.115  25.438   5.285  0.00  0.00    +0.161 C 
ATOM     16  C   UNL     1     -38.286  25.673   1.221  0.00  0.00    +0.167 C 
ATOM     17  C   UNL     1     -37.038  24.241  -1.108  0.00  0.00    +0.008 C 
ATOM     18  C   UNL     1     -33.503  26.236   3.172  0.00  0.00    +0.266 C 
ATOM     19  C   UNL     1     -38.070  23.204   1.761  0.00  0.00    +0.003 C 
ATOM     20  C   UNL     1     -38.107  25.315  -1.324  0.00  0.00    +0.067 C 
ATOM     21  C   UNL     1     -38.995  25.467  -0.114  0.00  0.00    +0.177 C 
ATOM     22  C   UNL     1     -33.845  26.109   6.210  0.00  0.00    +0.003 C 
ATOM     23  C   UNL     1     -32.973  26.020   1.779  0.00  0.00    +0.358 C 
ATOM     24  C   UNL     1     -37.577  22.844  -1.427  0.00  0.00    +0.000 C 
ENDROOT
BRANCH   9  25
ATOM     25  O   UNL     1     -38.261  24.862   4.368  0.00  0.00    -0.362 OA
ATOM     26  H   UNL     1     -38.469  24.971   5.308  0.00  0.00    +0.213 HD
ENDBRANCH   9  25
BRANCH  15  27
ATOM     27  O   UNL     1     -36.396  26.827   5.145  0.00  0.00    -0.380 OA
ATOM     28  H   UNL     1     -37.325  26.995   5.373  0.00  0.00    +0.211 HD
ENDBRANCH  15  27
BRANCH  16  29
ATOM     29  O   UNL     1     -39.280  25.856   2.212  0.00  0.00    -0.377 OA
ATOM     30  H   UNL     1     -40.066  26.261   1.810  0.00  0.00    +0.211 HD
ENDBRANCH  16  29
BRANCH  18  31
ATOM     31  O   UNL     1     -32.400  26.779   3.891  0.00  0.00    -0.441 OA
BRANCH  31  33
ATOM     32  O   UNL     1     -33.412  28.852   3.989  0.00  0.00    -0.250 OA
ATOM     33  C   UNL     1     -32.431  28.129   4.095  0.00  0.00    +0.318 C 
ATOM     34  C   UNL     1     -31.067  28.617   4.480  0.00  0.00    +0.121 C 
ENDBRANCH  31  33
ENDBRANCH  18  31
TORSDOF 5
ENDMDL
MODEL 3
REMARK VINA RESULT:      -6.6      1.655      2.421
REMARK  Name = 21120860
REMARK  5 active torsions:
REMARK  status: ('A' for Active; 'I' for Inactive)
REMARK    1  A    between atoms: C_9  and  O_25
REMARK    2  A    between atoms: C_15  and  O_27
REMARK    3  A    between atoms: C_16  and  O_29
REMARK    4  A    between atoms: C_18  and  O_31
REMARK    5  A    between atoms: O_31  and  C_33
REMARK                            x       y       z     vdW  Elec       q    Type
REMARK                         _______ _______ _______ _____ _____    ______ ____
ROOT
ATOM      1  O   UNL     1     -37.931  22.670   0.696  0.00  0.00    -0.332 OA
ATOM      2  O   UNL     1     -33.100  22.653   0.046  0.00  0.00    -0.450 OA
ATOM      3  O   UNL     1     -35.376  25.675   5.661  0.00  0.00    -0.294 OA
ATOM      4  O   UNL     1     -31.762  20.867  -0.144  0.00  0.00    -0.246 OA
ATOM      5  C   UNL     1     -35.583  22.498   0.307  0.00  0.00    +0.073 C 
ATOM      6  C   UNL     1     -35.852  22.603   1.833  0.00  0.00    +0.062 C 
ATOM      7  C   UNL     1     -35.601  24.045   2.498  0.00  0.00    +0.036 C 
ATOM      8  C   UNL     1     -35.412  20.999  -0.140  0.00  0.00    +0.060 C 
ATOM      9  C   UNL     1     -37.292  22.031   1.825  0.00  0.00    +0.209 C 
ATOM     10  C   UNL     1     -34.381  23.282  -0.218  0.00  0.00    +0.171 C 
ATOM     11  C   UNL     1     -34.250  24.605   1.916  0.00  0.00    +0.007 C 
ATOM     12  C   UNL     1     -36.913  23.029  -0.255  0.00  0.00    +0.148 C 
ATOM     13  C   UNL     1     -36.671  20.135   0.206  0.00  0.00    +0.036 C 
ATOM     14  C   UNL     1     -34.263  24.683   0.381  0.00  0.00    +0.044 C 
ATOM     15  C   UNL     1     -37.305  20.509   1.562  0.00  0.00    +0.161 C 
ATOM     16  C   UNL     1     -35.356  23.877   4.039  0.00  0.00    +0.167 C 
ATOM     17  C   UNL     1     -33.691  25.900   2.567  0.00  0.00    +0.008 C 
ATOM     18  C   UNL     1     -34.072  20.447   0.353  0.00  0.00    +0.266 C 
ATOM     19  C   UNL     1     -36.778  25.029   2.282  0.00  0.00    +0.003 C 
ATOM     20  C   UNL     1     -33.583  25.746   4.086  0.00  0.00    +0.067 C 
ATOM     21  C   UNL     1     -34.844  25.165   4.676  0.00  0.00    +0.177 C 
ATOM     22  C   UNL     1     -36.510  18.621   0.058  0.00  0.00    +0.003 C 
ATOM     23  C   UNL     1     -32.890  21.324   0.031  0.00  0.00    +0.358 C 
ATOM     24  C   UNL     1     -34.379  27.214   2.187  0.00  0.00    +0.000 C 
ENDROOT
BRANCH   9  25
ATOM     25  O   UNL     1     -38.001  22.285   3.025  0.00  0.00    -0.362 OA
ATOM     26  H   UNL     1     -37.389  22.623   3.697  0.00  0.00    +0.213 HD
ENDBRANCH   9  25
BRANCH  15  27
ATOM     27  O   UNL     1     -36.706  19.810   2.648  0.00  0.00    -0.380 OA
ATOM     28  H   UNL     1     -36.034  19.198   2.308  0.00  0.00    +0.211 HD
ENDBRANCH  15  27
BRANCH  16  29
ATOM     29  O   UNL     1     -36.497  23.462   4.765  0.00  0.00    -0.377 OA
ATOM     30  H   UNL     1     -37.298  23.775   4.315  0.00  0.00    +0.211 HD
ENDBRANCH  16  29
BRANCH  18  31
ATOM     31  O   UNL     1     -33.780  19.209  -0.289  0.00  0.00    -0.441 OA
BRANCH  31  33
ATOM     32  O   UNL     1     -32.992  18.339   1.700  0.00  0.00    -0.250 OA
ATOM     33  C   UNL     1     -33.293  18.222   0.520  0.00  0.00    +0.318 C 
ATOM     34  C   UNL     1     -33.176  16.943  -0.254  0.00  0.00    +0.121 C 
ENDBRANCH  31  33
ENDBRANCH  18  31
TORSDOF 5
ENDMDL
MODEL 4
REMARK VINA RESULT:      -6.6      1.557      6.362
REMARK  Name = 21120860
REMARK  5 active torsions:
REMARK  status: ('A' for Active; 'I' for Inactive)
REMARK    1  A    between atoms: C_9  and  O_25
REMARK    2  A    between atoms: C_15  and  O_27
REMARK    3  A    between atoms: C_16  and  O_29
REMARK    4  A    between atoms: C_18  and  O_31
REMARK    5  A    between atoms: O_31  and  C_33
REMARK                            x       y       z     vdW  Elec       q    Type
REMARK                         _______ _______ _______ _____ _____    ______ ____
ROOT
ATOM      1  O   UNL     1     -37.040  22.979  -0.402  0.00  0.00    -0.332 OA
ATOM      2  O   UNL     1     -35.394  20.989   3.732  0.00  0.00    -0.450 OA
ATOM      3  O   UNL     1     -31.162  20.898  -1.552  0.00  0.00    -0.294 OA
ATOM      4  O   UNL     1     -35.140  21.995   5.717  0.00  0.00    -0.246 OA
ATOM      5  C   UNL     1     -36.323  22.133   1.711  0.00  0.00    +0.073 C 
ATOM      6  C   UNL     1     -35.090  22.605   0.892  0.00  0.00    +0.062 C 
ATOM      7  C   UNL     1     -34.231  21.449   0.177  0.00  0.00    +0.036 C 
ATOM      8  C   UNL     1     -36.801  23.246   2.713  0.00  0.00    +0.060 C 
ATOM      9  C   UNL     1     -35.821  23.642   0.004  0.00  0.00    +0.209 C 
ATOM     10  C   UNL     1     -36.147  20.837   2.501  0.00  0.00    +0.171 C 
ATOM     11  C   UNL     1     -34.061  20.276   1.212  0.00  0.00    +0.007 C 
ATOM     12  C   UNL     1     -37.371  21.994   0.594  0.00  0.00    +0.148 C 
ATOM     13  C   UNL     1     -37.169  24.579   1.980  0.00  0.00    +0.036 C 
ATOM     14  C   UNL     1     -35.412  19.747   1.721  0.00  0.00    +0.044 C 
ATOM     15  C   UNL     1     -36.225  24.901   0.803  0.00  0.00    +0.161 C 
ATOM     16  C   UNL     1     -32.779  21.973  -0.105  0.00  0.00    +0.167 C 
ATOM     17  C   UNL     1     -33.089  19.130   0.819  0.00  0.00    +0.008 C 
ATOM     18  C   UNL     1     -35.811  23.378   3.874  0.00  0.00    +0.266 C 
ATOM     19  C   UNL     1     -34.855  20.962  -1.155  0.00  0.00    +0.003 C 
ATOM     20  C   UNL     1     -31.718  19.686   0.428  0.00  0.00    +0.067 C 
ATOM     21  C   UNL     1     -31.841  20.846  -0.528  0.00  0.00    +0.177 C 
ATOM     22  C   UNL     1     -37.391  25.800   2.875  0.00  0.00    +0.003 C 
ATOM     23  C   UNL     1     -35.456  22.070   4.531  0.00  0.00    +0.358 C 
ATOM     24  C   UNL     1     -33.598  18.121  -0.214  0.00  0.00    +0.000 C 
ENDROOT
BRANCH   9  25
ATOM     25  O   UNL     1     -35.062  24.050  -1.120  0.00  0.00    -0.362 OA
ATOM     26  H   UNL     1     -34.208  23.590  -1.119  0.00  0.00    +0.213 HD
ENDBRANCH   9  25
BRANCH  15  27
ATOM     27  O   UNL     1     -35.068  25.619   1.221  0.00  0.00    -0.380 OA
ATOM     28  H   UNL     1     -35.199  25.946   2.125  0.00  0.00    +0.211 HD
ENDBRANCH  15  27
BRANCH  16  29
ATOM     29  O   UNL     1     -32.708  22.984  -1.091  0.00  0.00    -0.377 OA
ATOM     30  H   UNL     1     -31.945  23.557  -0.913  0.00  0.00    +0.211 HD
ENDBRANCH  16  29
BRANCH  18  31
ATOM     31  O   UNL     1     -36.377  24.158   4.923  0.00  0.00    -0.441 OA
BRANCH  31  33
ATOM     32  O   UNL     1     -36.030  26.148   6.043  0.00  0.00    -0.250 OA
ATOM     33  C   UNL     1     -35.645  25.241   5.318  0.00  0.00    +0.318 C 
ATOM     34  C   UNL     1     -34.268  25.165   4.730  0.00  0.00    +0.121 C 
ENDBRANCH  31  33
ENDBRANCH  18  31
TORSDOF 5
ENDMDL
MODEL 5
REMARK VINA RESULT:      -6.4      2.942      4.834
REMARK  Name = 21120860
REMARK  5 active torsions:
REMARK  status: ('A' for Active; 'I' for Inactive)
REMARK    1  A    between atoms: C_9  and  O_25
REMARK    2  A    between atoms: C_15  and  O_27
REMARK    3  A    between atoms: C_16  and  O_29
REMARK    4  A    between atoms: C_18  and  O_31
REMARK    5  A    between atoms: O_31  and  C_33
REMARK                            x       y       z     vdW  Elec       q    Type
REMARK                         _______ _______ _______ _____ _____    ______ ____
ROOT
ATOM      1  O   UNL     1     -37.632  26.245   2.169  0.00  0.00    -0.332 OA
ATOM      2  O   UNL     1     -33.662  24.226   0.187  0.00  0.00    -0.450 OA
ATOM      3  O   UNL     1     -32.619  28.517   5.319  0.00  0.00    -0.294 OA
ATOM      4  O   UNL     1     -33.168  22.045   0.057  0.00  0.00    -0.246 OA
ATOM      5  C   UNL     1     -35.784  25.107   1.177  0.00  0.00    +0.073 C 
ATOM      6  C   UNL     1     -35.438  25.482   2.644  0.00  0.00    +0.062 C 
ATOM      7  C   UNL     1     -34.495  26.768   2.841  0.00  0.00    +0.036 C 
ATOM      8  C   UNL     1     -36.301  23.625   1.074  0.00  0.00    +0.060 C 
ATOM      9  C   UNL     1     -36.889  25.536   3.186  0.00  0.00    +0.209 C 
ATOM     10  C   UNL     1     -34.659  25.281   0.157  0.00  0.00    +0.171 C 
ATOM     11  C   UNL     1     -33.336  26.672   1.780  0.00  0.00    +0.007 C 
ATOM     12  C   UNL     1     -36.962  26.058   0.909  0.00  0.00    +0.148 C 
ATOM     13  C   UNL     1     -37.567  23.381   1.963  0.00  0.00    +0.036 C 
ATOM     14  C   UNL     1     -33.868  26.575   0.341  0.00  0.00    +0.044 C 
ATOM     15  C   UNL     1     -37.509  24.127   3.312  0.00  0.00    +0.161 C 
ATOM     16  C   UNL     1     -33.789  26.691   4.241  0.00  0.00    +0.167 C 
ATOM     17  C   UNL     1     -32.179  27.701   1.913  0.00  0.00    +0.008 C 
ATOM     18  C   UNL     1     -35.145  22.642   1.280  0.00  0.00    +0.266 C 
ATOM     19  C   UNL     1     -35.264  28.110   2.742  0.00  0.00    +0.003 C 
ATOM     20  C   UNL     1     -31.595  27.688   3.327  0.00  0.00    +0.067 C 
ATOM     21  C   UNL     1     -32.679  27.730   4.376  0.00  0.00    +0.177 C 
ATOM     22  C   UNL     1     -37.991  21.922   2.144  0.00  0.00    +0.003 C 
ATOM     23  C   UNL     1     -33.935  22.931   0.432  0.00  0.00    +0.358 C 
ATOM     24  C   UNL     1     -32.469  29.128   1.441  0.00  0.00    +0.000 C 
ENDROOT
BRANCH   9  25
ATOM     25  O   UNL     1     -36.992  26.185   4.441  0.00  0.00    -0.362 OA
ATOM     26  H   UNL     1     -37.077  27.141   4.306  0.00  0.00    +0.213 HD
ENDBRANCH   9  25
BRANCH  15  27
ATOM     27  O   UNL     1     -36.836  23.373   4.316  0.00  0.00    -0.380 OA
ATOM     28  H   UNL     1     -37.489  22.965   4.907  0.00  0.00    +0.211 HD
ENDBRANCH  15  27
BRANCH  16  29
ATOM     29  O   UNL     1     -34.663  26.850   5.341  0.00  0.00    -0.377 OA
ATOM     30  H   UNL     1     -34.295  27.507   5.954  0.00  0.00    +0.211 HD
ENDBRANCH  16  29
BRANCH  18  31
ATOM     31  O   UNL     1     -35.539  21.327   0.898  0.00  0.00    -0.441 OA
BRANCH  31  33
ATOM     32  O   UNL     1     -35.092  20.344   2.940  0.00  0.00    -0.250 OA
ATOM     33  C   UNL     1     -35.113  20.320   1.717  0.00  0.00    +0.318 C 
ATOM     34  C   UNL     1     -34.667  19.150   0.893  0.00  0.00    +0.121 C 
ENDBRANCH  31  33
ENDBRANCH  18  31
TORSDOF 5
ENDMDL
MODEL 6
REMARK VINA RESULT:      -6.2      4.157      7.143
REMARK  Name = 21120860
REMARK  5 active torsions:
REMARK  status: ('A' for Active; 'I' for Inactive)
REMARK    1  A    between atoms: C_9  and  O_25
REMARK    2  A    between atoms: C_15  and  O_27
REMARK    3  A    between atoms: C_16  and  O_29
REMARK    4  A    between atoms: C_18  and  O_31
REMARK    5  A    between atoms: O_31  and  C_33
REMARK                            x       y       z     vdW  Elec       q    Type
REMARK                         _______ _______ _______ _____ _____    ______ ____
ROOT
ATOM      1  O   UNL     1     -33.550  26.410  -0.195  0.00  0.00    -0.332 OA
ATOM      2  O   UNL     1     -33.479  27.393   4.579  0.00  0.00    -0.450 OA
ATOM      3  O   UNL     1     -37.094  31.593   0.689  0.00  0.00    -0.294 OA
ATOM      4  O   UNL     1     -34.178  26.074   6.248  0.00  0.00    -0.246 OA
ATOM      5  C   UNL     1     -33.516  26.715   2.172  0.00  0.00    +0.073 C 
ATOM      6  C   UNL     1     -34.828  27.307   1.589  0.00  0.00    +0.062 C 
ATOM      7  C   UNL     1     -34.868  28.905   1.419  0.00  0.00    +0.036 C 
ATOM      8  C   UNL     1     -33.741  25.256   2.715  0.00  0.00    +0.060 C 
ATOM      9  C   UNL     1     -34.902  26.424   0.318  0.00  0.00    +0.209 C 
ATOM     10  C   UNL     1     -32.847  27.528   3.280  0.00  0.00    +0.171 C 
ATOM     11  C   UNL     1     -34.255  29.536   2.724  0.00  0.00    +0.007 C 
ATOM     12  C   UNL     1     -32.649  26.638   0.904  0.00  0.00    +0.148 C 
ATOM     13  C   UNL     1     -34.274  24.290   1.604  0.00  0.00    +0.036 C 
ATOM     14  C   UNL     1     -32.830  29.030   3.003  0.00  0.00    +0.044 C 
ATOM     15  C   UNL     1     -35.283  24.965   0.652  0.00  0.00    +0.161 C 
ATOM     16  C   UNL     1     -36.360  29.392   1.379  0.00  0.00    +0.167 C 
ATOM     17  C   UNL     1     -34.375  31.077   2.881  0.00  0.00    +0.008 C 
ATOM     18  C   UNL     1     -34.555  25.291   4.011  0.00  0.00    +0.266 C 
ATOM     19  C   UNL     1     -34.146  29.401   0.140  0.00  0.00    +0.003 C 
ATOM     20  C   UNL     1     -35.826  31.531   2.712  0.00  0.00    +0.067 C 
ATOM     21  C   UNL     1     -36.466  30.909   1.495  0.00  0.00    +0.177 C 
ATOM     22  C   UNL     1     -34.776  22.926   2.082  0.00  0.00    +0.003 C 
ATOM     23  C   UNL     1     -34.030  26.256   5.041  0.00  0.00    +0.358 C 
ATOM     24  C   UNL     1     -33.421  31.930   2.041  0.00  0.00    +0.000 C 
ENDROOT
BRANCH   9  25
ATOM     25  O   UNL     1     -35.811  26.915  -0.651  0.00  0.00    -0.362 OA
ATOM     26  H   UNL     1     -36.438  26.215  -0.892  0.00  0.00    +0.213 HD
ENDBRANCH   9  25
BRANCH  15  27
ATOM     27  O   UNL     1     -36.618  24.900   1.147  0.00  0.00    -0.380 OA
ATOM     28  H   UNL     1     -37.161  24.368   0.544  0.00  0.00    +0.211 HD
ENDBRANCH  15  27
BRANCH  16  29
ATOM     29  O   UNL     1     -37.067  28.998   0.219  0.00  0.00    -0.377 OA
ATOM     30  H   UNL     1     -37.248  28.045   0.259  0.00  0.00    +0.211 HD
ENDBRANCH  16  29
BRANCH  18  31
ATOM     31  O   UNL     1     -34.510  24.023   4.659  0.00  0.00    -0.441 OA
BRANCH  31  33
ATOM     32  O   UNL     1     -36.811  23.994   4.858  0.00  0.00    -0.250 OA
ATOM     33  C   UNL     1     -35.702  23.558   5.136  0.00  0.00    +0.318 C 
ATOM     34  C   UNL     1     -35.463  22.408   6.068  0.00  0.00    +0.121 C 
ENDBRANCH  31  33
ENDBRANCH  18  31
TORSDOF 5
ENDMDL
MODEL 7
REMARK VINA RESULT:      -5.8      2.877      6.723
REMARK  Name = 21120860
REMARK  5 active torsions:
REMARK  status: ('A' for Active; 'I' for Inactive)
REMARK    1  A    between atoms: C_9  and  O_25
REMARK    2  A    between atoms: C_15  and  O_27
REMARK    3  A    between atoms: C_16  and  O_29
REMARK    4  A    between atoms: C_18  and  O_31
REMARK    5  A    between atoms: O_31  and  C_33
REMARK                            x       y       z     vdW  Elec       q    Type
REMARK                         _______ _______ _______ _____ _____    ______ ____
ROOT
ATOM      1  O   UNL     1     -36.980  26.400   0.831  0.00  0.00    -0.332 OA
ATOM      2  O   UNL     1     -34.971  24.585   4.885  0.00  0.00    -0.450 OA
ATOM      3  O   UNL     1     -34.177  20.941  -0.766  0.00  0.00    -0.294 OA
ATOM      4  O   UNL     1     -33.406  25.541   6.171  0.00  0.00    -0.246 OA
ATOM      5  C   UNL     1     -35.958  25.680   2.864  0.00  0.00    +0.073 C 
ATOM      6  C   UNL     1     -35.159  25.124   1.653  0.00  0.00    +0.062 C 
ATOM      7  C   UNL     1     -35.422  23.583   1.280  0.00  0.00    +0.036 C 
ATOM      8  C   UNL     1     -35.309  27.002   3.416  0.00  0.00    +0.060 C 
ATOM      9  C   UNL     1     -35.560  26.214   0.628  0.00  0.00    +0.209 C 
ATOM     10  C   UNL     1     -36.143  24.723   4.041  0.00  0.00    +0.171 C 
ATOM     11  C   UNL     1     -35.442  22.767   2.626  0.00  0.00    +0.007 C 
ATOM     12  C   UNL     1     -37.293  26.033   2.187  0.00  0.00    +0.148 C 
ATOM     13  C   UNL     1     -35.223  28.117   2.320  0.00  0.00    +0.036 C 
ATOM     14  C   UNL     1     -36.492  23.298   3.615  0.00  0.00    +0.044 C 
ATOM     15  C   UNL     1     -34.871  27.565   0.924  0.00  0.00    +0.161 C 
ATOM     16  C   UNL     1     -34.200  23.023   0.469  0.00  0.00    +0.167 C 
ATOM     17  C   UNL     1     -35.475  21.218   2.505  0.00  0.00    +0.008 C 
ATOM     18  C   UNL     1     -34.001  26.688   4.148  0.00  0.00    +0.266 C 
ATOM     19  C   UNL     1     -36.713  23.368   0.451  0.00  0.00    +0.003 C 
ATOM     20  C   UNL     1     -34.345  20.715   1.605  0.00  0.00    +0.067 C 
ATOM     21  C   UNL     1     -34.261  21.506   0.323  0.00  0.00    +0.177 C 
ATOM     22  C   UNL     1     -34.376  29.342   2.672  0.00  0.00    +0.003 C 
ATOM     23  C   UNL     1     -34.118  25.587   5.169  0.00  0.00    +0.358 C 
ATOM     24  C   UNL     1     -36.817  20.587   2.122  0.00  0.00    +0.000 C 
ENDROOT
BRANCH   9  25
ATOM     25  O   UNL     1     -35.279  25.851  -0.712  0.00  0.00    -0.362 OA
ATOM     26  H   UNL     1     -36.109  25.678  -1.183  0.00  0.00    +0.213 HD
ENDBRANCH   9  25
BRANCH  15  27
ATOM     27  O   UNL     1     -33.465  27.461   0.724  0.00  0.00    -0.380 OA
ATOM     28  H   UNL     1     -33.003  27.703   1.542  0.00  0.00    +0.211 HD
ENDBRANCH  15  27
BRANCH  16  29
ATOM     29  O   UNL     1     -34.062  23.575  -0.826  0.00  0.00    -0.377 OA
ATOM     30  H   UNL     1     -33.488  24.357  -0.785  0.00  0.00    +0.211 HD
ENDBRANCH  16  29
BRANCH  18  31
ATOM     31  O   UNL     1     -33.568  27.820   4.896  0.00  0.00    -0.441 OA
BRANCH  31  33
ATOM     32  O   UNL     1     -31.429  27.641   4.045  0.00  0.00    -0.250 OA
ATOM     33  C   UNL     1     -32.226  28.072   4.866  0.00  0.00    +0.318 C 
ATOM     34  C   UNL     1     -31.853  28.972   6.005  0.00  0.00    +0.121 C 
ENDBRANCH  31  33
ENDBRANCH  18  31
TORSDOF 5
ENDMDL
MODEL 8
REMARK VINA RESULT:      -5.8      1.670      1.960
REMARK  Name = 21120860
REMARK  5 active torsions:
REMARK  status: ('A' for Active; 'I' for Inactive)
REMARK    1  A    between atoms: C_9  and  O_25
REMARK    2  A    between atoms: C_15  and  O_27
REMARK    3  A    between atoms: C_16  and  O_29
REMARK    4  A    between atoms: C_18  and  O_31
REMARK    5  A    between atoms: O_31  and  C_33
REMARK                            x       y       z     vdW  Elec       q    Type
REMARK                         _______ _______ _______ _____ _____    ______ ____
ROOT
ATOM      1  O   UNL     1     -37.598  21.747  -0.690  0.00  0.00    -0.332 OA
ATOM      2  O   UNL     1     -32.777  22.286  -0.213  0.00  0.00    -0.450 OA
ATOM      3  O   UNL     1     -36.575  24.392   4.982  0.00  0.00    -0.294 OA
ATOM      4  O   UNL     1     -31.220  20.677  -0.252  0.00  0.00    -0.246 OA
ATOM      5  C   UNL     1     -35.219  21.856  -0.544  0.00  0.00    +0.073 C 
ATOM      6  C   UNL     1     -35.825  21.756   0.883  0.00  0.00    +0.062 C 
ATOM      7  C   UNL     1     -35.903  23.128   1.716  0.00  0.00    +0.036 C 
ATOM      8  C   UNL     1     -34.772  20.444  -1.074  0.00  0.00    +0.060 C 
ATOM      9  C   UNL     1     -37.147  21.048   0.492  0.00  0.00    +0.209 C 
ATOM     10  C   UNL     1     -34.037  22.812  -0.705  0.00  0.00    +0.171 C 
ATOM     11  C   UNL     1     -34.538  23.884   1.513  0.00  0.00    +0.007 C 
ATOM     12  C   UNL     1     -36.449  22.315  -1.345  0.00  0.00    +0.148 C 
ATOM     13  C   UNL     1     -35.960  19.425  -1.107  0.00  0.00    +0.036 C 
ATOM     14  C   UNL     1     -34.225  24.138   0.030  0.00  0.00    +0.044 C 
ATOM     15  C   UNL     1     -36.915  19.573   0.095  0.00  0.00    +0.161 C 
ATOM     16  C   UNL     1     -35.981  22.807   3.250  0.00  0.00    +0.167 C 
ATOM     17  C   UNL     1     -34.297  25.143   2.391  0.00  0.00    +0.008 C 
ATOM     18  C   UNL     1     -33.513  19.974  -0.339  0.00  0.00    +0.266 C 
ATOM     19  C   UNL     1     -37.118  24.009   1.326  0.00  0.00    +0.003 C 
ATOM     20  C   UNL     1     -34.505  24.825   3.873  0.00  0.00    +0.067 C 
ATOM     21  C   UNL     1     -35.783  24.056   4.103  0.00  0.00    +0.177 C 
ATOM     22  C   UNL     1     -35.584  17.962  -1.351  0.00  0.00    +0.003 C 
ATOM     23  C   UNL     1     -32.407  20.996  -0.301  0.00  0.00    +0.358 C 
ATOM     24  C   UNL     1     -35.043  26.417   1.984  0.00  0.00    +0.000 C 
ENDROOT
BRANCH   9  25
ATOM     25  O   UNL     1     -38.125  21.089   1.516  0.00  0.00    -0.362 OA
ATOM     26  H   UNL     1     -37.927  20.411   2.181  0.00  0.00    +0.213 HD
ENDBRANCH   9  25
BRANCH  15  27
ATOM     27  O   UNL     1     -36.485  18.816   1.222  0.00  0.00    -0.380 OA
ATOM     28  H   UNL     1     -36.145  19.416   1.905  0.00  0.00    +0.211 HD
ENDBRANCH  15  27
BRANCH  16  29
ATOM     29  O   UNL     1     -37.193  22.198   3.654  0.00  0.00    -0.377 OA
ATOM     30  H   UNL     1     -37.121  21.236   3.549  0.00  0.00    +0.211 HD
ENDBRANCH  16  29
BRANCH  18  31
ATOM     31  O   UNL     1     -32.938  18.855  -1.008  0.00  0.00    -0.441 OA
BRANCH  31  33
ATOM     32  O   UNL     1     -31.504  17.113  -0.518  0.00  0.00    -0.250 OA
ATOM     33  C   UNL     1     -32.379  17.906  -0.200  0.00  0.00    +0.318 C 
ATOM     34  C   UNL     1     -32.996  17.972   1.164  0.00  0.00    +0.121 C 
ENDBRANCH  31  33
ENDBRANCH  18  31
TORSDOF 5
ENDMDL
MODEL 9
REMARK VINA RESULT:      -5.7      2.980      6.048
REMARK  Name = 21120860
REMARK  5 active torsions:
REMARK  status: ('A' for Active; 'I' for Inactive)
REMARK    1  A    between atoms: C_9  and  O_25
REMARK    2  A    between atoms: C_15  and  O_27
REMARK    3  A    between atoms: C_16  and  O_29
REMARK    4  A    between atoms: C_18  and  O_31
REMARK    5  A    between atoms: O_31  and  C_33
REMARK                            x       y       z     vdW  Elec       q    Type
REMARK                         _______ _______ _______ _____ _____    ______ ____
ROOT
ATOM      1  O   UNL     1     -35.106  23.762  -0.651  0.00  0.00    -0.332 OA
ATOM      2  O   UNL     1     -38.267  21.572   2.344  0.00  0.00    -0.450 OA
ATOM      3  O   UNL     1     -35.260  27.163   4.699  0.00  0.00    -0.294 OA
ATOM      4  O   UNL     1     -40.445  21.195   1.981  0.00  0.00    -0.246 OA
ATOM      5  C   UNL     1     -36.753  22.651   0.671  0.00  0.00    +0.073 C 
ATOM      6  C   UNL     1     -36.693  24.152   1.066  0.00  0.00    +0.062 C 
ATOM      7  C   UNL     1     -35.892  24.497   2.416  0.00  0.00    +0.036 C 
ATOM      8  C   UNL     1     -37.906  22.379  -0.363  0.00  0.00    +0.060 C 
ATOM      9  C   UNL     1     -36.147  24.693  -0.279  0.00  0.00    +0.209 C 
ATOM     10  C   UNL     1     -36.915  21.660   1.824  0.00  0.00    +0.171 C 
ATOM     11  C   UNL     1     -36.311  23.435   3.499  0.00  0.00    +0.007 C 
ATOM     12  C   UNL     1     -35.401  22.490  -0.046  0.00  0.00    +0.148 C 
ATOM     13  C   UNL     1     -37.740  23.231  -1.666  0.00  0.00    +0.036 C 
ATOM     14  C   UNL     1     -36.047  21.993   3.036  0.00  0.00    +0.044 C 
ATOM     15  C   UNL     1     -37.218  24.656  -1.392  0.00  0.00    +0.161 C 
ATOM     16  C   UNL     1     -36.379  25.880   2.975  0.00  0.00    +0.167 C 
ATOM     17  C   UNL     1     -35.822  23.686   4.952  0.00  0.00    +0.008 C 
ATOM     18  C   UNL     1     -39.271  22.474   0.324  0.00  0.00    +0.266 C 
ATOM     19  C   UNL     1     -34.356  24.549   2.217  0.00  0.00    +0.003 C 
ATOM     20  C   UNL     1     -36.204  25.092   5.422  0.00  0.00    +0.067 C 
ATOM     21  C   UNL     1     -35.862  26.136   4.388  0.00  0.00    +0.177 C 
ATOM     22  C   UNL     1     -38.937  23.243  -2.619  0.00  0.00    +0.003 C 
ATOM     23  C   UNL     1     -39.378  21.667   1.591  0.00  0.00    +0.358 C 
ATOM     24  C   UNL     1     -34.351  23.380   5.245  0.00  0.00    +0.000 C 
ENDROOT
BRANCH   9  25
ATOM     25  O   UNL     1     -35.643  26.014  -0.186  0.00  0.00    -0.362 OA
ATOM     26  H   UNL     1     -34.808  26.077  -0.675  0.00  0.00    +0.213 HD
ENDBRANCH   9  25
BRANCH  15  27
ATOM     27  O   UNL     1     -38.272  25.569  -1.101  0.00  0.00    -0.380 OA
ATOM     28  H   UNL     1     -39.032  25.083  -0.744  0.00  0.00    +0.211 HD
ENDBRANCH  15  27
BRANCH  16  29
ATOM     29  O   UNL     1     -36.013  26.989   2.177  0.00  0.00    -0.377 OA
ATOM     30  H   UNL     1     -36.668  27.697   2.288  0.00  0.00    +0.211 HD
ENDBRANCH  16  29
BRANCH  18  31
ATOM     31  O   UNL     1     -40.288  21.944  -0.520  0.00  0.00    -0.441 OA
BRANCH  31  33
ATOM     32  O   UNL     1     -42.594  22.041  -0.613  0.00  0.00    -0.250 OA
ATOM     33  C   UNL     1     -41.502  22.566  -0.448  0.00  0.00    +0.318 C 
ATOM     34  C   UNL     1     -41.310  24.018  -0.127  0.00  0.00    +0.121 C 
ENDBRANCH  31  33
ENDBRANCH  18  31
TORSDOF 5
ENDMDL
