MODEL 1
REMARK VINA RESULT:      -6.3      0.000      0.000
REMARK  Name = 196015
REMARK  4 active torsions:
REMARK  status: ('A' for Active; 'I' for Inactive)
REMARK    1  A    between atoms: C_1  and  N_7
REMARK    2  A    between atoms: C_2  and  C_26
REMARK    3  A    between atoms: C_4  and  N_16
REMARK    4  A    between atoms: C_17  and  C_23
REMARK                            x       y       z     vdW  Elec       q    Type
REMARK                         _______ _______ _______ _____ _____    ______ ____
ROOT
ATOM      1  C   UNL     1     -35.385  21.777   3.460  0.00  0.00    +0.059 C 
ATOM      2  C   UNL     1     -35.306  23.171   3.246  0.00  0.00    +0.095 C 
ATOM      3  C   UNL     1     -35.297  21.311   4.788  0.00  0.00    +0.015 C 
ATOM      4  C   UNL     1     -35.147  24.056   4.313  0.00  0.00    +0.062 C 
ATOM      5  C   UNL     1     -35.137  22.196   5.855  0.00  0.00    +0.003 C 
ATOM      6  C   UNL     1     -35.063  23.568   5.617  0.00  0.00    +0.015 C 
ENDROOT
BRANCH   1   7
ATOM      7  N   UNL     1     -35.544  20.865   2.412  0.00  0.00    -0.311 N 
ATOM      8  N   UNL     1     -35.872  18.814   0.451  0.00  0.00    +0.388 N 
ATOM      9  C   UNL     1     -36.888  20.413   2.038  0.00  0.00    +0.068 C 
ATOM     10  C   UNL     1     -34.460  19.907   2.160  0.00  0.00    +0.068 C 
ATOM     11  C   UNL     1     -36.892  19.856   0.612  0.00  0.00    -0.056 C 
ATOM     12  C   UNL     1     -34.542  19.367   0.729  0.00  0.00    -0.056 C 
ATOM     13  C   UNL     1     -35.922  18.252  -0.899  0.00  0.00    -0.101 C 
ATOM     14  H   UNL     1     -36.062  18.062   1.115  0.00  0.00    -0.080 HD
ENDBRANCH   1   7
BRANCH   4  16
ATOM     15  O   UNL     1     -32.790  25.769   3.709  0.00  0.00    -0.258 OA
ATOM     16  N   UNL     1     -35.069  25.438   4.110  0.00  0.00    -0.272 N 
ATOM     17  C   UNL     1     -33.931  26.210   3.826  0.00  0.00    +0.316 C 
ATOM     18  H   UNL     1     -35.918  25.931   4.175  0.00  0.00    +0.156 HD
BRANCH  17  23
ATOM     19  N   UNL     1     -35.256  28.049   2.970  0.00  0.00    -0.105 NA
ATOM     20  N   UNL     1     -33.366  28.590   4.094  0.00  0.00    -0.082 NA
ATOM     21  N   UNL     1     -35.033  29.368   3.062  0.00  0.00    -0.140 N 
ATOM     22  N   UNL     1     -33.924  29.734   3.721  0.00  0.00    -0.022 NA
ATOM     23  C   UNL     1     -34.192  27.645   3.625  0.00  0.00    +0.128 C 
ATOM     24  H   UNL     1     -35.647  30.029   2.670  0.00  0.00    +0.197 HD
ENDBRANCH  17  23
ENDBRANCH   4  16
BRANCH   2  26
ATOM     25  N   UNL     1     -35.464  24.075   0.823  0.00  0.00    -0.191 NA
ATOM     26  C   UNL     1     -35.393  23.672   1.903  0.00  0.00    +0.103 C 
ENDBRANCH   2  26
TORSDOF 4
ENDMDL
MODEL 2
REMARK VINA RESULT:      -6.2      1.085      1.220
REMARK  Name = 196015
REMARK  4 active torsions:
REMARK  status: ('A' for Active; 'I' for Inactive)
REMARK    1  A    between atoms: C_1  and  N_7
REMARK    2  A    between atoms: C_2  and  C_26
REMARK    3  A    between atoms: C_4  and  N_16
REMARK    4  A    between atoms: C_17  and  C_23
REMARK                            x       y       z     vdW  Elec       q    Type
REMARK                         _______ _______ _______ _____ _____    ______ ____
ROOT
ATOM      1  C   UNL     1     -35.968  22.385   3.535  0.00  0.00    +0.059 C 
ATOM      2  C   UNL     1     -35.716  23.768   3.397  0.00  0.00    +0.095 C 
ATOM      3  C   UNL     1     -35.606  21.769   4.750  0.00  0.00    +0.015 C 
ATOM      4  C   UNL     1     -35.128  24.499   4.430  0.00  0.00    +0.062 C 
ATOM      5  C   UNL     1     -35.018  22.500   5.783  0.00  0.00    +0.003 C 
ATOM      6  C   UNL     1     -34.780  23.865   5.622  0.00  0.00    +0.015 C 
ENDROOT
BRANCH   1   7
ATOM      7  N   UNL     1     -36.555  21.625   2.517  0.00  0.00    -0.311 N 
ATOM      8  N   UNL     1     -37.812  19.895   0.623  0.00  0.00    +0.388 N 
ATOM      9  C   UNL     1     -37.999  21.722   2.278  0.00  0.00    +0.068 C 
ATOM     10  C   UNL     1     -35.941  20.335   2.178  0.00  0.00    +0.068 C 
ATOM     11  C   UNL     1     -38.344  21.241   0.866  0.00  0.00    -0.056 C 
ATOM     12  C   UNL     1     -36.351  19.900   0.768  0.00  0.00    -0.056 C 
ATOM     13  C   UNL     1     -38.193  19.425  -0.708  0.00  0.00    -0.101 C 
ATOM     14  H   UNL     1     -38.209  19.255   1.312  0.00  0.00    -0.080 HD
ENDBRANCH   1   7
BRANCH   4  16
ATOM     15  O   UNL     1     -32.672  25.913   3.524  0.00  0.00    -0.258 OA
ATOM     16  N   UNL     1     -34.874  25.869   4.302  0.00  0.00    -0.272 N 
ATOM     17  C   UNL     1     -33.696  26.497   3.869  0.00  0.00    +0.316 C 
ATOM     18  H   UNL     1     -35.616  26.468   4.547  0.00  0.00    +0.156 HD
BRANCH  17  23
ATOM     19  N   UNL     1     -34.743  28.566   3.170  0.00  0.00    -0.105 NA
ATOM     20  N   UNL     1     -32.843  28.746   4.389  0.00  0.00    -0.082 NA
ATOM     21  N   UNL     1     -34.358  29.830   3.400  0.00  0.00    -0.140 N 
ATOM     22  N   UNL     1     -33.238  29.983   4.118  0.00  0.00    -0.022 NA
ATOM     23  C   UNL     1     -33.764  27.966   3.807  0.00  0.00    +0.128 C 
ATOM     24  H   UNL     1     -34.869  30.600   3.061  0.00  0.00    +0.197 HD
ENDBRANCH  17  23
ENDBRANCH   4  16
BRANCH   2  26
ATOM     25  N   UNL     1     -36.364  24.944   1.181  0.00  0.00    -0.191 NA
ATOM     26  C   UNL     1     -36.075  24.419   2.169  0.00  0.00    +0.103 C 
ENDBRANCH   2  26
TORSDOF 4
ENDMDL
MODEL 3
REMARK VINA RESULT:      -5.8      3.846      8.338
REMARK  Name = 196015
REMARK  4 active torsions:
REMARK  status: ('A' for Active; 'I' for Inactive)
REMARK    1  A    between atoms: C_1  and  N_7
REMARK    2  A    between atoms: C_2  and  C_26
REMARK    3  A    between atoms: C_4  and  N_16
REMARK    4  A    between atoms: C_17  and  C_23
REMARK                            x       y       z     vdW  Elec       q    Type
REMARK                         _______ _______ _______ _____ _____    ______ ____
ROOT
ATOM      1  C   UNL     1     -32.112  28.902   4.742  0.00  0.00    +0.059 C 
ATOM      2  C   UNL     1     -32.884  27.747   4.493  0.00  0.00    +0.095 C 
ATOM      3  C   UNL     1     -31.694  29.141   6.067  0.00  0.00    +0.015 C 
ATOM      4  C   UNL     1     -33.222  26.871   5.524  0.00  0.00    +0.062 C 
ATOM      5  C   UNL     1     -32.033  28.265   7.099  0.00  0.00    +0.003 C 
ATOM      6  C   UNL     1     -32.796  27.130   6.827  0.00  0.00    +0.015 C 
ENDROOT
BRANCH   1   7
ATOM      7  N   UNL     1     -31.757  29.800   3.729  0.00  0.00    -0.311 N 
ATOM      8  N   UNL     1     -30.958  31.797   1.849  0.00  0.00    +0.388 N 
ATOM      9  C   UNL     1     -30.370  29.852   3.256  0.00  0.00    +0.068 C 
ATOM     10  C   UNL     1     -32.510  31.057   3.625  0.00  0.00    +0.068 C 
ATOM     11  C   UNL     1     -30.298  30.487   1.865  0.00  0.00    -0.056 C 
ATOM     12  C   UNL     1     -32.370  31.651   2.221  0.00  0.00    -0.056 C 
ATOM     13  C   UNL     1     -30.836  32.417   0.530  0.00  0.00    -0.101 C 
ATOM     14  H   UNL     1     -30.499  32.405   2.529  0.00  0.00    -0.080 HD
ENDBRANCH   1   7
BRANCH   4  16
ATOM     15  O   UNL     1     -36.156  26.442   5.777  0.00  0.00    -0.258 OA
ATOM     16  N   UNL     1     -33.987  25.723   5.287  0.00  0.00    -0.272 N 
ATOM     17  C   UNL     1     -35.375  25.563   5.420  0.00  0.00    +0.316 C 
ATOM     18  H   UNL     1     -33.488  24.928   4.990  0.00  0.00    +0.156 HD
BRANCH  17  23
ATOM     19  N   UNL     1     -35.562  23.171   5.754  0.00  0.00    -0.105 NA
ATOM     20  N   UNL     1     -36.683  24.045   3.991  0.00  0.00    -0.082 NA
ATOM     21  N   UNL     1     -36.243  22.266   5.036  0.00  0.00    -0.140 N 
ATOM     22  N   UNL     1     -36.921  22.740   3.982  0.00  0.00    -0.022 NA
ATOM     23  C   UNL     1     -35.882  24.231   5.049  0.00  0.00    +0.128 C 
ATOM     24  H   UNL     1     -36.244  21.310   5.269  0.00  0.00    +0.197 HD
ENDBRANCH  17  23
ENDBRANCH   4  16
BRANCH   2  26
ATOM     25  N   UNL     1     -33.674  27.268   2.072  0.00  0.00    -0.191 NA
ATOM     26  C   UNL     1     -33.322  27.481   3.151  0.00  0.00    +0.103 C 
ENDBRANCH   2  26
TORSDOF 4
ENDMDL
MODEL 4
REMARK VINA RESULT:      -5.8      1.773      7.390
REMARK  Name = 196015
REMARK  4 active torsions:
REMARK  status: ('A' for Active; 'I' for Inactive)
REMARK    1  A    between atoms: C_1  and  N_7
REMARK    2  A    between atoms: C_2  and  C_26
REMARK    3  A    between atoms: C_4  and  N_16
REMARK    4  A    between atoms: C_17  and  C_23
REMARK                            x       y       z     vdW  Elec       q    Type
REMARK                         _______ _______ _______ _____ _____    ______ ____
ROOT
ATOM      1  C   UNL     1     -35.119  24.231   4.268  0.00  0.00    +0.059 C 
ATOM      2  C   UNL     1     -35.142  23.198   3.306  0.00  0.00    +0.095 C 
ATOM      3  C   UNL     1     -35.248  23.869   5.625  0.00  0.00    +0.015 C 
ATOM      4  C   UNL     1     -35.288  21.863   3.686  0.00  0.00    +0.062 C 
ATOM      5  C   UNL     1     -35.394  22.534   6.005  0.00  0.00    +0.003 C 
ATOM      6  C   UNL     1     -35.413  21.532   5.035  0.00  0.00    +0.015 C 
ENDROOT
BRANCH   1   7
ATOM      7  N   UNL     1     -34.975  25.578   3.919  0.00  0.00    -0.311 N 
ATOM      8  N   UNL     1     -34.843  28.384   3.402  0.00  0.00    +0.388 N 
ATOM      9  C   UNL     1     -33.988  26.408   4.617  0.00  0.00    +0.068 C 
ATOM     10  C   UNL     1     -36.154  26.289   3.407  0.00  0.00    +0.068 C 
ATOM     11  C   UNL     1     -33.635  27.642   3.781  0.00  0.00    -0.056 C 
ATOM     12  C   UNL     1     -35.730  27.525   2.610  0.00  0.00    -0.056 C 
ATOM     13  C   UNL     1     -34.490  29.589   2.651  0.00  0.00    -0.101 C 
ATOM     14  H   UNL     1     -35.333  28.671   4.250  0.00  0.00    -0.080 HD
ENDBRANCH   1   7
BRANCH   4  16
ATOM     15  O   UNL     1     -37.488  20.958   1.899  0.00  0.00    -0.258 OA
ATOM     16  N   UNL     1     -35.312  20.833   2.740  0.00  0.00    -0.272 N 
ATOM     17  C   UNL     1     -36.376  20.437   1.915  0.00  0.00    +0.316 C 
ATOM     18  H   UNL     1     -34.477  20.320   2.641  0.00  0.00    +0.156 HD
BRANCH  17  23
ATOM     19  N   UNL     1     -34.829  18.918   0.833  0.00  0.00    -0.105 NA
ATOM     20  N   UNL     1     -37.015  18.718   0.274  0.00  0.00    -0.082 NA
ATOM     21  N   UNL     1     -35.078  17.956  -0.068  0.00  0.00    -0.140 N 
ATOM     22  N   UNL     1     -36.359  17.803  -0.428  0.00  0.00    -0.022 NA
ATOM     23  C   UNL     1     -36.064  19.335   0.989  0.00  0.00    +0.128 C 
ATOM     24  H   UNL     1     -34.361  17.396  -0.443  0.00  0.00    +0.197 HD
ENDBRANCH  17  23
ENDBRANCH   4  16
BRANCH   2  26
ATOM     25  N   UNL     1     -34.908  23.816   0.801  0.00  0.00    -0.191 NA
ATOM     26  C   UNL     1     -35.013  23.540   1.918  0.00  0.00    +0.103 C 
ENDBRANCH   2  26
TORSDOF 4
ENDMDL
MODEL 5
REMARK VINA RESULT:      -5.7      2.562      3.181
REMARK  Name = 196015
REMARK  4 active torsions:
REMARK  status: ('A' for Active; 'I' for Inactive)
REMARK    1  A    between atoms: C_1  and  N_7
REMARK    2  A    between atoms: C_2  and  C_26
REMARK    3  A    between atoms: C_4  and  N_16
REMARK    4  A    between atoms: C_17  and  C_23
REMARK                            x       y       z     vdW  Elec       q    Type
REMARK                         _______ _______ _______ _____ _____    ______ ____
ROOT
ATOM      1  C   UNL     1     -36.690  23.838   3.608  0.00  0.00    +0.059 C 
ATOM      2  C   UNL     1     -36.121  25.126   3.715  0.00  0.00    +0.095 C 
ATOM      3  C   UNL     1     -36.245  22.847   4.507  0.00  0.00    +0.015 C 
ATOM      4  C   UNL     1     -35.151  25.408   4.677  0.00  0.00    +0.062 C 
ATOM      5  C   UNL     1     -35.275  23.129   5.469  0.00  0.00    +0.003 C 
ATOM      6  C   UNL     1     -34.729  24.409   5.554  0.00  0.00    +0.015 C 
ENDROOT
BRANCH   1   7
ATOM      7  N   UNL     1     -37.664  23.524   2.654  0.00  0.00    -0.311 N 
ATOM      8  N   UNL     1     -39.716  22.681   0.855  0.00  0.00    +0.388 N 
ATOM      9  C   UNL     1     -39.043  23.986   2.843  0.00  0.00    +0.068 C 
ATOM     10  C   UNL     1     -37.511  22.275   1.897  0.00  0.00    +0.068 C 
ATOM     11  C   UNL     1     -39.796  23.991   1.510  0.00  0.00    -0.056 C 
ATOM     12  C   UNL     1     -38.313  22.337   0.594  0.00  0.00    -0.056 C 
ATOM     13  C   UNL     1     -40.484  22.681  -0.390  0.00  0.00    -0.101 C 
ATOM     14  H   UNL     1     -40.118  21.977   1.476  0.00  0.00    -0.080 HD
ENDBRANCH   1   7
BRANCH   4  16
ATOM     15  O   UNL     1     -32.552  26.438   3.659  0.00  0.00    -0.258 OA
ATOM     16  N   UNL     1     -34.582  26.681   4.790  0.00  0.00    -0.272 N 
ATOM     17  C   UNL     1     -33.347  27.127   4.292  0.00  0.00    +0.316 C 
ATOM     18  H   UNL     1     -35.115  27.349   5.280  0.00  0.00    +0.156 HD
BRANCH  17  23
ATOM     19  N   UNL     1     -33.469  29.477   3.715  0.00  0.00    -0.105 NA
ATOM     20  N   UNL     1     -32.362  28.950   5.619  0.00  0.00    -0.082 NA
ATOM     21  N   UNL     1     -32.968  30.536   4.367  0.00  0.00    -0.140 N 
ATOM     22  N   UNL     1     -32.305  30.271   5.500  0.00  0.00    -0.022 NA
ATOM     23  C   UNL     1     -33.055  28.548   4.545  0.00  0.00    +0.128 C 
ATOM     24  H   UNL     1     -33.081  31.455   4.032  0.00  0.00    +0.197 HD
ENDBRANCH  17  23
ENDBRANCH   4  16
BRANCH   2  26
ATOM     25  N   UNL     1     -36.908  26.980   2.083  0.00  0.00    -0.191 NA
ATOM     26  C   UNL     1     -36.557  26.153   2.811  0.00  0.00    +0.103 C 
ENDBRANCH   2  26
TORSDOF 4
ENDMDL
MODEL 6
REMARK VINA RESULT:      -5.6      2.981      7.982
REMARK  Name = 196015
REMARK  4 active torsions:
REMARK  status: ('A' for Active; 'I' for Inactive)
REMARK    1  A    between atoms: C_1  and  N_7
REMARK    2  A    between atoms: C_2  and  C_26
REMARK    3  A    between atoms: C_4  and  N_16
REMARK    4  A    between atoms: C_17  and  C_23
REMARK                            x       y       z     vdW  Elec       q    Type
REMARK                         _______ _______ _______ _____ _____    ______ ____
ROOT
ATOM      1  C   UNL     1     -35.733  28.042   1.943  0.00  0.00    +0.059 C 
ATOM      2  C   UNL     1     -35.577  26.971   2.850  0.00  0.00    +0.095 C 
ATOM      3  C   UNL     1     -36.737  27.928   0.959  0.00  0.00    +0.015 C 
ATOM      4  C   UNL     1     -36.388  25.839   2.774  0.00  0.00    +0.062 C 
ATOM      5  C   UNL     1     -37.548  26.796   0.883  0.00  0.00    +0.003 C 
ATOM      6  C   UNL     1     -37.374  25.752   1.791  0.00  0.00    +0.015 C 
ENDROOT
BRANCH   1   7
ATOM      7  N   UNL     1     -34.934  29.190   1.993  0.00  0.00    -0.311 N 
ATOM      8  N   UNL     1     -33.403  31.598   1.862  0.00  0.00    +0.388 N 
ATOM      9  C   UNL     1     -35.503  30.450   2.483  0.00  0.00    +0.068 C 
ATOM     10  C   UNL     1     -33.853  29.321   1.009  0.00  0.00    +0.068 C 
ATOM     11  C   UNL     1     -34.392  31.404   2.930  0.00  0.00    -0.056 C 
ATOM     12  C   UNL     1     -32.794  30.311   1.504  0.00  0.00    -0.056 C 
ATOM     13  C   UNL     1     -32.376  32.552   2.281  0.00  0.00    -0.101 C 
ATOM     14  H   UNL     1     -33.875  31.978   1.041  0.00  0.00    -0.080 HD
ENDBRANCH   1   7
BRANCH   4  16
ATOM     15  O   UNL     1     -35.177  23.152   2.364  0.00  0.00    -0.258 OA
ATOM     16  N   UNL     1     -36.241  24.773   3.668  0.00  0.00    -0.272 N 
ATOM     17  C   UNL     1     -35.661  23.516   3.433  0.00  0.00    +0.316 C 
ATOM     18  H   UNL     1     -36.588  24.922   4.578  0.00  0.00    +0.156 HD
BRANCH  17  23
ATOM     19  N   UNL     1     -35.242  21.372   4.481  0.00  0.00    -0.105 NA
ATOM     20  N   UNL     1     -35.967  23.043   5.828  0.00  0.00    -0.082 NA
ATOM     21  N   UNL     1     -35.379  21.018   5.767  0.00  0.00    -0.140 N 
ATOM     22  N   UNL     1     -35.806  21.976   6.600  0.00  0.00    -0.022 NA
ATOM     23  C   UNL     1     -35.621  22.624   4.603  0.00  0.00    +0.128 C 
ATOM     24  H   UNL     1     -35.177  20.107   6.080  0.00  0.00    +0.197 HD
ENDBRANCH  17  23
ENDBRANCH   4  16
BRANCH   2  26
ATOM     25  N   UNL     1     -33.745  27.135   4.676  0.00  0.00    -0.191 NA
ATOM     26  C   UNL     1     -34.562  27.061   3.862  0.00  0.00    +0.103 C 
ENDBRANCH   2  26
TORSDOF 4
ENDMDL
MODEL 7
REMARK VINA RESULT:      -5.4      2.805      7.055
REMARK  Name = 196015
REMARK  4 active torsions:
REMARK  status: ('A' for Active; 'I' for Inactive)
REMARK    1  A    between atoms: C_1  and  N_7
REMARK    2  A    between atoms: C_2  and  C_26
REMARK    3  A    between atoms: C_4  and  N_16
REMARK    4  A    between atoms: C_17  and  C_23
REMARK                            x       y       z     vdW  Elec       q    Type
REMARK                         _______ _______ _______ _____ _____    ______ ____
ROOT
ATOM      1  C   UNL     1     -34.382  24.814   3.941  0.00  0.00    +0.059 C 
ATOM      2  C   UNL     1     -35.327  24.136   3.140  0.00  0.00    +0.095 C 
ATOM      3  C   UNL     1     -34.152  24.324   5.243  0.00  0.00    +0.015 C 
ATOM      4  C   UNL     1     -36.010  23.019   3.622  0.00  0.00    +0.062 C 
ATOM      5  C   UNL     1     -34.835  23.207   5.724  0.00  0.00    +0.003 C 
ATOM      6  C   UNL     1     -35.763  22.555   4.914  0.00  0.00    +0.015 C 
ENDROOT
BRANCH   1   7
ATOM      7  N   UNL     1     -33.681  25.937   3.486  0.00  0.00    -0.311 N 
ATOM      8  N   UNL     1     -32.079  28.184   2.750  0.00  0.00    +0.388 N 
ATOM      9  C   UNL     1     -32.561  25.767   2.556  0.00  0.00    +0.068 C 
ATOM     10  C   UNL     1     -33.599  27.104   4.374  0.00  0.00    +0.068 C 
ATOM     11  C   UNL     1     -32.278  27.074   1.810  0.00  0.00    -0.056 C 
ATOM     12  C   UNL     1     -33.283  28.368   3.569  0.00  0.00    -0.056 C 
ATOM     13  C   UNL     1     -31.757  29.415   2.029  0.00  0.00    -0.101 C 
ATOM     14  H   UNL     1     -31.295  27.960   3.363  0.00  0.00    -0.080 HD
ENDBRANCH   1   7
BRANCH   4  16
ATOM     15  O   UNL     1     -38.856  23.674   3.049  0.00  0.00    -0.258 OA
ATOM     16  N   UNL     1     -36.948  22.341   2.836  0.00  0.00    -0.272 N 
ATOM     17  C   UNL     1     -38.287  22.686   2.591  0.00  0.00    +0.316 C 
ATOM     18  H   UNL     1     -36.629  21.518   2.399  0.00  0.00    +0.156 HD
BRANCH  17  23
ATOM     19  N   UNL     1     -38.342  20.977   0.874  0.00  0.00    -0.105 NA
ATOM     20  N   UNL     1     -40.340  21.736   1.624  0.00  0.00    -0.082 NA
ATOM     21  N   UNL     1     -39.402  20.401   0.287  0.00  0.00    -0.140 N 
ATOM     22  N   UNL     1     -40.605  20.820   0.701  0.00  0.00    -0.022 NA
ATOM     23  C   UNL     1     -39.002  21.780   1.677  0.00  0.00    +0.128 C 
ATOM     24  H   UNL     1     -39.300  19.710  -0.407  0.00  0.00    +0.197 HD
ENDBRANCH  17  23
ENDBRANCH   4  16
BRANCH   2  26
ATOM     25  N   UNL     1     -35.784  25.000   0.740  0.00  0.00    -0.191 NA
ATOM     26  C   UNL     1     -35.580  24.615   1.810  0.00  0.00    +0.103 C 
ENDBRANCH   2  26
TORSDOF 4
ENDMDL
MODEL 8
REMARK VINA RESULT:      -5.4      2.985      7.867
REMARK  Name = 196015
REMARK  4 active torsions:
REMARK  status: ('A' for Active; 'I' for Inactive)
REMARK    1  A    between atoms: C_1  and  N_7
REMARK    2  A    between atoms: C_2  and  C_26
REMARK    3  A    between atoms: C_4  and  N_16
REMARK    4  A    between atoms: C_17  and  C_23
REMARK                            x       y       z     vdW  Elec       q    Type
REMARK                         _______ _______ _______ _____ _____    ______ ____
ROOT
ATOM      1  C   UNL     1     -37.640  24.266   3.166  0.00  0.00    +0.059 C 
ATOM      2  C   UNL     1     -37.487  22.997   2.566  0.00  0.00    +0.095 C 
ATOM      3  C   UNL     1     -38.935  24.822   3.206  0.00  0.00    +0.015 C 
ATOM      4  C   UNL     1     -38.581  22.316   2.032  0.00  0.00    +0.062 C 
ATOM      5  C   UNL     1     -40.029  24.141   2.672  0.00  0.00    +0.003 C 
ATOM      6  C   UNL     1     -39.852  22.888   2.085  0.00  0.00    +0.015 C 
ENDROOT
BRANCH   1   7
ATOM      7  N   UNL     1     -36.562  24.974   3.710  0.00  0.00    -0.311 N 
ATOM      8  N   UNL     1     -34.535  26.600   4.895  0.00  0.00    +0.388 N 
ATOM      9  C   UNL     1     -36.237  24.823   5.131  0.00  0.00    +0.068 C 
ATOM     10  C   UNL     1     -36.217  26.271   3.113  0.00  0.00    +0.068 C 
ATOM     11  C   UNL     1     -34.790  25.246   5.400  0.00  0.00    -0.056 C 
ATOM     12  C   UNL     1     -34.771  26.646   3.447  0.00  0.00    -0.056 C 
ATOM     13  C   UNL     1     -33.166  27.014   5.204  0.00  0.00    -0.101 C 
ATOM     14  H   UNL     1     -35.175  27.249   5.354  0.00  0.00    -0.080 HD
ENDBRANCH   1   7
BRANCH   4  16
ATOM     15  O   UNL     1     -38.249  21.583  -0.833  0.00  0.00    -0.258 OA
ATOM     16  N   UNL     1     -38.439  21.058   1.437  0.00  0.00    -0.272 N 
ATOM     17  C   UNL     1     -38.284  20.755   0.074  0.00  0.00    +0.316 C 
ATOM     18  H   UNL     1     -38.449  20.288   2.050  0.00  0.00    +0.156 HD
BRANCH  17  23
ATOM     19  N   UNL     1     -39.069  18.646  -0.823  0.00  0.00    -0.105 NA
ATOM     20  N   UNL     1     -36.998  18.658   0.093  0.00  0.00    -0.082 NA
ATOM     21  N   UNL     1     -38.449  17.458  -0.859  0.00  0.00    -0.140 N 
ATOM     22  N   UNL     1     -37.220  17.419  -0.327  0.00  0.00    -0.022 NA
ATOM     23  C   UNL     1     -38.116  19.323  -0.226  0.00  0.00    +0.128 C 
ATOM     24  H   UNL     1     -38.872  16.661  -1.252  0.00  0.00    +0.197 HD
ENDBRANCH  17  23
ENDBRANCH   4  16
BRANCH   2  26
ATOM     25  N   UNL     1     -35.125  21.936   2.468  0.00  0.00    -0.191 NA
ATOM     26  C   UNL     1     -36.178  22.409   2.512  0.00  0.00    +0.103 C 
ENDBRANCH   2  26
TORSDOF 4
ENDMDL
MODEL 9
REMARK VINA RESULT:      -5.4      3.351      4.230
REMARK  Name = 196015
REMARK  4 active torsions:
REMARK  status: ('A' for Active; 'I' for Inactive)
REMARK    1  A    between atoms: C_1  and  N_7
REMARK    2  A    between atoms: C_2  and  C_26
REMARK    3  A    between atoms: C_4  and  N_16
REMARK    4  A    between atoms: C_17  and  C_23
REMARK                            x       y       z     vdW  Elec       q    Type
REMARK                         _______ _______ _______ _____ _____    ______ ____
ROOT
ATOM      1  C   UNL     1     -37.672  23.078   2.104  0.00  0.00    +0.059 C 
ATOM      2  C   UNL     1     -36.880  24.128   2.617  0.00  0.00    +0.095 C 
ATOM      3  C   UNL     1     -37.190  21.761   2.250  0.00  0.00    +0.015 C 
ATOM      4  C   UNL     1     -35.662  23.872   3.246  0.00  0.00    +0.062 C 
ATOM      5  C   UNL     1     -35.972  21.504   2.879  0.00  0.00    +0.003 C 
ATOM      6  C   UNL     1     -35.209  22.559   3.378  0.00  0.00    +0.015 C 
ENDROOT
BRANCH   1   7
ATOM      7  N   UNL     1     -38.898  23.303   1.467  0.00  0.00    -0.311 N 
ATOM      8  N   UNL     1     -41.462  23.519   0.229  0.00  0.00    +0.388 N 
ATOM      9  C   UNL     1     -40.063  23.711   2.258  0.00  0.00    +0.068 C 
ATOM     10  C   UNL     1     -39.192  22.540   0.248  0.00  0.00    +0.068 C 
ATOM     11  C   UNL     1     -41.112  24.379   1.365  0.00  0.00    -0.056 C 
ATOM     12  C   UNL     1     -40.268  23.247  -0.581  0.00  0.00    -0.056 C 
ATOM     13  C   UNL     1     -42.503  24.143  -0.587  0.00  0.00    -0.101 C 
ATOM     14  H   UNL     1     -41.827  22.634   0.586  0.00  0.00    -0.080 HD
ENDBRANCH   1   7
BRANCH   4  16
ATOM     15  O   UNL     1     -35.941  25.422   5.771  0.00  0.00    -0.258 OA
ATOM     16  N   UNL     1     -34.872  24.906   3.758  0.00  0.00    -0.272 N 
ATOM     17  C   UNL     1     -35.039  25.614   4.959  0.00  0.00    +0.316 C 
ATOM     18  H   UNL     1     -34.100  25.172   3.206  0.00  0.00    +0.156 HD
BRANCH  17  23
ATOM     19  N   UNL     1     -33.729  27.560   4.353  0.00  0.00    -0.105 NA
ATOM     20  N   UNL     1     -33.302  26.630   6.374  0.00  0.00    -0.082 NA
ATOM     21  N   UNL     1     -32.767  28.183   5.049  0.00  0.00    -0.140 N 
ATOM     22  N   UNL     1     -32.481  27.666   6.252  0.00  0.00    -0.022 NA
ATOM     23  C   UNL     1     -34.003  26.623   5.232  0.00  0.00    +0.128 C 
ATOM     24  H   UNL     1     -32.298  28.973   4.697  0.00  0.00    +0.197 HD
ENDBRANCH  17  23
ENDBRANCH   4  16
BRANCH   2  26
ATOM     25  N   UNL     1     -37.726  26.566   2.371  0.00  0.00    -0.191 NA
ATOM     26  C   UNL     1     -37.349  25.479   2.481  0.00  0.00    +0.103 C 
ENDBRANCH   2  26
TORSDOF 4
ENDMDL
