MODEL 1
REMARK VINA RESULT:      -5.5      0.000      0.000
REMARK  Name = 54543597
REMARK  10 active torsions:
REMARK  status: ('A' for Active; 'I' for Inactive)
REMARK    1  A    between atoms: CA_1  and  C_8
REMARK    2  A    between atoms: CA_1  and  N_14
REMARK    3  A    between atoms: CA_1  and  CB_27
REMARK    4  A    between atoms: CA_4  and  C_10
REMARK    5  A    between atoms: C_10  and  O_11
REMARK    6  A    between atoms: C_15  and  C_18
REMARK    7  A    between atoms: C_19  and  C_22
REMARK    8  A    between atoms: N_21  and  C_24
REMARK    9  A    between atoms: C_24  and  C_25
REMARK   10  A    between atoms: CB_27  and  CG1_29
REMARK                            x       y       z     vdW  Elec       q    Type
REMARK                         _______ _______ _______ _____ _____    ______ ____
ROOT
ATOM      1  CA  UNL     1     -35.737  23.498   3.066  0.00  0.00    +0.149 C 
ENDROOT
BRANCH   1   8
ATOM      2  O   UNL     1     -37.257  24.673   4.472  0.00  0.00    -0.273 OA
ATOM      3  N   UNL     1     -37.726  24.639   2.205  0.00  0.00    -0.270 N 
ATOM      4  CA  UNL     1     -38.853  25.560   2.255  0.00  0.00    +0.175 C 
ATOM      5  CB  UNL     1     -39.084  25.967   0.804  0.00  0.00    +0.033 C 
ATOM      6  CD  UNL     1     -37.423  24.249   0.830  0.00  0.00    +0.094 C 
ATOM      7  CG  UNL     1     -38.602  24.753   0.013  0.00  0.00    +0.024 C 
ATOM      8  C   UNL     1     -36.970  24.326   3.325  0.00  0.00    +0.244 C 
BRANCH   4  10
ATOM      9  OXT UNL     1     -40.743  24.055   2.168  0.00  0.00    -0.248 OA
ATOM     10  C   UNL     1     -40.020  24.801   2.811  0.00  0.00    +0.332 C 
BRANCH  10  11
ATOM     11  O   UNL     1     -40.171  25.056   4.134  0.00  0.00    -0.479 OA
ATOM     12  H   UNL     1     -40.361  24.356   4.727  0.00  0.00    +0.295 HD
ENDBRANCH  10  11
ENDBRANCH   4  10
ENDBRANCH   1   8
BRANCH   1  14
ATOM     13  O   UNL     1     -34.111  24.973   1.158  0.00  0.00    -0.272 OA
ATOM     14  N   UNL     1     -34.619  24.352   3.346  0.00  0.00    -0.296 N 
ATOM     15  C   ACE A   0     -33.899  25.019   2.364  0.00  0.00    +0.253 C 
ATOM     16  H   UNL     1     -34.348  24.471   4.284  0.00  0.00    +0.150 HD
BRANCH  15  18
ATOM     17  O   UNL     1     -32.914  26.232   4.259  0.00  0.00    -0.335 OA
ATOM     18  C   UNL     1     -32.776  25.854   2.883  0.00  0.00    +0.227 C 
ATOM     19  C   UNL     1     -33.000  27.282   3.288  0.00  0.00    +0.227 C 
BRANCH  19  22
ATOM     20  O   UNL     1     -35.216  27.516   3.971  0.00  0.00    -0.272 OA
ATOM     21  N   UNL     1     -34.474  28.799   2.175  0.00  0.00    -0.302 N 
ATOM     22  C   UNL     1     -34.341  27.870   3.189  0.00  0.00    +0.253 C 
ATOM     23  H   UNL     1     -33.690  28.996   1.613  0.00  0.00    +0.150 HD
BRANCH  21  24
ATOM     24  C   UNL     1     -35.710  29.497   1.900  0.00  0.00    +0.089 C 
BRANCH  24  25
ATOM     25  C   UNL     1     -35.743  30.886   2.528  0.00  0.00    +0.021 C 
ATOM     26  C   UNL     1     -36.776  31.798   1.881  0.00  0.00    +0.002 C 
ENDBRANCH  24  25
ENDBRANCH  21  24
ENDBRANCH  19  22
ENDBRANCH  15  18
ENDBRANCH   1  14
BRANCH   1  27
ATOM     27  CB  UNL     1     -35.754  22.189   3.873  0.00  0.00    +0.027 C 
ATOM     28  CG2 UNL     1     -35.433  21.010   2.945  0.00  0.00    +0.002 C 
BRANCH  27  29
ATOM     29  CG1 UNL     1     -34.808  22.223   5.094  0.00  0.00    +0.002 C 
ATOM     30  CD1 UNL     1     -35.533  22.118   6.429  0.00  0.00    +0.000 C 
ENDBRANCH  27  29
ENDBRANCH   1  27
TORSDOF 10
ENDMDL
MODEL 2
REMARK VINA RESULT:      -5.5      3.870      7.009
REMARK  Name = 54543597
REMARK  10 active torsions:
REMARK  status: ('A' for Active; 'I' for Inactive)
REMARK    1  A    between atoms: CA_1  and  C_8
REMARK    2  A    between atoms: CA_1  and  N_14
REMARK    3  A    between atoms: CA_1  and  CB_27
REMARK    4  A    between atoms: CA_4  and  C_10
REMARK    5  A    between atoms: C_10  and  O_11
REMARK    6  A    between atoms: C_15  and  C_18
REMARK    7  A    between atoms: C_19  and  C_22
REMARK    8  A    between atoms: N_21  and  C_24
REMARK    9  A    between atoms: C_24  and  C_25
REMARK   10  A    between atoms: CB_27  and  CG1_29
REMARK                            x       y       z     vdW  Elec       q    Type
REMARK                         _______ _______ _______ _____ _____    ______ ____
ROOT
ATOM      1  CA  UNL     1     -37.407  22.761   1.828  0.00  0.00    +0.149 C 
ENDROOT
BRANCH   1   8
ATOM      2  O   UNL     1     -35.919  21.115   2.693  0.00  0.00    -0.273 OA
ATOM      3  N   UNL     1     -36.062  23.120   3.843  0.00  0.00    -0.270 N 
ATOM      4  CA  UNL     1     -34.987  22.847   4.786  0.00  0.00    +0.175 C 
ATOM      5  CB  UNL     1     -34.665  24.201   5.408  0.00  0.00    +0.033 C 
ATOM      6  CD  UNL     1     -36.597  24.467   4.027  0.00  0.00    +0.094 C 
ATOM      7  CG  UNL     1     -35.993  24.950   5.337  0.00  0.00    +0.024 C 
ATOM      8  C   UNL     1     -36.392  22.247   2.817  0.00  0.00    +0.244 C 
BRANCH   4  10
ATOM      9  OXT UNL     1     -36.206  22.189   6.768  0.00  0.00    -0.248 OA
ATOM     10  C   UNL     1     -35.524  21.883   5.802  0.00  0.00    +0.332 C 
BRANCH  10  11
ATOM     11  O   UNL     1     -35.148  20.615   5.504  0.00  0.00    -0.479 OA
ATOM     12  H   UNL     1     -35.795  19.976   5.279  0.00  0.00    +0.295 HD
ENDBRANCH  10  11
ENDBRANCH   4  10
ENDBRANCH   1   8
BRANCH   1  14
ATOM     13  O   UNL     1     -35.360  24.061   0.222  0.00  0.00    -0.272 OA
ATOM     14  N   UNL     1     -36.933  22.370   0.532  0.00  0.00    -0.296 N 
ATOM     15  C   ACE A   0     -35.945  23.056  -0.162  0.00  0.00    +0.253 C 
ATOM     16  H   UNL     1     -37.328  21.572   0.113  0.00  0.00    +0.150 HD
BRANCH  15  18
ATOM     17  O   UNL     1     -35.877  21.067  -1.601  0.00  0.00    -0.335 OA
ATOM     18  C   UNL     1     -35.607  22.470  -1.493  0.00  0.00    +0.227 C 
ATOM     19  C   UNL     1     -34.501  21.464  -1.634  0.00  0.00    +0.227 C 
BRANCH  19  22
ATOM     20  O   UNL     1     -32.760  21.668  -0.100  0.00  0.00    -0.272 OA
ATOM     21  N   UNL     1     -34.258  19.905   0.161  0.00  0.00    -0.302 N 
ATOM     22  C   UNL     1     -33.747  21.034  -0.451  0.00  0.00    +0.253 C 
ATOM     23  H   UNL     1     -35.062  19.487  -0.223  0.00  0.00    +0.150 HD
BRANCH  21  24
ATOM     24  C   UNL     1     -33.668  19.310   1.340  0.00  0.00    +0.089 C 
BRANCH  24  25
ATOM     25  C   UNL     1     -32.977  17.986   1.035  0.00  0.00    +0.021 C 
ATOM     26  C   UNL     1     -31.458  18.100   1.048  0.00  0.00    +0.002 C 
ENDBRANCH  24  25
ENDBRANCH  21  24
ENDBRANCH  19  22
ENDBRANCH  15  18
ENDBRANCH   1  14
BRANCH   1  27
ATOM     27  CB  UNL     1     -38.824  22.266   2.162  0.00  0.00    +0.027 C 
ATOM     28  CG2 UNL     1     -39.764  23.469   2.317  0.00  0.00    +0.002 C 
BRANCH  27  29
ATOM     29  CG1 UNL     1     -39.366  21.253   1.128  0.00  0.00    +0.002 C 
ATOM     30  CD1 UNL     1     -40.428  21.836   0.205  0.00  0.00    +0.000 C 
ENDBRANCH  27  29
ENDBRANCH   1  27
TORSDOF 10
ENDMDL
MODEL 3
REMARK VINA RESULT:      -5.4      2.875      5.897
REMARK  Name = 54543597
REMARK  10 active torsions:
REMARK  status: ('A' for Active; 'I' for Inactive)
REMARK    1  A    between atoms: CA_1  and  C_8
REMARK    2  A    between atoms: CA_1  and  N_14
REMARK    3  A    between atoms: CA_1  and  CB_27
REMARK    4  A    between atoms: CA_4  and  C_10
REMARK    5  A    between atoms: C_10  and  O_11
REMARK    6  A    between atoms: C_15  and  C_18
REMARK    7  A    between atoms: C_19  and  C_22
REMARK    8  A    between atoms: N_21  and  C_24
REMARK    9  A    between atoms: C_24  and  C_25
REMARK   10  A    between atoms: CB_27  and  CG1_29
REMARK                            x       y       z     vdW  Elec       q    Type
REMARK                         _______ _______ _______ _____ _____    ______ ____
ROOT
ATOM      1  CA  UNL     1     -36.336  24.504   3.398  0.00  0.00    +0.149 C 
ENDROOT
BRANCH   1   8
ATOM      2  O   UNL     1     -37.695  22.555   3.240  0.00  0.00    -0.273 OA
ATOM      3  N   UNL     1     -35.784  22.619   1.935  0.00  0.00    -0.270 N 
ATOM      4  CA  UNL     1     -36.046  21.391   1.197  0.00  0.00    +0.175 C 
ATOM      5  CB  UNL     1     -35.084  21.438   0.015  0.00  0.00    +0.033 C 
ATOM      6  CD  UNL     1     -34.571  23.276   1.454  0.00  0.00    +0.094 C 
ATOM      7  CG  UNL     1     -33.907  22.252   0.546  0.00  0.00    +0.024 C 
ATOM      8  C   UNL     1     -36.681  23.139   2.856  0.00  0.00    +0.244 C 
BRANCH   4  10
ATOM      9  OXT UNL     1     -34.617  19.870   2.417  0.00  0.00    -0.248 OA
ATOM     10  C   UNL     1     -35.739  20.248   2.118  0.00  0.00    +0.332 C 
BRANCH  10  11
ATOM     11  O   UNL     1     -36.883  19.683   2.576  0.00  0.00    -0.479 OA
ATOM     12  H   UNL     1     -37.140  18.834   2.272  0.00  0.00    +0.295 HD
ENDBRANCH  10  11
ENDBRANCH   4  10
ENDBRANCH   1   8
BRANCH   1  14
ATOM     13  O   UNL     1     -36.804  25.675   0.778  0.00  0.00    -0.272 OA
ATOM     14  N   UNL     1     -37.410  25.370   3.007  0.00  0.00    -0.296 N 
ATOM     15  C   ACE A   0     -37.553  25.883   1.725  0.00  0.00    +0.253 C 
ATOM     16  H   UNL     1     -38.083  25.613   3.683  0.00  0.00    +0.150 HD
BRANCH  15  18
ATOM     17  O   UNL     1     -39.726  26.642   2.580  0.00  0.00    -0.335 OA
ATOM     18  C   UNL     1     -38.745  26.761   1.542  0.00  0.00    +0.227 C 
ATOM     19  C   UNL     1     -40.102  26.175   1.279  0.00  0.00    +0.227 C 
BRANCH  19  22
ATOM     20  O   UNL     1     -40.311  24.067   2.250  0.00  0.00    -0.272 OA
ATOM     21  N   UNL     1     -40.366  24.221  -0.072  0.00  0.00    -0.302 N 
ATOM     22  C   UNL     1     -40.271  24.719   1.213  0.00  0.00    +0.253 C 
ATOM     23  H   UNL     1     -40.318  24.854  -0.825  0.00  0.00    +0.150 HD
BRANCH  21  24
ATOM     24  C   UNL     1     -40.533  22.815  -0.366  0.00  0.00    +0.089 C 
BRANCH  24  25
ATOM     25  C   UNL     1     -39.200  22.082  -0.465  0.00  0.00    +0.021 C 
ATOM     26  C   UNL     1     -39.341  20.578  -0.275  0.00  0.00    +0.002 C 
ENDBRANCH  24  25
ENDBRANCH  21  24
ENDBRANCH  19  22
ENDBRANCH  15  18
ENDBRANCH   1  14
BRANCH   1  27
ATOM     27  CB  UNL     1     -36.074  24.461   4.913  0.00  0.00    +0.027 C 
ATOM     28  CG2 UNL     1     -34.948  23.462   5.211  0.00  0.00    +0.002 C 
BRANCH  27  29
ATOM     29  CG1 UNL     1     -35.768  25.853   5.510  0.00  0.00    +0.002 C 
ATOM     30  CD1 UNL     1     -34.291  26.076   5.807  0.00  0.00    +0.000 C 
ENDBRANCH  27  29
ENDBRANCH   1  27
TORSDOF 10
ENDMDL
MODEL 4
REMARK VINA RESULT:      -5.3      2.776      5.337
REMARK  Name = 54543597
REMARK  10 active torsions:
REMARK  status: ('A' for Active; 'I' for Inactive)
REMARK    1  A    between atoms: CA_1  and  C_8
REMARK    2  A    between atoms: CA_1  and  N_14
REMARK    3  A    between atoms: CA_1  and  CB_27
REMARK    4  A    between atoms: CA_4  and  C_10
REMARK    5  A    between atoms: C_10  and  O_11
REMARK    6  A    between atoms: C_15  and  C_18
REMARK    7  A    between atoms: C_19  and  C_22
REMARK    8  A    between atoms: N_21  and  C_24
REMARK    9  A    between atoms: C_24  and  C_25
REMARK   10  A    between atoms: CB_27  and  CG1_29
REMARK                            x       y       z     vdW  Elec       q    Type
REMARK                         _______ _______ _______ _____ _____    ______ ____
ROOT
ATOM      1  CA  UNL     1     -36.007  24.524   3.487  0.00  0.00    +0.149 C 
ENDROOT
BRANCH   1   8
ATOM      2  O   UNL     1     -37.661  22.820   3.313  0.00  0.00    -0.273 OA
ATOM      3  N   UNL     1     -35.801  22.631   1.947  0.00  0.00    -0.270 N 
ATOM      4  CA  UNL     1     -36.274  21.487   1.179  0.00  0.00    +0.175 C 
ATOM      5  CB  UNL     1     -35.351  21.426  -0.033  0.00  0.00    +0.033 C 
ATOM      6  CD  UNL     1     -34.514  23.107   1.446  0.00  0.00    +0.094 C 
ATOM      7  CG  UNL     1     -34.046  22.025   0.484  0.00  0.00    +0.024 C 
ATOM      8  C   UNL     1     -36.578  23.251   2.914  0.00  0.00    +0.244 C 
BRANCH   4  10
ATOM      9  OXT UNL     1     -35.416  20.209   3.043  0.00  0.00    -0.248 OA
ATOM     10  C   UNL     1     -36.126  20.277   2.052  0.00  0.00    +0.332 C 
BRANCH  10  11
ATOM     11  O   UNL     1     -36.891  19.257   1.590  0.00  0.00    -0.479 OA
ATOM     12  H   UNL     1     -37.485  19.402   0.879  0.00  0.00    +0.295 HD
ENDBRANCH  10  11
ENDBRANCH   4  10
ENDBRANCH   1   8
BRANCH   1  14
ATOM     13  O   UNL     1     -34.980  26.434   1.549  0.00  0.00    -0.272 OA
ATOM     14  N   UNL     1     -36.718  25.598   2.856  0.00  0.00    -0.296 N 
ATOM     15  C   ACE A   0     -36.141  26.464   1.937  0.00  0.00    +0.253 C 
ATOM     16  H   UNL     1     -37.666  25.727   3.087  0.00  0.00    +0.150 HD
BRANCH  15  18
ATOM     17  O   UNL     1     -38.456  27.228   1.634  0.00  0.00    -0.335 OA
ATOM     18  C   UNL     1     -37.068  27.507   1.407  0.00  0.00    +0.227 C 
ATOM     19  C   UNL     1     -38.005  27.202   0.274  0.00  0.00    +0.227 C 
BRANCH  19  22
ATOM     20  O   UNL     1     -37.279  25.597  -1.250  0.00  0.00    -0.272 OA
ATOM     21  N   UNL     1     -38.937  25.001   0.272  0.00  0.00    -0.302 N 
ATOM     22  C   UNL     1     -38.028  25.860  -0.317  0.00  0.00    +0.253 C 
ATOM     23  H   UNL     1     -39.483  25.338   1.019  0.00  0.00    +0.150 HD
BRANCH  21  24
ATOM     24  C   UNL     1     -39.124  23.633  -0.157  0.00  0.00    +0.089 C 
BRANCH  24  25
ATOM     25  C   UNL     1     -40.094  22.873   0.741  0.00  0.00    +0.021 C 
ATOM     26  C   UNL     1     -39.884  21.366   0.689  0.00  0.00    +0.002 C 
ENDBRANCH  24  25
ENDBRANCH  21  24
ENDBRANCH  19  22
ENDBRANCH  15  18
ENDBRANCH   1  14
BRANCH   1  27
ATOM     27  CB  UNL     1     -36.074  24.533   5.023  0.00  0.00    +0.027 C 
ATOM     28  CG2 UNL     1     -35.205  23.398   5.581  0.00  0.00    +0.002 C 
BRANCH  27  29
ATOM     29  CG1 UNL     1     -35.685  25.898   5.634  0.00  0.00    +0.002 C 
ATOM     30  CD1 UNL     1     -34.181  26.095   5.772  0.00  0.00    +0.000 C 
ENDBRANCH  27  29
ENDBRANCH   1  27
TORSDOF 10
ENDMDL
MODEL 5
REMARK VINA RESULT:      -5.2      2.599      3.744
REMARK  Name = 54543597
REMARK  10 active torsions:
REMARK  status: ('A' for Active; 'I' for Inactive)
REMARK    1  A    between atoms: CA_1  and  C_8
REMARK    2  A    between atoms: CA_1  and  N_14
REMARK    3  A    between atoms: CA_1  and  CB_27
REMARK    4  A    between atoms: CA_4  and  C_10
REMARK    5  A    between atoms: C_10  and  O_11
REMARK    6  A    between atoms: C_15  and  C_18
REMARK    7  A    between atoms: C_19  and  C_22
REMARK    8  A    between atoms: N_21  and  C_24
REMARK    9  A    between atoms: C_24  and  C_25
REMARK   10  A    between atoms: CB_27  and  CG1_29
REMARK                            x       y       z     vdW  Elec       q    Type
REMARK                         _______ _______ _______ _____ _____    ______ ____
ROOT
ATOM      1  CA  UNL     1     -35.003  24.467   3.288  0.00  0.00    +0.149 C 
ENDROOT
BRANCH   1   8
ATOM      2  O   UNL     1     -37.272  23.746   3.236  0.00  0.00    -0.273 OA
ATOM      3  N   UNL     1     -35.831  22.812   1.683  0.00  0.00    -0.270 N 
ATOM      4  CA  UNL     1     -36.844  22.078   0.937  0.00  0.00    +0.175 C 
ATOM      5  CB  UNL     1     -36.155  21.682  -0.363  0.00  0.00    +0.033 C 
ATOM      6  CD  UNL     1     -34.514  22.669   1.068  0.00  0.00    +0.094 C 
ATOM      7  CG  UNL     1     -34.685  21.566   0.034  0.00  0.00    +0.024 C 
ATOM      8  C   UNL     1     -36.148  23.651   2.741  0.00  0.00    +0.244 C 
BRANCH   4  10
ATOM      9  OXT UNL     1     -36.509  19.897   1.923  0.00  0.00    -0.248 OA
ATOM     10  C   UNL     1     -37.216  20.879   1.757  0.00  0.00    +0.332 C 
BRANCH  10  11
ATOM     11  O   UNL     1     -38.452  21.030   2.292  0.00  0.00    -0.479 OA
ATOM     12  H   UNL     1     -39.186  21.198   1.734  0.00  0.00    +0.295 HD
ENDBRANCH  10  11
ENDBRANCH   4  10
ENDBRANCH   1   8
BRANCH   1  14
ATOM     13  O   UNL     1     -34.405  26.271   1.087  0.00  0.00    -0.272 OA
ATOM     14  N   UNL     1     -35.394  25.841   3.153  0.00  0.00    -0.296 N 
ATOM     15  C   ACE A   0     -35.060  26.628   2.059  0.00  0.00    +0.253 C 
ATOM     16  H   UNL     1     -35.927  26.246   3.873  0.00  0.00    +0.150 HD
BRANCH  15  18
ATOM     17  O   UNL     1     -34.892  28.945   1.263  0.00  0.00    -0.335 OA
ATOM     18  C   UNL     1     -35.573  28.028   2.128  0.00  0.00    +0.227 C 
ATOM     19  C   UNL     1     -34.720  29.136   2.672  0.00  0.00    +0.227 C 
BRANCH  19  22
ATOM     20  O   UNL     1     -32.427  28.900   2.334  0.00  0.00    -0.272 OA
ATOM     21  N   UNL     1     -33.267  28.546   4.476  0.00  0.00    -0.302 N 
ATOM     22  C   UNL     1     -33.356  28.852   3.131  0.00  0.00    +0.253 C 
ATOM     23  H   UNL     1     -34.094  28.541   5.011  0.00  0.00    +0.150 HD
BRANCH  21  24
ATOM     24  C   UNL     1     -32.020  28.231   5.135  0.00  0.00    +0.089 C 
BRANCH  24  25
ATOM     25  C   UNL     1     -31.776  29.102   6.361  0.00  0.00    +0.021 C 
ATOM     26  C   UNL     1     -31.886  30.590   6.056  0.00  0.00    +0.002 C 
ENDBRANCH  24  25
ENDBRANCH  21  24
ENDBRANCH  19  22
ENDBRANCH  15  18
ENDBRANCH   1  14
BRANCH   1  27
ATOM     27  CB  UNL     1     -34.644  24.047   4.723  0.00  0.00    +0.027 C 
ATOM     28  CG2 UNL     1     -35.371  24.958   5.721  0.00  0.00    +0.002 C 
BRANCH  27  29
ATOM     29  CG1 UNL     1     -34.934  22.555   5.004  0.00  0.00    +0.002 C 
ATOM     30  CD1 UNL     1     -35.430  22.287   6.418  0.00  0.00    +0.000 C 
ENDBRANCH  27  29
ENDBRANCH   1  27
TORSDOF 10
ENDMDL
MODEL 6
REMARK VINA RESULT:      -5.1      2.439      5.996
REMARK  Name = 54543597
REMARK  10 active torsions:
REMARK  status: ('A' for Active; 'I' for Inactive)
REMARK    1  A    between atoms: CA_1  and  C_8
REMARK    2  A    between atoms: CA_1  and  N_14
REMARK    3  A    between atoms: CA_1  and  CB_27
REMARK    4  A    between atoms: CA_4  and  C_10
REMARK    5  A    between atoms: C_10  and  O_11
REMARK    6  A    between atoms: C_15  and  C_18
REMARK    7  A    between atoms: C_19  and  C_22
REMARK    8  A    between atoms: N_21  and  C_24
REMARK    9  A    between atoms: C_24  and  C_25
REMARK   10  A    between atoms: CB_27  and  CG1_29
REMARK                            x       y       z     vdW  Elec       q    Type
REMARK                         _______ _______ _______ _____ _____    ______ ____
ROOT
ATOM      1  CA  UNL     1     -34.887  24.998   3.453  0.00  0.00    +0.149 C 
ENDROOT
BRANCH   1   8
ATOM      2  O   UNL     1     -32.655  25.807   3.642  0.00  0.00    -0.273 OA
ATOM      3  N   UNL     1     -34.230  27.250   2.750  0.00  0.00    -0.270 N 
ATOM      4  CA  UNL     1     -33.297  28.305   2.380  0.00  0.00    +0.175 C 
ATOM      5  CB  UNL     1     -34.085  29.205   1.434  0.00  0.00    +0.033 C 
ATOM      6  CD  UNL     1     -35.589  27.573   2.323  0.00  0.00    +0.094 C 
ATOM      7  CG  UNL     1     -35.528  29.034   1.902  0.00  0.00    +0.024 C 
ATOM      8  C   UNL     1     -33.812  26.044   3.292  0.00  0.00    +0.244 C 
BRANCH   4  10
ATOM      9  OXT UNL     1     -33.593  29.876   4.194  0.00  0.00    -0.248 OA
ATOM     10  C   UNL     1     -32.916  29.022   3.640  0.00  0.00    +0.332 C 
BRANCH  10  11
ATOM     11  O   UNL     1     -31.711  28.596   4.089  0.00  0.00    -0.479 OA
ATOM     12  H   UNL     1     -30.931  29.054   3.843  0.00  0.00    +0.295 HD
ENDBRANCH  10  11
ENDBRANCH   4  10
ENDBRANCH   1   8
BRANCH   1  14
ATOM     13  O   UNL     1     -35.808  24.339   0.775  0.00  0.00    -0.272 OA
ATOM     14  N   UNL     1     -34.485  23.887   2.639  0.00  0.00    -0.296 N 
ATOM     15  C   ACE A   0     -34.982  23.653   1.364  0.00  0.00    +0.253 C 
ATOM     16  H   UNL     1     -33.821  23.259   3.003  0.00  0.00    +0.150 HD
BRANCH  15  18
ATOM     17  O   UNL     1     -35.294  21.852  -0.276  0.00  0.00    -0.335 OA
ATOM     18  C   UNL     1     -34.423  22.439   0.699  0.00  0.00    +0.227 C 
ATOM     19  C   UNL     1     -35.043  21.088   0.910  0.00  0.00    +0.227 C 
BRANCH  19  22
ATOM     20  O   UNL     1     -36.125  20.382   2.849  0.00  0.00    -0.272 OA
ATOM     21  N   UNL     1     -37.374  21.505   1.237  0.00  0.00    -0.302 N 
ATOM     22  C   UNL     1     -36.225  20.952   1.769  0.00  0.00    +0.253 C 
ATOM     23  H   UNL     1     -37.321  21.937   0.354  0.00  0.00    +0.150 HD
BRANCH  21  24
ATOM     24  C   UNL     1     -38.650  21.480   1.915  0.00  0.00    +0.089 C 
BRANCH  24  25
ATOM     25  C   UNL     1     -39.332  22.843   1.917  0.00  0.00    +0.021 C 
ATOM     26  C   UNL     1     -38.607  23.861   2.788  0.00  0.00    +0.002 C 
ENDBRANCH  24  25
ENDBRANCH  21  24
ENDBRANCH  19  22
ENDBRANCH  15  18
ENDBRANCH   1  14
BRANCH   1  27
ATOM     27  CB  UNL     1     -35.120  24.649   4.933  0.00  0.00    +0.027 C 
ATOM     28  CG2 UNL     1     -35.937  25.764   5.599  0.00  0.00    +0.002 C 
BRANCH  27  29
ATOM     29  CG1 UNL     1     -35.783  23.267   5.128  0.00  0.00    +0.002 C 
ATOM     30  CD1 UNL     1     -35.035  22.366   6.101  0.00  0.00    +0.000 C 
ENDBRANCH  27  29
ENDBRANCH   1  27
TORSDOF 10
ENDMDL
MODEL 7
REMARK VINA RESULT:      -5.0      2.397      4.522
REMARK  Name = 54543597
REMARK  10 active torsions:
REMARK  status: ('A' for Active; 'I' for Inactive)
REMARK    1  A    between atoms: CA_1  and  C_8
REMARK    2  A    between atoms: CA_1  and  N_14
REMARK    3  A    between atoms: CA_1  and  CB_27
REMARK    4  A    between atoms: CA_4  and  C_10
REMARK    5  A    between atoms: C_10  and  O_11
REMARK    6  A    between atoms: C_15  and  C_18
REMARK    7  A    between atoms: C_19  and  C_22
REMARK    8  A    between atoms: N_21  and  C_24
REMARK    9  A    between atoms: C_24  and  C_25
REMARK   10  A    between atoms: CB_27  and  CG1_29
REMARK                            x       y       z     vdW  Elec       q    Type
REMARK                         _______ _______ _______ _____ _____    ______ ____
ROOT
ATOM      1  CA  UNL     1     -35.476  24.520   0.844  0.00  0.00    +0.149 C 
ENDROOT
BRANCH   1   8
ATOM      2  O   UNL     1     -35.905  22.632   2.229  0.00  0.00    -0.273 OA
ATOM      3  N   UNL     1     -37.685  24.045   1.788  0.00  0.00    -0.270 N 
ATOM      4  CA  UNL     1     -38.633  23.404   2.688  0.00  0.00    +0.175 C 
ATOM      5  CB  UNL     1     -39.772  24.408   2.830  0.00  0.00    +0.033 C 
ATOM      6  CD  UNL     1     -38.267  25.231   1.165  0.00  0.00    +0.094 C 
ATOM      7  CG  UNL     1     -39.749  25.160   1.501  0.00  0.00    +0.024 C 
ATOM      8  C   UNL     1     -36.362  23.640   1.688  0.00  0.00    +0.244 C 
BRANCH   4  10
ATOM      9  OXT UNL     1     -40.036  22.048   1.261  0.00  0.00    -0.248 OA
ATOM     10  C   UNL     1     -39.087  22.139   2.025  0.00  0.00    +0.332 C 
BRANCH  10  11
ATOM     11  O   UNL     1     -38.298  21.098   2.388  0.00  0.00    -0.479 OA
ATOM     12  H   UNL     1     -38.282  20.812   3.280  0.00  0.00    +0.295 HD
ENDBRANCH  10  11
ENDBRANCH   4  10
ENDBRANCH   1   8
BRANCH   1  14
ATOM     13  O   UNL     1     -35.568  27.220   1.922  0.00  0.00    -0.272 OA
ATOM     14  N   UNL     1     -34.546  25.133   1.748  0.00  0.00    -0.296 N 
ATOM     15  C   ACE A   0     -34.673  26.435   2.212  0.00  0.00    +0.253 C 
ATOM     16  H   UNL     1     -33.778  24.601   2.057  0.00  0.00    +0.150 HD
BRANCH  15  18
ATOM     17  O   UNL     1     -32.877  25.781   3.754  0.00  0.00    -0.335 OA
ATOM     18  C   UNL     1     -33.591  26.865   3.146  0.00  0.00    +0.227 C 
ATOM     19  C   UNL     1     -33.687  26.586   4.618  0.00  0.00    +0.227 C 
BRANCH  19  22
ATOM     20  O   UNL     1     -35.813  26.503   5.568  0.00  0.00    -0.272 OA
ATOM     21  N   UNL     1     -34.721  24.493   5.131  0.00  0.00    -0.302 N 
ATOM     22  C   UNL     1     -34.850  25.869   5.153  0.00  0.00    +0.253 C 
ATOM     23  H   UNL     1     -33.891  24.106   4.770  0.00  0.00    +0.150 HD
BRANCH  21  24
ATOM     24  C   UNL     1     -35.747  23.595   5.612  0.00  0.00    +0.089 C 
BRANCH  24  25
ATOM     25  C   UNL     1     -35.166  22.400   6.359  0.00  0.00    +0.021 C 
ATOM     26  C   UNL     1     -35.138  21.135   5.511  0.00  0.00    +0.002 C 
ENDBRANCH  24  25
ENDBRANCH  21  24
ENDBRANCH  19  22
ENDBRANCH  15  18
ENDBRANCH   1  14
BRANCH   1  27
ATOM     27  CB  UNL     1     -34.820  23.730  -0.302  0.00  0.00    +0.027 C 
ATOM     28  CG2 UNL     1     -34.989  24.501  -1.618  0.00  0.00    +0.002 C 
BRANCH  27  29
ATOM     29  CG1 UNL     1     -33.337  23.394  -0.029  0.00  0.00    +0.002 C 
ATOM     30  CD1 UNL     1     -32.444  23.543  -1.254  0.00  0.00    +0.000 C 
ENDBRANCH  27  29
ENDBRANCH   1  27
TORSDOF 10
ENDMDL
MODEL 8
REMARK VINA RESULT:      -5.0      3.129      5.538
REMARK  Name = 54543597
REMARK  10 active torsions:
REMARK  status: ('A' for Active; 'I' for Inactive)
REMARK    1  A    between atoms: CA_1  and  C_8
REMARK    2  A    between atoms: CA_1  and  N_14
REMARK    3  A    between atoms: CA_1  and  CB_27
REMARK    4  A    between atoms: CA_4  and  C_10
REMARK    5  A    between atoms: C_10  and  O_11
REMARK    6  A    between atoms: C_15  and  C_18
REMARK    7  A    between atoms: C_19  and  C_22
REMARK    8  A    between atoms: N_21  and  C_24
REMARK    9  A    between atoms: C_24  and  C_25
REMARK   10  A    between atoms: CB_27  and  CG1_29
REMARK                            x       y       z     vdW  Elec       q    Type
REMARK                         _______ _______ _______ _____ _____    ______ ____
ROOT
ATOM      1  CA  UNL     1     -36.353  22.983   3.792  0.00  0.00    +0.149 C 
ENDROOT
BRANCH   1   8
ATOM      2  O   UNL     1     -36.964  25.254   3.415  0.00  0.00    -0.273 OA
ATOM      3  N   UNL     1     -38.343  23.625   2.517  0.00  0.00    -0.270 N 
ATOM      4  CA  UNL     1     -39.207  24.531   1.773  0.00  0.00    +0.175 C 
ATOM      5  CB  UNL     1     -39.969  23.633   0.806  0.00  0.00    +0.033 C 
ATOM      6  CD  UNL     1     -38.703  22.231   2.271  0.00  0.00    +0.094 C 
ATOM      7  CG  UNL     1     -40.036  22.296   1.541  0.00  0.00    +0.024 C 
ATOM      8  C   UNL     1     -37.236  24.067   3.227  0.00  0.00    +0.244 C 
BRANCH   4  10
ATOM      9  OXT UNL     1     -41.052  25.924   2.480  0.00  0.00    -0.248 OA
ATOM     10  C   UNL     1     -40.123  25.183   2.765  0.00  0.00    +0.332 C 
BRANCH  10  11
ATOM     11  O   UNL     1     -39.781  24.840   4.030  0.00  0.00    -0.479 OA
ATOM     12  H   UNL     1     -39.217  25.397   4.530  0.00  0.00    +0.295 HD
ENDBRANCH  10  11
ENDBRANCH   4  10
ENDBRANCH   1   8
BRANCH   1  14
ATOM     13  O   UNL     1     -35.802  20.309   2.790  0.00  0.00    -0.272 OA
ATOM     14  N   UNL     1     -35.454  22.612   2.737  0.00  0.00    -0.296 N 
ATOM     15  C   ACE A   0     -35.256  21.302   2.325  0.00  0.00    +0.253 C 
ATOM     16  H   UNL     1     -34.953  23.326   2.281  0.00  0.00    +0.150 HD
BRANCH  15  18
ATOM     17  O   UNL     1     -33.983  22.368   0.515  0.00  0.00    -0.335 OA
ATOM     18  C   UNL     1     -34.276  21.149   1.209  0.00  0.00    +0.227 C 
ATOM     19  C   UNL     1     -34.692  21.363  -0.218  0.00  0.00    +0.227 C 
BRANCH  19  22
ATOM     20  O   UNL     1     -36.436  22.901  -0.365  0.00  0.00    -0.272 OA
ATOM     21  N   UNL     1     -36.854  20.697  -0.990  0.00  0.00    -0.302 N 
ATOM     22  C   UNL     1     -36.075  21.742  -0.528  0.00  0.00    +0.253 C 
ATOM     23  H   UNL     1     -36.441  19.807  -1.077  0.00  0.00    +0.150 HD
BRANCH  21  24
ATOM     24  C   UNL     1     -38.245  20.849  -1.352  0.00  0.00    +0.089 C 
BRANCH  24  25
ATOM     25  C   UNL     1     -39.086  19.647  -0.937  0.00  0.00    +0.021 C 
ATOM     26  C   UNL     1     -38.249  18.394  -0.714  0.00  0.00    +0.002 C 
ENDBRANCH  24  25
ENDBRANCH  21  24
ENDBRANCH  19  22
ENDBRANCH  15  18
ENDBRANCH   1  14
BRANCH   1  27
ATOM     27  CB  UNL     1     -35.659  23.436   5.088  0.00  0.00    +0.027 C 
ATOM     28  CG2 UNL     1     -35.476  22.232   6.020  0.00  0.00    +0.002 C 
BRANCH  27  29
ATOM     29  CG1 UNL     1     -34.319  24.161   4.830  0.00  0.00    +0.002 C 
ATOM     30  CD1 UNL     1     -34.219  25.518   5.515  0.00  0.00    +0.000 C 
ENDBRANCH  27  29
ENDBRANCH   1  27
TORSDOF 10
ENDMDL
MODEL 9
REMARK VINA RESULT:      -5.0      2.662      7.488
REMARK  Name = 54543597
REMARK  10 active torsions:
REMARK  status: ('A' for Active; 'I' for Inactive)
REMARK    1  A    between atoms: CA_1  and  C_8
REMARK    2  A    between atoms: CA_1  and  N_14
REMARK    3  A    between atoms: CA_1  and  CB_27
REMARK    4  A    between atoms: CA_4  and  C_10
REMARK    5  A    between atoms: C_10  and  O_11
REMARK    6  A    between atoms: C_15  and  C_18
REMARK    7  A    between atoms: C_19  and  C_22
REMARK    8  A    between atoms: N_21  and  C_24
REMARK    9  A    between atoms: C_24  and  C_25
REMARK   10  A    between atoms: CB_27  and  CG1_29
REMARK                            x       y       z     vdW  Elec       q    Type
REMARK                         _______ _______ _______ _____ _____    ______ ____
ROOT
ATOM      1  CA  UNL     1     -33.454  26.880   3.407  0.00  0.00    +0.149 C 
ENDROOT
BRANCH   1   8
ATOM      2  O   UNL     1     -33.787  28.995   2.366  0.00  0.00    -0.273 OA
ATOM      3  N   UNL     1     -32.569  28.967   4.334  0.00  0.00    -0.270 N 
ATOM      4  CA  UNL     1     -32.458  30.412   4.482  0.00  0.00    +0.175 C 
ATOM      5  CB  UNL     1     -32.004  30.620   5.922  0.00  0.00    +0.033 C 
ATOM      6  CD  UNL     1     -31.971  28.273   5.472  0.00  0.00    +0.094 C 
ATOM      7  CG  UNL     1     -31.213  29.351   6.232  0.00  0.00    +0.024 C 
ATOM      8  C   UNL     1     -33.296  28.377   3.311  0.00  0.00    +0.244 C 
BRANCH   4  10
ATOM      9  OXT UNL     1     -30.223  30.694   3.606  0.00  0.00    -0.248 OA
ATOM     10  C   UNL     1     -31.426  30.879   3.500  0.00  0.00    +0.332 C 
BRANCH  10  11
ATOM     11  O   UNL     1     -32.009  31.540   2.470  0.00  0.00    -0.479 OA
ATOM     12  H   UNL     1     -31.485  32.056   1.889  0.00  0.00    +0.295 HD
ENDBRANCH  10  11
ENDBRANCH   4  10
ENDBRANCH   1   8
BRANCH   1  14
ATOM     13  O   UNL     1     -35.374  25.519   5.115  0.00  0.00    -0.272 OA
ATOM     14  N   UNL     1     -34.834  26.607   3.127  0.00  0.00    -0.296 N 
ATOM     15  C   ACE A   0     -35.679  25.948   4.009  0.00  0.00    +0.253 C 
ATOM     16  H   UNL     1     -35.201  26.904   2.264  0.00  0.00    +0.150 HD
BRANCH  15  18
ATOM     17  O   UNL     1     -37.849  24.826   4.257  0.00  0.00    -0.335 OA
ATOM     18  C   UNL     1     -37.075  25.773   3.511  0.00  0.00    +0.227 C 
ATOM     19  C   UNL     1     -37.522  24.473   2.908  0.00  0.00    +0.227 C 
BRANCH  19  22
ATOM     20  O   UNL     1     -35.953  23.171   1.782  0.00  0.00    -0.272 OA
ATOM     21  N   UNL     1     -36.521  22.575   3.960  0.00  0.00    -0.302 N 
ATOM     22  C   UNL     1     -36.585  23.348   2.816  0.00  0.00    +0.253 C 
ATOM     23  H   UNL     1     -37.085  22.825   4.727  0.00  0.00    +0.150 HD
BRANCH  21  24
ATOM     24  C   UNL     1     -35.665  21.417   4.084  0.00  0.00    +0.089 C 
BRANCH  24  25
ATOM     25  C   UNL     1     -34.851  21.434   5.372  0.00  0.00    +0.021 C 
ATOM     26  C   UNL     1     -35.573  22.135   6.515  0.00  0.00    +0.002 C 
ENDBRANCH  24  25
ENDBRANCH  21  24
ENDBRANCH  19  22
ENDBRANCH  15  18
ENDBRANCH   1  14
BRANCH   1  27
ATOM     27  CB  UNL     1     -32.462  26.147   2.488  0.00  0.00    +0.027 C 
ATOM     28  CG2 UNL     1     -33.235  25.383   1.405  0.00  0.00    +0.002 C 
BRANCH  27  29
ATOM     29  CG1 UNL     1     -31.405  27.090   1.870  0.00  0.00    +0.002 C 
ATOM     30  CD1 UNL     1     -30.010  26.905   2.454  0.00  0.00    +0.000 C 
ENDBRANCH  27  29
ENDBRANCH   1  27
TORSDOF 10
ENDMDL
