MODEL 1
REMARK VINA RESULT:      -7.2      0.000      0.000
REMARK  Name = 52921505
REMARK  8 active torsions:
REMARK  status: ('A' for Active; 'I' for Inactive)
REMARK    1  A    between atoms: C_3  and  C_16
REMARK    2  A    between atoms: C_11  and  C_32
REMARK    3  A    between atoms: C_16  and  O_17
REMARK    4  A    between atoms: O_17  and  C_23
REMARK    5  A    between atoms: C_19  and  O_25
REMARK    6  A    between atoms: C_20  and  O_27
REMARK    7  A    between atoms: C_21  and  O_29
REMARK    8  A    between atoms: C_32  and  O_33
REMARK                            x       y       z     vdW  Elec       q    Type
REMARK                         _______ _______ _______ _____ _____    ______ ____
ROOT
ATOM      1  N   UNL     1     -37.576  22.870   3.065  0.00  0.00    -0.400 NA
ATOM      2  N   UNL     1     -38.294  25.481   3.566  0.00  0.00    -0.401 NA
ATOM      3  C   UNL     1     -35.671  23.124   4.462  0.00  0.00    +0.175 C 
ATOM      4  C   UNL     1     -36.824  23.638   3.870  0.00  0.00    +0.149 C 
ATOM      5  C   UNL     1     -37.189  24.963   4.124  0.00  0.00    +0.139 C 
ATOM      6  C   UNL     1     -34.878  23.905   5.299  0.00  0.00    -0.012 C 
ATOM      7  C   UNL     1     -38.682  23.387   2.507  0.00  0.00    +0.161 C 
ATOM      8  C   UNL     1     -39.047  24.714   2.762  0.00  0.00    +0.167 C 
ATOM      9  C   UNL     1     -36.391  25.738   4.964  0.00  0.00    +0.087 C 
ATOM     10  C   UNL     1     -35.240  25.219   5.552  0.00  0.00    -0.022 C 
ATOM     11  C   UNL     1     -40.199  25.227   2.170  0.00  0.00    +0.107 C 
ATOM     12  C   UNL     1     -39.479  22.612   1.668  0.00  0.00    +0.035 C 
ATOM     13  C   UNL     1     -40.993  24.447   1.332  0.00  0.00    +0.009 C 
ATOM     14  C   UNL     1     -40.631  23.131   1.079  0.00  0.00    +0.003 C 
ENDROOT
BRANCH   3  16
ATOM     15  O   UNL     1     -35.163  20.883   5.096  0.00  0.00    -0.249 OA
ATOM     16  C   UNL     1     -35.255  21.720   4.213  0.00  0.00    +0.329 C 
BRANCH  16  17
ATOM     17  O   UNL     1     -35.001  21.521   2.891  0.00  0.00    -0.421 OA
BRANCH  17  23
ATOM     18  O   UNL     1     -34.028  19.624   1.849  0.00  0.00    -0.319 OA
ATOM     19  C   UNL     1     -35.910  20.890   0.088  0.00  0.00    +0.173 C 
ATOM     20  C   UNL     1     -34.599  20.298  -0.432  0.00  0.00    +0.167 C 
ATOM     21  C   UNL     1     -36.346  20.200   1.382  0.00  0.00    +0.211 C 
ATOM     22  C   UNL     1     -33.543  20.297   0.682  0.00  0.00    +0.148 C 
ATOM     23  C   UNL     1     -35.214  20.199   2.407  0.00  0.00    +0.320 C 
ATOM     24  C   UNL     1     -32.263  19.583   0.256  0.00  0.00    +0.035 C 
BRANCH  19  25
ATOM     25  O   UNL     1     -36.921  20.738  -0.907  0.00  0.00    -0.379 OA
ATOM     26  H   UNL     1     -37.608  21.408  -0.774  0.00  0.00    +0.211 HD
ENDBRANCH  19  25
BRANCH  20  27
ATOM     27  O   UNL     1     -34.157  21.095  -1.528  0.00  0.00    -0.379 OA
ATOM     28  H   UNL     1     -33.351  21.571  -1.277  0.00  0.00    +0.211 HD
ENDBRANCH  20  27
BRANCH  21  29
ATOM     29  O   UNL     1     -36.694  18.840   1.117  0.00  0.00    -0.377 OA
ATOM     30  H   UNL     1     -36.039  18.254   1.526  0.00  0.00    +0.211 HD
ENDBRANCH  21  29
ENDBRANCH  17  23
ENDBRANCH  16  17
ENDBRANCH   3  16
BRANCH  11  32
ATOM     31  O   UNL     1     -40.761  27.468   1.544  0.00  0.00    -0.245 OA
ATOM     32  C   UNL     1     -40.609  26.605   2.414  0.00  0.00    +0.341 C 
BRANCH  32  33
ATOM     33  O   UNL     1     -40.815  26.858   3.734  0.00  0.00    -0.477 OA
ATOM     34  H   UNL     1     -41.627  26.619   4.135  0.00  0.00    +0.295 HD
ENDBRANCH  32  33
ENDBRANCH  11  32
TORSDOF 8
ENDMDL
MODEL 2
REMARK VINA RESULT:      -7.1      2.589      8.589
REMARK  Name = 52921505
REMARK  8 active torsions:
REMARK  status: ('A' for Active; 'I' for Inactive)
REMARK    1  A    between atoms: C_3  and  C_16
REMARK    2  A    between atoms: C_11  and  C_32
REMARK    3  A    between atoms: C_16  and  O_17
REMARK    4  A    between atoms: O_17  and  C_23
REMARK    5  A    between atoms: C_19  and  O_25
REMARK    6  A    between atoms: C_20  and  O_27
REMARK    7  A    between atoms: C_21  and  O_29
REMARK    8  A    between atoms: C_32  and  O_33
REMARK                            x       y       z     vdW  Elec       q    Type
REMARK                         _______ _______ _______ _____ _____    ______ ____
ROOT
ATOM      1  N   UNL     1     -37.841  25.348   3.269  0.00  0.00    -0.400 NA
ATOM      2  N   UNL     1     -37.428  22.626   3.225  0.00  0.00    -0.401 NA
ATOM      3  C   UNL     1     -39.653  25.099   1.754  0.00  0.00    +0.175 C 
ATOM      4  C   UNL     1     -38.623  24.555   2.518  0.00  0.00    +0.149 C 
ATOM      5  C   UNL     1     -38.413  23.173   2.497  0.00  0.00    +0.139 C 
ATOM      6  C   UNL     1     -40.475  24.294   0.969  0.00  0.00    -0.012 C 
ATOM      7  C   UNL     1     -36.855  24.800   3.997  0.00  0.00    +0.161 C 
ATOM      8  C   UNL     1     -36.646  23.417   3.975  0.00  0.00    +0.167 C 
ATOM      9  C   UNL     1     -39.240  22.373   1.710  0.00  0.00    +0.087 C 
ATOM     10  C   UNL     1     -40.267  22.923   0.947  0.00  0.00    -0.022 C 
ATOM     11  C   UNL     1     -35.616  22.874   4.740  0.00  0.00    +0.107 C 
ATOM     12  C   UNL     1     -36.030  25.600   4.784  0.00  0.00    +0.035 C 
ATOM     13  C   UNL     1     -34.793  23.679   5.525  0.00  0.00    +0.009 C 
ATOM     14  C   UNL     1     -35.002  25.050   5.548  0.00  0.00    +0.003 C 
ENDROOT
BRANCH   3  16
ATOM     15  O   UNL     1     -39.264  27.352   1.077  0.00  0.00    -0.249 OA
ATOM     16  C   UNL     1     -39.904  26.563   1.754  0.00  0.00    +0.329 C 
BRANCH  16  17
ATOM     17  O   UNL     1     -40.925  26.875   2.598  0.00  0.00    -0.421 OA
BRANCH  17  23
ATOM     18  O   UNL     1     -42.366  28.723   2.980  0.00  0.00    -0.319 OA
ATOM     19  C   UNL     1     -43.870  26.280   2.834  0.00  0.00    +0.173 C 
ATOM     20  C   UNL     1     -44.230  27.385   3.828  0.00  0.00    +0.167 C 
ATOM     21  C   UNL     1     -43.133  26.853   1.622  0.00  0.00    +0.211 C 
ATOM     22  C   UNL     1     -42.985  28.216   4.168  0.00  0.00    +0.148 C 
ATOM     23  C   UNL     1     -41.946  27.709   2.060  0.00  0.00    +0.320 C 
ATOM     24  C   UNL     1     -43.322  29.420   5.042  0.00  0.00    +0.035 C 
BRANCH  19  25
ATOM     25  O   UNL     1     -45.062  25.622   2.411  0.00  0.00    -0.379 OA
ATOM     26  H   UNL     1     -45.108  24.744   2.819  0.00  0.00    +0.211 HD
ENDBRANCH  19  25
BRANCH  20  27
ATOM     27  O   UNL     1     -44.748  26.770   5.005  0.00  0.00    -0.379 OA
ATOM     28  H   UNL     1     -45.364  26.063   4.756  0.00  0.00    +0.211 HD
ENDBRANCH  20  27
BRANCH  21  29
ATOM     29  O   UNL     1     -44.014  27.687   0.866  0.00  0.00    -0.377 OA
ATOM     30  H   UNL     1     -44.843  27.213   0.700  0.00  0.00    +0.211 HD
ENDBRANCH  21  29
ENDBRANCH  17  23
ENDBRANCH  16  17
ENDBRANCH   3  16
BRANCH  11  32
ATOM     31  O   UNL     1     -35.100  20.759   3.745  0.00  0.00    -0.245 OA
ATOM     32  C   UNL     1     -35.369  21.436   4.741  0.00  0.00    +0.341 C 
BRANCH  32  33
ATOM     33  O   UNL     1     -35.468  20.895   5.984  0.00  0.00    -0.477 OA
ATOM     34  H   UNL     1     -34.924  20.171   6.224  0.00  0.00    +0.295 HD
ENDBRANCH  32  33
ENDBRANCH  11  32
TORSDOF 8
ENDMDL
MODEL 3
REMARK VINA RESULT:      -7.0      3.223      5.692
REMARK  Name = 52921505
REMARK  8 active torsions:
REMARK  status: ('A' for Active; 'I' for Inactive)
REMARK    1  A    between atoms: C_3  and  C_16
REMARK    2  A    between atoms: C_11  and  C_32
REMARK    3  A    between atoms: C_16  and  O_17
REMARK    4  A    between atoms: O_17  and  C_23
REMARK    5  A    between atoms: C_19  and  O_25
REMARK    6  A    between atoms: C_20  and  O_27
REMARK    7  A    between atoms: C_21  and  O_29
REMARK    8  A    between atoms: C_32  and  O_33
REMARK                            x       y       z     vdW  Elec       q    Type
REMARK                         _______ _______ _______ _____ _____    ______ ____
ROOT
ATOM      1  N   UNL     1     -37.063  25.815   3.267  0.00  0.00    -0.400 NA
ATOM      2  N   UNL     1     -35.069  27.576   2.557  0.00  0.00    -0.401 NA
ATOM      3  C   UNL     1     -38.260  26.369   1.292  0.00  0.00    +0.175 C 
ATOM      4  C   UNL     1     -37.155  26.520   2.129  0.00  0.00    +0.149 C 
ATOM      5  C   UNL     1     -36.142  27.413   1.768  0.00  0.00    +0.139 C 
ATOM      6  C   UNL     1     -38.373  27.092   0.106  0.00  0.00    -0.012 C 
ATOM      7  C   UNL     1     -35.990  25.977   4.057  0.00  0.00    +0.161 C 
ATOM      8  C   UNL     1     -34.976  26.871   3.696  0.00  0.00    +0.167 C 
ATOM      9  C   UNL     1     -36.261  28.132   0.579  0.00  0.00    +0.087 C 
ATOM     10  C   UNL     1     -37.369  27.978  -0.252  0.00  0.00    -0.022 C 
ATOM     11  C   UNL     1     -33.872  27.021   4.532  0.00  0.00    +0.107 C 
ATOM     12  C   UNL     1     -35.870  25.259   5.244  0.00  0.00    +0.035 C 
ATOM     13  C   UNL     1     -33.758  26.299   5.719  0.00  0.00    +0.009 C 
ATOM     14  C   UNL     1     -34.763  25.413   6.077  0.00  0.00    +0.003 C 
ENDROOT
BRANCH   3  16
ATOM     15  O   UNL     1     -40.376  25.776   2.213  0.00  0.00    -0.249 OA
ATOM     16  C   UNL     1     -39.353  25.429   1.645  0.00  0.00    +0.329 C 
BRANCH  16  17
ATOM     17  O   UNL     1     -39.046  24.164   1.248  0.00  0.00    -0.421 OA
BRANCH  17  23
ATOM     18  O   UNL     1     -38.198  22.835   3.022  0.00  0.00    -0.319 OA
ATOM     19  C   UNL     1     -38.642  21.232   0.681  0.00  0.00    +0.173 C 
ATOM     20  C   UNL     1     -37.434  21.005   1.590  0.00  0.00    +0.167 C 
ATOM     21  C   UNL     1     -39.794  21.877   1.453  0.00  0.00    +0.211 C 
ATOM     22  C   UNL     1     -37.069  22.307   2.318  0.00  0.00    +0.148 C 
ATOM     23  C   UNL     1     -39.323  23.131   2.188  0.00  0.00    +0.320 C 
ATOM     24  C   UNL     1     -35.962  22.096   3.346  0.00  0.00    +0.035 C 
BRANCH  19  25
ATOM     25  O   UNL     1     -39.062  19.982   0.138  0.00  0.00    -0.379 OA
ATOM     26  H   UNL     1     -38.899  19.974  -0.818  0.00  0.00    +0.211 HD
ENDBRANCH  19  25
BRANCH  20  27
ATOM     27  O   UNL     1     -36.344  20.572   0.779  0.00  0.00    -0.379 OA
ATOM     28  H   UNL     1     -35.622  20.261   1.348  0.00  0.00    +0.211 HD
ENDBRANCH  20  27
BRANCH  21  29
ATOM     29  O   UNL     1     -40.298  20.965   2.430  0.00  0.00    -0.377 OA
ATOM     30  H   UNL     1     -41.095  20.533   2.086  0.00  0.00    +0.211 HD
ENDBRANCH  21  29
ENDBRANCH  17  23
ENDBRANCH  16  17
ENDBRANCH   3  16
BRANCH  11  32
ATOM     31  O   UNL     1     -31.626  27.623   3.962  0.00  0.00    -0.245 OA
ATOM     32  C   UNL     1     -32.797  27.944   4.186  0.00  0.00    +0.341 C 
BRANCH  32  33
ATOM     33  O   UNL     1     -33.220  29.235   4.132  0.00  0.00    -0.477 OA
ATOM     34  H   UNL     1     -33.360  29.715   4.924  0.00  0.00    +0.295 HD
ENDBRANCH  32  33
ENDBRANCH  11  32
TORSDOF 8
ENDMDL
MODEL 4
REMARK VINA RESULT:      -6.9      5.217      8.203
REMARK  Name = 52921505
REMARK  8 active torsions:
REMARK  status: ('A' for Active; 'I' for Inactive)
REMARK    1  A    between atoms: C_3  and  C_16
REMARK    2  A    between atoms: C_11  and  C_32
REMARK    3  A    between atoms: C_16  and  O_17
REMARK    4  A    between atoms: O_17  and  C_23
REMARK    5  A    between atoms: C_19  and  O_25
REMARK    6  A    between atoms: C_20  and  O_27
REMARK    7  A    between atoms: C_21  and  O_29
REMARK    8  A    between atoms: C_32  and  O_33
REMARK                            x       y       z     vdW  Elec       q    Type
REMARK                         _______ _______ _______ _____ _____    ______ ____
ROOT
ATOM      1  N   UNL     1     -34.597  25.540   3.951  0.00  0.00    -0.400 NA
ATOM      2  N   UNL     1     -35.039  23.543   2.108  0.00  0.00    -0.401 NA
ATOM      3  C   UNL     1     -34.214  27.085   2.188  0.00  0.00    +0.175 C 
ATOM      4  C   UNL     1     -34.519  25.801   2.636  0.00  0.00    +0.149 C 
ATOM      5  C   UNL     1     -34.744  24.787   1.701  0.00  0.00    +0.139 C 
ATOM      6  C   UNL     1     -34.128  27.375   0.829  0.00  0.00    -0.012 C 
ATOM      7  C   UNL     1     -34.893  24.295   4.358  0.00  0.00    +0.161 C 
ATOM      8  C   UNL     1     -35.117  23.281   3.422  0.00  0.00    +0.167 C 
ATOM      9  C   UNL     1     -34.656  25.085   0.342  0.00  0.00    +0.087 C 
ATOM     10  C   UNL     1     -34.350  26.370  -0.099  0.00  0.00    -0.022 C 
ATOM     11  C   UNL     1     -35.422  21.997   3.870  0.00  0.00    +0.107 C 
ATOM     12  C   UNL     1     -34.979  23.998   5.717  0.00  0.00    +0.035 C 
ATOM     13  C   UNL     1     -35.508  21.706   5.230  0.00  0.00    +0.009 C 
ATOM     14  C   UNL     1     -35.286  22.712   6.159  0.00  0.00    +0.003 C 
ENDROOT
BRANCH   3  16
ATOM     15  O   UNL     1     -34.766  29.089   3.356  0.00  0.00    -0.249 OA
ATOM     16  C   UNL     1     -33.970  28.185   3.155  0.00  0.00    +0.329 C 
BRANCH  16  17
ATOM     17  O   UNL     1     -32.760  28.033   3.761  0.00  0.00    -0.421 OA
BRANCH  17  23
ATOM     18  O   UNL     1     -30.621  29.054   3.644  0.00  0.00    -0.319 OA
ATOM     19  C   UNL     1     -31.462  28.780   6.376  0.00  0.00    +0.173 C 
ATOM     20  C   UNL     1     -30.007  28.562   5.960  0.00  0.00    +0.167 C 
ATOM     21  C   UNL     1     -32.178  29.711   5.397  0.00  0.00    +0.211 C 
ATOM     22  C   UNL     1     -29.939  28.123   4.491  0.00  0.00    +0.148 C 
ATOM     23  C   UNL     1     -32.007  29.225   3.958  0.00  0.00    +0.320 C 
ATOM     24  C   UNL     1     -28.501  28.034   3.987  0.00  0.00    +0.035 C 
BRANCH  19  25
ATOM     25  O   UNL     1     -31.497  29.337   7.689  0.00  0.00    -0.379 OA
ATOM     26  H   UNL     1     -31.411  28.626   8.343  0.00  0.00    +0.211 HD
ENDBRANCH  19  25
BRANCH  20  27
ATOM     27  O   UNL     1     -29.451  27.554   6.801  0.00  0.00    -0.379 OA
ATOM     28  H   UNL     1     -29.406  26.717   6.315  0.00  0.00    +0.211 HD
ENDBRANCH  20  27
BRANCH  21  29
ATOM     29  O   UNL     1     -31.623  31.026   5.480  0.00  0.00    -0.377 OA
ATOM     30  H   UNL     1     -30.783  30.991   5.962  0.00  0.00    +0.211 HD
ENDBRANCH  21  29
ENDBRANCH  17  23
ENDBRANCH  16  17
ENDBRANCH   3  16
BRANCH  11  32
ATOM     31  O   UNL     1     -34.837  20.060   2.592  0.00  0.00    -0.245 OA
ATOM     32  C   UNL     1     -35.663  20.916   2.921  0.00  0.00    +0.341 C 
BRANCH  32  33
ATOM     33  O   UNL     1     -36.925  20.941   2.418  0.00  0.00    -0.477 OA
ATOM     34  H   UNL     1     -37.302  21.753   2.140  0.00  0.00    +0.295 HD
ENDBRANCH  32  33
ENDBRANCH  11  32
TORSDOF 8
ENDMDL
MODEL 5
REMARK VINA RESULT:      -6.9      2.706      5.009
REMARK  Name = 52921505
REMARK  8 active torsions:
REMARK  status: ('A' for Active; 'I' for Inactive)
REMARK    1  A    between atoms: C_3  and  C_16
REMARK    2  A    between atoms: C_11  and  C_32
REMARK    3  A    between atoms: C_16  and  O_17
REMARK    4  A    between atoms: O_17  and  C_23
REMARK    5  A    between atoms: C_19  and  O_25
REMARK    6  A    between atoms: C_20  and  O_27
REMARK    7  A    between atoms: C_21  and  O_29
REMARK    8  A    between atoms: C_32  and  O_33
REMARK                            x       y       z     vdW  Elec       q    Type
REMARK                         _______ _______ _______ _____ _____    ______ ____
ROOT
ATOM      1  N   UNL     1     -35.752  21.207   2.927  0.00  0.00    -0.400 NA
ATOM      2  N   UNL     1     -36.149  23.928   2.777  0.00  0.00    -0.401 NA
ATOM      3  C   UNL     1     -36.242  21.005   0.612  0.00  0.00    +0.175 C 
ATOM      4  C   UNL     1     -36.089  21.780   1.761  0.00  0.00    +0.149 C 
ATOM      5  C   UNL     1     -36.290  23.161   1.685  0.00  0.00    +0.139 C 
ATOM      6  C   UNL     1     -36.591  21.581  -0.607  0.00  0.00    -0.012 C 
ATOM      7  C   UNL     1     -35.610  21.974   4.020  0.00  0.00    +0.161 C 
ATOM      8  C   UNL     1     -35.812  23.356   3.944  0.00  0.00    +0.167 C 
ATOM      9  C   UNL     1     -36.639  23.731   0.461  0.00  0.00    +0.087 C 
ATOM     10  C   UNL     1     -36.791  22.951  -0.683  0.00  0.00    -0.022 C 
ATOM     11  C   UNL     1     -35.659  24.130   5.092  0.00  0.00    +0.107 C 
ATOM     12  C   UNL     1     -35.262  21.404   5.243  0.00  0.00    +0.035 C 
ATOM     13  C   UNL     1     -35.309  23.555   6.313  0.00  0.00    +0.009 C 
ATOM     14  C   UNL     1     -35.109  22.184   6.388  0.00  0.00    +0.003 C 
ENDROOT
BRANCH   3  16
ATOM     15  O   UNL     1     -36.903  18.729   0.363  0.00  0.00    -0.249 OA
ATOM     16  C   UNL     1     -36.036  19.536   0.658  0.00  0.00    +0.329 C 
BRANCH  16  17
ATOM     17  O   UNL     1     -34.771  19.240   1.065  0.00  0.00    -0.421 OA
BRANCH  17  23
ATOM     18  O   UNL     1     -33.895  18.551  -1.031  0.00  0.00    -0.319 OA
ATOM     19  C   UNL     1     -32.145  17.762   1.105  0.00  0.00    +0.173 C 
ATOM     20  C   UNL     1     -32.392  16.858  -0.103  0.00  0.00    +0.167 C 
ATOM     21  C   UNL     1     -32.377  19.231   0.747  0.00  0.00    +0.211 C 
ATOM     22  C   UNL     1     -33.767  17.160  -0.715  0.00  0.00    +0.148 C 
ATOM     23  C   UNL     1     -33.745  19.423   0.094  0.00  0.00    +0.320 C 
ATOM     24  C   UNL     1     -33.999  16.387  -2.010  0.00  0.00    +0.035 C 
BRANCH  19  25
ATOM     25  O   UNL     1     -30.806  17.580   1.562  0.00  0.00    -0.379 OA
ATOM     26  H   UNL     1     -30.195  17.676   0.815  0.00  0.00    +0.211 HD
ENDBRANCH  19  25
BRANCH  20  27
ATOM     27  O   UNL     1     -32.335  15.504   0.337  0.00  0.00    -0.379 OA
ATOM     28  H   UNL     1     -31.743  15.438   1.103  0.00  0.00    +0.211 HD
ENDBRANCH  20  27
BRANCH  21  29
ATOM     29  O   UNL     1     -31.386  19.668  -0.185  0.00  0.00    -0.377 OA
ATOM     30  H   UNL     1     -30.506  19.572   0.211  0.00  0.00    +0.211 HD
ENDBRANCH  21  29
ENDBRANCH  17  23
ENDBRANCH  16  17
ENDBRANCH   3  16
BRANCH  11  32
ATOM     31  O   UNL     1     -34.986  26.422   5.247  0.00  0.00    -0.245 OA
ATOM     32  C   UNL     1     -35.861  25.574   5.049  0.00  0.00    +0.341 C 
BRANCH  32  33
ATOM     33  O   UNL     1     -37.146  25.908   4.759  0.00  0.00    -0.477 OA
ATOM     34  H   UNL     1     -37.809  25.246   4.742  0.00  0.00    +0.295 HD
ENDBRANCH  32  33
ENDBRANCH  11  32
TORSDOF 8
ENDMDL
MODEL 6
REMARK VINA RESULT:      -6.9      3.041      5.202
REMARK  Name = 52921505
REMARK  8 active torsions:
REMARK  status: ('A' for Active; 'I' for Inactive)
REMARK    1  A    between atoms: C_3  and  C_16
REMARK    2  A    between atoms: C_11  and  C_32
REMARK    3  A    between atoms: C_16  and  O_17
REMARK    4  A    between atoms: O_17  and  C_23
REMARK    5  A    between atoms: C_19  and  O_25
REMARK    6  A    between atoms: C_20  and  O_27
REMARK    7  A    between atoms: C_21  and  O_29
REMARK    8  A    between atoms: C_32  and  O_33
REMARK                            x       y       z     vdW  Elec       q    Type
REMARK                         _______ _______ _______ _____ _____    ______ ____
ROOT
ATOM      1  N   UNL     1     -37.923  23.616   3.302  0.00  0.00    -0.400 NA
ATOM      2  N   UNL     1     -38.703  22.088   1.148  0.00  0.00    -0.401 NA
ATOM      3  C   UNL     1     -36.040  22.204   3.625  0.00  0.00    +0.175 C 
ATOM      4  C   UNL     1     -37.197  22.550   2.928  0.00  0.00    +0.149 C 
ATOM      5  C   UNL     1     -37.593  21.775   1.834  0.00  0.00    +0.139 C 
ATOM      6  C   UNL     1     -35.274  21.102   3.252  0.00  0.00    -0.012 C 
ATOM      7  C   UNL     1     -39.033  23.929   2.615  0.00  0.00    +0.161 C 
ATOM      8  C   UNL     1     -39.429  23.153   1.521  0.00  0.00    +0.167 C 
ATOM      9  C   UNL     1     -36.821  20.674   1.467  0.00  0.00    +0.087 C 
ATOM     10  C   UNL     1     -35.666  20.333   2.167  0.00  0.00    -0.022 C 
ATOM     11  C   UNL     1     -40.585  23.500   0.825  0.00  0.00    +0.107 C 
ATOM     12  C   UNL     1     -39.805  25.030   2.983  0.00  0.00    +0.035 C 
ATOM     13  C   UNL     1     -41.353  24.602   1.197  0.00  0.00    +0.009 C 
ATOM     14  C   UNL     1     -40.960  25.372   2.282  0.00  0.00    +0.003 C 
ENDROOT
BRANCH   3  16
ATOM     15  O   UNL     1     -36.018  22.839   5.922  0.00  0.00    -0.249 OA
ATOM     16  C   UNL     1     -35.591  23.006   4.791  0.00  0.00    +0.329 C 
BRANCH  16  17
ATOM     17  O   UNL     1     -34.661  23.925   4.413  0.00  0.00    -0.421 OA
BRANCH  17  23
ATOM     18  O   UNL     1     -34.656  25.339   2.507  0.00  0.00    -0.319 OA
ATOM     19  C   UNL     1     -33.357  26.624   4.723  0.00  0.00    +0.173 C 
ATOM     20  C   UNL     1     -32.837  26.773   3.293  0.00  0.00    +0.167 C 
ATOM     21  C   UNL     1     -34.854  26.311   4.731  0.00  0.00    +0.211 C 
ATOM     22  C   UNL     1     -33.241  25.553   2.454  0.00  0.00    +0.148 C 
ATOM     23  C   UNL     1     -35.167  25.120   3.826  0.00  0.00    +0.320 C 
ATOM     24  C   UNL     1     -32.871  25.722   0.983  0.00  0.00    +0.035 C 
BRANCH  19  25
ATOM     25  O   UNL     1     -33.110  27.831   5.441  0.00  0.00    -0.379 OA
ATOM     26  H   UNL     1     -33.379  28.589   4.899  0.00  0.00    +0.211 HD
ENDBRANCH  19  25
BRANCH  20  27
ATOM     27  O   UNL     1     -31.416  26.885   3.348  0.00  0.00    -0.379 OA
ATOM     28  H   UNL     1     -31.097  26.534   4.193  0.00  0.00    +0.211 HD
ENDBRANCH  20  27
BRANCH  21  29
ATOM     29  O   UNL     1     -35.590  27.433   4.240  0.00  0.00    -0.377 OA
ATOM     30  H   UNL     1     -36.539  27.274   4.361  0.00  0.00    +0.211 HD
ENDBRANCH  21  29
ENDBRANCH  17  23
ENDBRANCH  16  17
ENDBRANCH   3  16
BRANCH  11  32
ATOM     31  O   UNL     1     -41.033  23.102  -1.493  0.00  0.00    -0.245 OA
ATOM     32  C   UNL     1     -41.027  22.713  -0.321  0.00  0.00    +0.341 C 
BRANCH  32  33
ATOM     33  O   UNL     1     -41.446  21.470   0.035  0.00  0.00    -0.477 OA
ATOM     34  H   UNL     1     -40.860  20.742  -0.032  0.00  0.00    +0.295 HD
ENDBRANCH  32  33
ENDBRANCH  11  32
TORSDOF 8
ENDMDL
MODEL 7
REMARK VINA RESULT:      -6.7      2.129      4.439
REMARK  Name = 52921505
REMARK  8 active torsions:
REMARK  status: ('A' for Active; 'I' for Inactive)
REMARK    1  A    between atoms: C_3  and  C_16
REMARK    2  A    between atoms: C_11  and  C_32
REMARK    3  A    between atoms: C_16  and  O_17
REMARK    4  A    between atoms: O_17  and  C_23
REMARK    5  A    between atoms: C_19  and  O_25
REMARK    6  A    between atoms: C_20  and  O_27
REMARK    7  A    between atoms: C_21  and  O_29
REMARK    8  A    between atoms: C_32  and  O_33
REMARK                            x       y       z     vdW  Elec       q    Type
REMARK                         _______ _______ _______ _____ _____    ______ ____
ROOT
ATOM      1  N   UNL     1     -37.632  22.551   2.803  0.00  0.00    -0.400 NA
ATOM      2  N   UNL     1     -37.338  25.205   3.474  0.00  0.00    -0.401 NA
ATOM      3  C   UNL     1     -39.352  23.126   1.269  0.00  0.00    +0.175 C 
ATOM      4  C   UNL     1     -38.399  23.486   2.220  0.00  0.00    +0.149 C 
ATOM      5  C   UNL     1     -38.249  24.834   2.560  0.00  0.00    +0.139 C 
ATOM      6  C   UNL     1     -40.156  24.083   0.653  0.00  0.00    -0.012 C 
ATOM      7  C   UNL     1     -36.721  22.921   3.717  0.00  0.00    +0.161 C 
ATOM      8  C   UNL     1     -36.572  24.270   4.057  0.00  0.00    +0.167 C 
ATOM      9  C   UNL     1     -39.057  25.785   1.940  0.00  0.00    +0.087 C 
ATOM     10  C   UNL     1     -40.008  25.419   0.990  0.00  0.00    -0.022 C 
ATOM     11  C   UNL     1     -35.619  24.629   5.008  0.00  0.00    +0.107 C 
ATOM     12  C   UNL     1     -35.914  21.970   4.337  0.00  0.00    +0.035 C 
ATOM     13  C   UNL     1     -34.814  23.673   5.625  0.00  0.00    +0.009 C 
ATOM     14  C   UNL     1     -34.962  22.336   5.287  0.00  0.00    +0.003 C 
ENDROOT
BRANCH   3  16
ATOM     15  O   UNL     1     -40.427  21.000   1.332  0.00  0.00    -0.249 OA
ATOM     16  C   UNL     1     -39.537  21.705   0.884  0.00  0.00    +0.329 C 
BRANCH  16  17
ATOM     17  O   UNL     1     -38.590  21.323  -0.017  0.00  0.00    -0.421 OA
BRANCH  17  23
ATOM     18  O   UNL     1     -37.062  19.749   0.889  0.00  0.00    -0.319 OA
ATOM     19  C   UNL     1     -36.626  20.075  -1.931  0.00  0.00    +0.173 C 
ATOM     20  C   UNL     1     -35.462  19.899  -0.955  0.00  0.00    +0.167 C 
ATOM     21  C   UNL     1     -37.905  19.448  -1.375  0.00  0.00    +0.211 C 
ATOM     22  C   UNL     1     -35.865  20.394   0.441  0.00  0.00    +0.148 C 
ATOM     23  C   UNL     1     -38.194  19.957   0.036  0.00  0.00    +0.320 C 
ATOM     24  C   UNL     1     -34.788  20.105   1.483  0.00  0.00    +0.035 C 
BRANCH  19  25
ATOM     25  O   UNL     1     -36.290  19.467  -3.177  0.00  0.00    -0.379 OA
ATOM     26  H   UNL     1     -36.457  20.095  -3.897  0.00  0.00    +0.211 HD
ENDBRANCH  19  25
BRANCH  20  27
ATOM     27  O   UNL     1     -34.355  20.653  -1.444  0.00  0.00    -0.379 OA
ATOM     28  H   UNL     1     -34.681  21.443  -1.903  0.00  0.00    +0.211 HD
ENDBRANCH  20  27
BRANCH  21  29
ATOM     29  O   UNL     1     -37.762  18.028  -1.304  0.00  0.00    -0.377 OA
ATOM     30  H   UNL     1     -38.234  17.695  -0.525  0.00  0.00    +0.211 HD
ENDBRANCH  21  29
ENDBRANCH  17  23
ENDBRANCH  16  17
ENDBRANCH   3  16
BRANCH  11  32
ATOM     31  O   UNL     1     -34.357  26.625   5.400  0.00  0.00    -0.245 OA
ATOM     32  C   UNL     1     -35.436  26.026   5.387  0.00  0.00    +0.341 C 
BRANCH  32  33
ATOM     33  O   UNL     1     -36.605  26.625   5.735  0.00  0.00    -0.477 OA
ATOM     34  H   UNL     1     -36.851  27.437   5.339  0.00  0.00    +0.295 HD
ENDBRANCH  32  33
ENDBRANCH  11  32
TORSDOF 8
ENDMDL
MODEL 8
REMARK VINA RESULT:      -6.7      2.839      4.802
REMARK  Name = 52921505
REMARK  8 active torsions:
REMARK  status: ('A' for Active; 'I' for Inactive)
REMARK    1  A    between atoms: C_3  and  C_16
REMARK    2  A    between atoms: C_11  and  C_32
REMARK    3  A    between atoms: C_16  and  O_17
REMARK    4  A    between atoms: O_17  and  C_23
REMARK    5  A    between atoms: C_19  and  O_25
REMARK    6  A    between atoms: C_20  and  O_27
REMARK    7  A    between atoms: C_21  and  O_29
REMARK    8  A    between atoms: C_32  and  O_33
REMARK                            x       y       z     vdW  Elec       q    Type
REMARK                         _______ _______ _______ _____ _____    ______ ____
ROOT
ATOM      1  N   UNL     1     -35.573  21.373   2.753  0.00  0.00    -0.400 NA
ATOM      2  N   UNL     1     -36.032  24.088   2.732  0.00  0.00    -0.401 NA
ATOM      3  C   UNL     1     -35.934  21.292   0.406  0.00  0.00    +0.175 C 
ATOM      4  C   UNL     1     -35.863  22.003   1.603  0.00  0.00    +0.149 C 
ATOM      5  C   UNL     1     -36.095  23.382   1.593  0.00  0.00    +0.139 C 
ATOM      6  C   UNL     1     -36.233  21.928  -0.796  0.00  0.00    -0.012 C 
ATOM      7  C   UNL     1     -35.510  22.079   3.893  0.00  0.00    +0.161 C 
ATOM      8  C   UNL     1     -35.743  23.459   3.882  0.00  0.00    +0.167 C 
ATOM      9  C   UNL     1     -36.394  24.012   0.386  0.00  0.00    +0.087 C 
ATOM     10  C   UNL     1     -36.464  23.295  -0.807  0.00  0.00    -0.022 C 
ATOM     11  C   UNL     1     -35.671  24.169   5.079  0.00  0.00    +0.107 C 
ATOM     12  C   UNL     1     -35.212  21.450   5.099  0.00  0.00    +0.035 C 
ATOM     13  C   UNL     1     -35.372  23.534   6.282  0.00  0.00    +0.009 C 
ATOM     14  C   UNL     1     -35.141  22.166   6.293  0.00  0.00    +0.003 C 
ENDROOT
BRANCH   3  16
ATOM     15  O   UNL     1     -36.494  19.009   0.803  0.00  0.00    -0.249 OA
ATOM     16  C   UNL     1     -35.692  19.828   0.381  0.00  0.00    +0.329 C 
BRANCH  16  17
ATOM     17  O   UNL     1     -34.478  19.550  -0.167  0.00  0.00    -0.421 OA
BRANCH  17  23
ATOM     18  O   UNL     1     -32.312  20.271   0.483  0.00  0.00    -0.319 OA
ATOM     19  C   UNL     1     -32.214  17.603  -0.578  0.00  0.00    +0.173 C 
ATOM     20  C   UNL     1     -31.109  18.621  -0.864  0.00  0.00    +0.167 C 
ATOM     21  C   UNL     1     -32.931  17.929   0.734  0.00  0.00    +0.211 C 
ATOM     22  C   UNL     1     -31.670  20.047  -0.776  0.00  0.00    +0.148 C 
ATOM     23  C   UNL     1     -33.403  19.382   0.751  0.00  0.00    +0.320 C 
ATOM     24  C   UNL     1     -30.574  21.101  -0.911  0.00  0.00    +0.035 C 
BRANCH  19  25
ATOM     25  O   UNL     1     -31.644  16.298  -0.507  0.00  0.00    -0.379 OA
ATOM     26  H   UNL     1     -31.306  16.046  -1.381  0.00  0.00    +0.211 HD
ENDBRANCH  19  25
BRANCH  20  27
ATOM     27  O   UNL     1     -30.605  18.369  -2.174  0.00  0.00    -0.379 OA
ATOM     28  H   UNL     1     -31.185  17.739  -2.628  0.00  0.00    +0.211 HD
ENDBRANCH  20  27
BRANCH  21  29
ATOM     29  O   UNL     1     -32.039  17.749   1.835  0.00  0.00    -0.377 OA
ATOM     30  H   UNL     1     -31.124  17.794   1.520  0.00  0.00    +0.211 HD
ENDBRANCH  21  29
ENDBRANCH  17  23
ENDBRANCH  16  17
ENDBRANCH   3  16
BRANCH  11  32
ATOM     31  O   UNL     1     -35.075  26.462   5.423  0.00  0.00    -0.245 OA
ATOM     32  C   UNL     1     -35.908  25.608   5.104  0.00  0.00    +0.341 C 
BRANCH  32  33
ATOM     33  O   UNL     1     -37.175  25.930   4.732  0.00  0.00    -0.477 OA
ATOM     34  H   UNL     1     -37.810  26.160   5.382  0.00  0.00    +0.295 HD
ENDBRANCH  32  33
ENDBRANCH  11  32
TORSDOF 8
ENDMDL
MODEL 9
REMARK VINA RESULT:      -6.7      2.988      7.292
REMARK  Name = 52921505
REMARK  8 active torsions:
REMARK  status: ('A' for Active; 'I' for Inactive)
REMARK    1  A    between atoms: C_3  and  C_16
REMARK    2  A    between atoms: C_11  and  C_32
REMARK    3  A    between atoms: C_16  and  O_17
REMARK    4  A    between atoms: O_17  and  C_23
REMARK    5  A    between atoms: C_19  and  O_25
REMARK    6  A    between atoms: C_20  and  O_27
REMARK    7  A    between atoms: C_21  and  O_29
REMARK    8  A    between atoms: C_32  and  O_33
REMARK                            x       y       z     vdW  Elec       q    Type
REMARK                         _______ _______ _______ _____ _____    ______ ____
ROOT
ATOM      1  N   UNL     1     -35.240  20.665   2.192  0.00  0.00    -0.400 NA
ATOM      2  N   UNL     1     -36.842  19.583   0.230  0.00  0.00    -0.401 NA
ATOM      3  C   UNL     1     -36.966  22.194   2.761  0.00  0.00    +0.175 C 
ATOM      4  C   UNL     1     -36.477  21.144   1.985  0.00  0.00    +0.149 C 
ATOM      5  C   UNL     1     -37.290  20.594   0.990  0.00  0.00    +0.139 C 
ATOM      6  C   UNL     1     -38.247  22.705   2.562  0.00  0.00    -0.012 C 
ATOM      7  C   UNL     1     -34.791  19.653   1.432  0.00  0.00    +0.161 C 
ATOM      8  C   UNL     1     -35.605  19.103   0.436  0.00  0.00    +0.167 C 
ATOM      9  C   UNL     1     -38.571  21.110   0.797  0.00  0.00    +0.087 C 
ATOM     10  C   UNL     1     -39.054  22.160   1.575  0.00  0.00    -0.022 C 
ATOM     11  C   UNL     1     -35.116  18.054  -0.339  0.00  0.00    +0.107 C 
ATOM     12  C   UNL     1     -33.511  19.138   1.625  0.00  0.00    +0.035 C 
ATOM     13  C   UNL     1     -33.835  17.542  -0.141  0.00  0.00    +0.009 C 
ATOM     14  C   UNL     1     -33.028  18.087   0.847  0.00  0.00    +0.003 C 
ENDROOT
BRANCH   3  16
ATOM     15  O   UNL     1     -36.101  22.385   4.974  0.00  0.00    -0.249 OA
ATOM     16  C   UNL     1     -36.130  22.801   3.826  0.00  0.00    +0.329 C 
BRANCH  16  17
ATOM     17  O   UNL     1     -35.423  23.858   3.340  0.00  0.00    -0.421 OA
BRANCH  17  23
ATOM     18  O   UNL     1     -35.571  26.109   2.603  0.00  0.00    -0.319 OA
ATOM     19  C   UNL     1     -34.128  25.948   5.082  0.00  0.00    +0.173 C 
ATOM     20  C   UNL     1     -33.715  26.920   3.975  0.00  0.00    +0.167 C 
ATOM     21  C   UNL     1     -35.618  25.613   4.987  0.00  0.00    +0.211 C 
ATOM     22  C   UNL     1     -34.167  26.386   2.609  0.00  0.00    +0.148 C 
ATOM     23  C   UNL     1     -35.983  25.145   3.579  0.00  0.00    +0.320 C 
ATOM     24  C   UNL     1     -33.906  27.389   1.489  0.00  0.00    +0.035 C 
BRANCH  19  25
ATOM     25  O   UNL     1     -33.843  26.533   6.351  0.00  0.00    -0.379 OA
ATOM     26  H   UNL     1     -34.497  26.231   7.000  0.00  0.00    +0.211 HD
ENDBRANCH  19  25
BRANCH  20  27
ATOM     27  O   UNL     1     -32.296  27.051   4.009  0.00  0.00    -0.379 OA
ATOM     28  H   UNL     1     -31.964  26.753   4.870  0.00  0.00    +0.211 HD
ENDBRANCH  20  27
BRANCH  21  29
ATOM     29  O   UNL     1     -36.399  26.774   5.275  0.00  0.00    -0.377 OA
ATOM     30  H   UNL     1     -35.848  27.429   5.729  0.00  0.00    +0.211 HD
ENDBRANCH  21  29
ENDBRANCH  17  23
ENDBRANCH  16  17
ENDBRANCH   3  16
BRANCH  11  32
ATOM     31  O   UNL     1     -35.714  17.533  -2.597  0.00  0.00    -0.245 OA
ATOM     32  C   UNL     1     -35.937  17.457  -1.386  0.00  0.00    +0.341 C 
BRANCH  32  33
ATOM     33  O   UNL     1     -37.007  16.785  -0.883  0.00  0.00    -0.477 OA
ATOM     34  H   UNL     1     -37.256  15.960  -1.250  0.00  0.00    +0.295 HD
ENDBRANCH  32  33
ENDBRANCH  11  32
TORSDOF 8
ENDMDL
