MODEL 1
REMARK VINA RESULT:      -4.9      0.000      0.000
REMARK  Name = 53920044
REMARK  8 active torsions:
REMARK  status: ('A' for Active; 'I' for Inactive)
REMARK    1  A    between atoms: C_2  and  S_7
REMARK    2  A    between atoms: C_3  and  S_13
REMARK    3  A    between atoms: C_4  and  C_20
REMARK    4  A    between atoms: C_5  and  C_22
REMARK    5  A    between atoms: S_7  and  C_10
REMARK    6  A    between atoms: C_10  and  C_12
REMARK    7  A    between atoms: S_13  and  C_16
REMARK    8  A    between atoms: C_16  and  C_18
REMARK                            x       y       z     vdW  Elec       q    Type
REMARK                         _______ _______ _______ _____ _____    ______ ____
ROOT
ATOM      1  N   UNL     1     -37.792  23.998   3.331  0.00  0.00    -0.324 N 
ATOM      2  C   UNL     1     -36.736  23.176   3.630  0.00  0.00    +0.176 A 
ATOM      3  C   UNL     1     -38.486  23.484   2.267  0.00  0.00    +0.176 A 
ATOM      4  C   UNL     1     -37.863  22.318   1.881  0.00  0.00    +0.114 A 
ATOM      5  C   UNL     1     -36.757  22.124   2.743  0.00  0.00    +0.114 A 
ATOM      6  H   UNL     1     -38.017  24.829   3.807  0.00  0.00    +0.168 HD
ENDROOT
BRANCH   2   7
ATOM      7  S   UNL     1     -35.652  23.580   4.967  0.00  0.00    +0.025 S 
ATOM      8  O   UNL     1     -35.970  22.702   6.081  0.00  0.00    -0.167 OA
ATOM      9  O   UNL     1     -34.305  23.614   4.425  0.00  0.00    -0.167 OA
BRANCH   7  10
ATOM     10  C   UNL     1     -36.123  25.220   5.420  0.00  0.00    +0.175 C 
BRANCH  10  12
ATOM     11 CL   UNL     1     -33.791  26.395   6.219  0.00  0.00    -0.112 Cl
ATOM     12  C   UNL     1     -35.096  26.259   5.015  0.00  0.00    +0.121 C 
ENDBRANCH  10  12
ENDBRANCH   7  10
ENDBRANCH   2   7
BRANCH   3  13
ATOM     13  S   UNL     1     -39.911  24.332   1.647  0.00  0.00    +0.025 S 
ATOM     14  O   UNL     1     -39.480  25.208   0.577  0.00  0.00    -0.167 OA
ATOM     15  O   UNL     1     -40.934  23.331   1.420  0.00  0.00    -0.167 OA
BRANCH  13  16
ATOM     16  C   UNL     1     -40.413  25.354   3.005  0.00  0.00    +0.175 C 
BRANCH  16  18
ATOM     17 CL   UNL     1     -41.972  27.358   4.012  0.00  0.00    -0.112 Cl
ATOM     18  C   UNL     1     -41.481  26.359   2.621  0.00  0.00    +0.121 C 
ENDBRANCH  16  18
ENDBRANCH  13  16
ENDBRANCH   3  13
BRANCH   4  20
ATOM     19  N   UNL     1     -38.633  20.810  -0.074  0.00  0.00    -0.191 NA
ATOM     20  C   UNL     1     -38.287  21.486   0.803  0.00  0.00    +0.104 C 
ENDBRANCH   4  20
BRANCH   5  22
ATOM     21  N   UNL     1     -35.051  20.179   2.717  0.00  0.00    -0.191 NA
ATOM     22  C   UNL     1     -35.816  21.052   2.729  0.00  0.00    +0.104 C 
ENDBRANCH   5  22
TORSDOF 8
ENDMDL
MODEL 2
REMARK VINA RESULT:      -4.9      3.964      6.058
REMARK  Name = 53920044
REMARK  8 active torsions:
REMARK  status: ('A' for Active; 'I' for Inactive)
REMARK    1  A    between atoms: C_2  and  S_7
REMARK    2  A    between atoms: C_3  and  S_13
REMARK    3  A    between atoms: C_4  and  C_20
REMARK    4  A    between atoms: C_5  and  C_22
REMARK    5  A    between atoms: S_7  and  C_10
REMARK    6  A    between atoms: C_10  and  C_12
REMARK    7  A    between atoms: S_13  and  C_16
REMARK    8  A    between atoms: C_16  and  C_18
REMARK                            x       y       z     vdW  Elec       q    Type
REMARK                         _______ _______ _______ _____ _____    ______ ____
ROOT
ATOM      1  N   UNL     1     -34.667  23.982   2.285  0.00  0.00    -0.324 N 
ATOM      2  C   UNL     1     -34.268  25.076   3.008  0.00  0.00    +0.176 A 
ATOM      3  C   UNL     1     -35.139  23.016   3.136  0.00  0.00    +0.176 A 
ATOM      4  C   UNL     1     -35.037  23.501   4.421  0.00  0.00    +0.114 A 
ATOM      5  C   UNL     1     -34.487  24.803   4.340  0.00  0.00    +0.114 A 
ATOM      6  H   UNL     1     -34.623  23.902   1.305  0.00  0.00    +0.168 HD
ENDROOT
BRANCH   2   7
ATOM      7  S   UNL     1     -33.612  26.493   2.180  0.00  0.00    +0.025 S 
ATOM      8  O   UNL     1     -32.295  26.762   2.731  0.00  0.00    -0.167 OA
ATOM      9  O   UNL     1     -33.776  26.264   0.755  0.00  0.00    -0.167 OA
BRANCH   7  10
ATOM     10  C   UNL     1     -34.681  27.809   2.670  0.00  0.00    +0.175 C 
BRANCH  10  12
ATOM     11 CL   UNL     1     -37.151  26.887   1.959  0.00  0.00    -0.112 Cl
ATOM     12  C   UNL     1     -35.818  28.037   1.693  0.00  0.00    +0.121 C 
ENDBRANCH  10  12
ENDBRANCH   7  10
ENDBRANCH   2   7
BRANCH   3  13
ATOM     13  S   UNL     1     -35.729  21.478   2.488  0.00  0.00    +0.025 S 
ATOM     14  O   UNL     1     -35.377  20.432   3.427  0.00  0.00    -0.167 OA
ATOM     15  O   UNL     1     -37.107  21.686   2.092  0.00  0.00    -0.167 OA
BRANCH  13  16
ATOM     16  C   UNL     1     -34.753  21.237   1.028  0.00  0.00    +0.175 C 
BRANCH  16  18
ATOM     17 CL   UNL     1     -33.205  19.008   1.337  0.00  0.00    -0.112 Cl
ATOM     18  C   UNL     1     -34.645  19.778   0.627  0.00  0.00    +0.121 C 
ENDBRANCH  16  18
ENDBRANCH  13  16
ENDBRANCH   3  13
BRANCH   4  20
ATOM     19  N   UNL     1     -35.744  22.208   6.546  0.00  0.00    -0.191 NA
ATOM     20  C   UNL     1     -35.427  22.788   5.593  0.00  0.00    +0.104 C 
ENDBRANCH   4  20
BRANCH   5  22
ATOM     21  N   UNL     1     -33.963  26.424   6.286  0.00  0.00    -0.191 NA
ATOM     22  C   UNL     1     -34.198  25.697   5.413  0.00  0.00    +0.104 C 
ENDBRANCH   5  22
TORSDOF 8
ENDMDL
MODEL 3
REMARK VINA RESULT:      -4.9      3.928      5.842
REMARK  Name = 53920044
REMARK  8 active torsions:
REMARK  status: ('A' for Active; 'I' for Inactive)
REMARK    1  A    between atoms: C_2  and  S_7
REMARK    2  A    between atoms: C_3  and  S_13
REMARK    3  A    between atoms: C_4  and  C_20
REMARK    4  A    between atoms: C_5  and  C_22
REMARK    5  A    between atoms: S_7  and  C_10
REMARK    6  A    between atoms: C_10  and  C_12
REMARK    7  A    between atoms: S_13  and  C_16
REMARK    8  A    between atoms: C_16  and  C_18
REMARK                            x       y       z     vdW  Elec       q    Type
REMARK                         _______ _______ _______ _____ _____    ______ ____
ROOT
ATOM      1  N   UNL     1     -34.689  23.957   2.257  0.00  0.00    -0.324 N 
ATOM      2  C   UNL     1     -35.165  22.990   3.104  0.00  0.00    +0.176 A 
ATOM      3  C   UNL     1     -34.288  25.048   2.984  0.00  0.00    +0.176 A 
ATOM      4  C   UNL     1     -34.513  24.773   4.315  0.00  0.00    +0.114 A 
ATOM      5  C   UNL     1     -35.068  23.472   4.390  0.00  0.00    +0.114 A 
ATOM      6  H   UNL     1     -34.641  23.879   1.277  0.00  0.00    +0.168 HD
ENDROOT
BRANCH   2   7
ATOM      7  S   UNL     1     -35.756  21.457   2.454  0.00  0.00    +0.025 S 
ATOM      8  O   UNL     1     -35.224  20.387   3.281  0.00  0.00    -0.167 OA
ATOM      9  O   UNL     1     -37.191  21.598   2.274  0.00  0.00    -0.167 OA
BRANCH   7  10
ATOM     10  C   UNL     1     -34.994  21.342   0.866  0.00  0.00    +0.175 C 
BRANCH  10  12
ATOM     11 CL   UNL     1     -32.655  19.950   0.637  0.00  0.00    -0.112 Cl
ATOM     12  C   UNL     1     -34.435  19.961   0.581  0.00  0.00    +0.121 C 
ENDBRANCH  10  12
ENDBRANCH   7  10
ENDBRANCH   2   7
BRANCH   3  13
ATOM     13  S   UNL     1     -33.624  26.466   2.158  0.00  0.00    +0.025 S 
ATOM     14  O   UNL     1     -32.344  26.777   2.762  0.00  0.00    -0.167 OA
ATOM     15  O   UNL     1     -33.731  26.216   0.735  0.00  0.00    -0.167 OA
BRANCH  13  16
ATOM     16  C   UNL     1     -34.749  27.766   2.589  0.00  0.00    +0.175 C 
BRANCH  16  18
ATOM     17 CL   UNL     1     -37.231  26.741   2.096  0.00  0.00    -0.112 Cl
ATOM     18  C   UNL     1     -35.927  27.863   1.639  0.00  0.00    +0.121 C 
ENDBRANCH  16  18
ENDBRANCH  13  16
ENDBRANCH   3  13
BRANCH   4  20
ATOM     19  N   UNL     1     -33.994  26.391   6.264  0.00  0.00    -0.191 NA
ATOM     20  C   UNL     1     -34.227  25.665   5.389  0.00  0.00    +0.104 C 
ENDBRANCH   4  20
BRANCH   5  22
ATOM     21  N   UNL     1     -35.786  22.179   6.512  0.00  0.00    -0.191 NA
ATOM     22  C   UNL     1     -35.464  22.759   5.560  0.00  0.00    +0.104 C 
ENDBRANCH   5  22
TORSDOF 8
ENDMDL
MODEL 4
REMARK VINA RESULT:      -4.8      3.694      5.088
REMARK  Name = 53920044
REMARK  8 active torsions:
REMARK  status: ('A' for Active; 'I' for Inactive)
REMARK    1  A    between atoms: C_2  and  S_7
REMARK    2  A    between atoms: C_3  and  S_13
REMARK    3  A    between atoms: C_4  and  C_20
REMARK    4  A    between atoms: C_5  and  C_22
REMARK    5  A    between atoms: S_7  and  C_10
REMARK    6  A    between atoms: C_10  and  C_12
REMARK    7  A    between atoms: S_13  and  C_16
REMARK    8  A    between atoms: C_16  and  C_18
REMARK                            x       y       z     vdW  Elec       q    Type
REMARK                         _______ _______ _______ _____ _____    ______ ____
ROOT
ATOM      1  N   UNL     1     -34.487  24.158   2.278  0.00  0.00    -0.324 N 
ATOM      2  C   UNL     1     -34.052  25.195   3.062  0.00  0.00    +0.176 A 
ATOM      3  C   UNL     1     -35.070  23.201   3.066  0.00  0.00    +0.176 A 
ATOM      4  C   UNL     1     -35.005  23.633   4.372  0.00  0.00    +0.114 A 
ATOM      5  C   UNL     1     -34.361  24.894   4.369  0.00  0.00    +0.114 A 
ATOM      6  H   UNL     1     -34.395  24.108   1.300  0.00  0.00    +0.168 HD
ENDROOT
BRANCH   2   7
ATOM      7  S   UNL     1     -33.254  26.589   2.322  0.00  0.00    +0.025 S 
ATOM      8  O   UNL     1     -31.941  26.725   2.930  0.00  0.00    -0.167 OA
ATOM      9  O   UNL     1     -33.381  26.435   0.883  0.00  0.00    -0.167 OA
BRANCH   7  10
ATOM     10  C   UNL     1     -34.232  27.965   2.835  0.00  0.00    +0.175 C 
BRANCH  10  12
ATOM     11 CL   UNL     1     -36.683  27.235   1.877  0.00  0.00    -0.112 Cl
ATOM     12  C   UNL     1     -35.292  28.344   1.818  0.00  0.00    +0.121 C 
ENDBRANCH  10  12
ENDBRANCH   7  10
ENDBRANCH   2   7
BRANCH   3  13
ATOM     13  S   UNL     1     -35.731  21.731   2.331  0.00  0.00    +0.025 S 
ATOM     14  O   UNL     1     -35.364  21.728   0.930  0.00  0.00    -0.167 OA
ATOM     15  O   UNL     1     -35.369  20.626   3.195  0.00  0.00    -0.167 OA
BRANCH  13  16
ATOM     16  C   UNL     1     -37.485  21.969   2.424  0.00  0.00    +0.175 C 
BRANCH  16  18
ATOM     17 CL   UNL     1     -38.487  24.398   3.168  0.00  0.00    -0.112 Cl
ATOM     18  C   UNL     1     -37.926  23.311   1.874  0.00  0.00    +0.121 C 
ENDBRANCH  16  18
ENDBRANCH  13  16
ENDBRANCH   3  13
BRANCH   4  20
ATOM     19  N   UNL     1     -35.915  22.322   6.408  0.00  0.00    -0.191 NA
ATOM     20  C   UNL     1     -35.507  22.911   5.495  0.00  0.00    +0.104 C 
ENDBRANCH   4  20
BRANCH   5  22
ATOM     21  N   UNL     1     -33.833  26.408   6.398  0.00  0.00    -0.191 NA
ATOM     22  C   UNL     1     -34.069  25.728   5.488  0.00  0.00    +0.104 C 
ENDBRANCH   5  22
TORSDOF 8
ENDMDL
MODEL 5
REMARK VINA RESULT:      -4.8      3.690      5.738
REMARK  Name = 53920044
REMARK  8 active torsions:
REMARK  status: ('A' for Active; 'I' for Inactive)
REMARK    1  A    between atoms: C_2  and  S_7
REMARK    2  A    between atoms: C_3  and  S_13
REMARK    3  A    between atoms: C_4  and  C_20
REMARK    4  A    between atoms: C_5  and  C_22
REMARK    5  A    between atoms: S_7  and  C_10
REMARK    6  A    between atoms: C_10  and  C_12
REMARK    7  A    between atoms: S_13  and  C_16
REMARK    8  A    between atoms: C_16  and  C_18
REMARK                            x       y       z     vdW  Elec       q    Type
REMARK                         _______ _______ _______ _____ _____    ______ ____
ROOT
ATOM      1  N   UNL     1     -34.486  24.166   2.273  0.00  0.00    -0.324 N 
ATOM      2  C   UNL     1     -35.074  23.212   3.063  0.00  0.00    +0.176 A 
ATOM      3  C   UNL     1     -34.043  25.200   3.056  0.00  0.00    +0.176 A 
ATOM      4  C   UNL     1     -34.353  24.902   4.364  0.00  0.00    +0.114 A 
ATOM      5  C   UNL     1     -35.005  23.644   4.368  0.00  0.00    +0.114 A 
ATOM      6  H   UNL     1     -34.396  24.116   1.295  0.00  0.00    +0.168 HD
ENDROOT
BRANCH   2   7
ATOM      7  S   UNL     1     -35.743  21.748   2.332  0.00  0.00    +0.025 S 
ATOM      8  O   UNL     1     -35.375  21.743   0.926  0.00  0.00    -0.167 OA
ATOM      9  O   UNL     1     -35.369  20.637   3.190  0.00  0.00    -0.167 OA
BRANCH   7  10
ATOM     10  C   UNL     1     -37.490  21.979   2.432  0.00  0.00    +0.175 C 
BRANCH  10  12
ATOM     11 CL   UNL     1     -38.503  24.406   3.167  0.00  0.00    -0.112 Cl
ATOM     12  C   UNL     1     -37.939  23.317   1.877  0.00  0.00    +0.121 C 
ENDBRANCH  10  12
ENDBRANCH   7  10
ENDBRANCH   2   7
BRANCH   3  13
ATOM     13  S   UNL     1     -33.236  26.589   2.312  0.00  0.00    +0.025 S 
ATOM     14  O   UNL     1     -31.948  26.755   2.953  0.00  0.00    -0.167 OA
ATOM     15  O   UNL     1     -33.333  26.417   0.877  0.00  0.00    -0.167 OA
BRANCH  13  16
ATOM     16  C   UNL     1     -34.250  27.964   2.785  0.00  0.00    +0.175 C 
BRANCH  16  18
ATOM     17 CL   UNL     1     -36.715  27.224   1.874  0.00  0.00    -0.112 Cl
ATOM     18  C   UNL     1     -35.304  28.302   1.748  0.00  0.00    +0.121 C 
ENDBRANCH  16  18
ENDBRANCH  13  16
ENDBRANCH   3  13
BRANCH   4  20
ATOM     19  N   UNL     1     -33.812  26.414   6.391  0.00  0.00    -0.191 NA
ATOM     20  C   UNL     1     -34.055  25.735   5.482  0.00  0.00    +0.104 C 
ENDBRANCH   4  20
BRANCH   5  22
ATOM     21  N   UNL     1     -35.920  22.343   6.407  0.00  0.00    -0.191 NA
ATOM     22  C   UNL     1     -35.510  22.926   5.492  0.00  0.00    +0.104 C 
ENDBRANCH   5  22
TORSDOF 8
ENDMDL
MODEL 6
REMARK VINA RESULT:      -4.8      4.764      6.307
REMARK  Name = 53920044
REMARK  8 active torsions:
REMARK  status: ('A' for Active; 'I' for Inactive)
REMARK    1  A    between atoms: C_2  and  S_7
REMARK    2  A    between atoms: C_3  and  S_13
REMARK    3  A    between atoms: C_4  and  C_20
REMARK    4  A    between atoms: C_5  and  C_22
REMARK    5  A    between atoms: S_7  and  C_10
REMARK    6  A    between atoms: C_10  and  C_12
REMARK    7  A    between atoms: S_13  and  C_16
REMARK    8  A    between atoms: C_16  and  C_18
REMARK                            x       y       z     vdW  Elec       q    Type
REMARK                         _______ _______ _______ _____ _____    ______ ____
ROOT
ATOM      1  N   UNL     1     -34.608  23.917   2.295  0.00  0.00    -0.324 N 
ATOM      2  C   UNL     1     -34.208  25.017   3.009  0.00  0.00    +0.176 A 
ATOM      3  C   UNL     1     -35.112  22.973   3.150  0.00  0.00    +0.176 A 
ATOM      4  C   UNL     1     -35.032  23.477   4.429  0.00  0.00    +0.114 A 
ATOM      5  C   UNL     1     -34.461  24.769   4.340  0.00  0.00    +0.114 A 
ATOM      6  H   UNL     1     -34.543  23.821   1.317  0.00  0.00    +0.168 HD
ENDROOT
BRANCH   2   7
ATOM      7  S   UNL     1     -33.513  26.411   2.172  0.00  0.00    +0.025 S 
ATOM      8  O   UNL     1     -34.437  27.524   2.316  0.00  0.00    -0.167 OA
ATOM      9  O   UNL     1     -32.140  26.537   2.629  0.00  0.00    -0.167 OA
BRANCH   7  10
ATOM     10  C   UNL     1     -33.506  25.932   0.474  0.00  0.00    +0.175 C 
BRANCH  10  12
ATOM     11 CL   UNL     1     -32.192  23.689  -0.362  0.00  0.00    -0.112 Cl
ATOM     12  C   UNL     1     -32.152  25.429   0.011  0.00  0.00    +0.121 C 
ENDBRANCH  10  12
ENDBRANCH   7  10
ENDBRANCH   2   7
BRANCH   3  13
ATOM     13  S   UNL     1     -35.711  21.433   2.514  0.00  0.00    +0.025 S 
ATOM     14  O   UNL     1     -35.318  20.385   3.434  0.00  0.00    -0.167 OA
ATOM     15  O   UNL     1     -37.104  21.630   2.167  0.00  0.00    -0.167 OA
BRANCH  13  16
ATOM     16  C   UNL     1     -34.784  21.208   1.020  0.00  0.00    +0.175 C 
BRANCH  16  18
ATOM     17 CL   UNL     1     -32.333  20.156   0.434  0.00  0.00    -0.112 Cl
ATOM     18  C   UNL     1     -34.002  19.909   1.004  0.00  0.00    +0.121 C 
ENDBRANCH  16  18
ENDBRANCH  13  16
ENDBRANCH   3  13
BRANCH   4  20
ATOM     19  N   UNL     1     -35.805  22.229   6.559  0.00  0.00    -0.191 NA
ATOM     20  C   UNL     1     -35.458  22.789   5.603  0.00  0.00    +0.104 C 
ENDBRANCH   4  20
BRANCH   5  22
ATOM     21  N   UNL     1     -33.957  26.415   6.270  0.00  0.00    -0.191 NA
ATOM     22  C   UNL     1     -34.182  25.677   5.404  0.00  0.00    +0.104 C 
ENDBRANCH   5  22
TORSDOF 8
ENDMDL
MODEL 7
REMARK VINA RESULT:      -4.8      4.752      6.567
REMARK  Name = 53920044
REMARK  8 active torsions:
REMARK  status: ('A' for Active; 'I' for Inactive)
REMARK    1  A    between atoms: C_2  and  S_7
REMARK    2  A    between atoms: C_3  and  S_13
REMARK    3  A    between atoms: C_4  and  C_20
REMARK    4  A    between atoms: C_5  and  C_22
REMARK    5  A    between atoms: S_7  and  C_10
REMARK    6  A    between atoms: C_10  and  C_12
REMARK    7  A    between atoms: S_13  and  C_16
REMARK    8  A    between atoms: C_16  and  C_18
REMARK                            x       y       z     vdW  Elec       q    Type
REMARK                         _______ _______ _______ _____ _____    ______ ____
ROOT
ATOM      1  N   UNL     1     -34.625  23.914   2.197  0.00  0.00    -0.324 N 
ATOM      2  C   UNL     1     -35.157  22.984   3.052  0.00  0.00    +0.176 A 
ATOM      3  C   UNL     1     -34.194  25.001   2.914  0.00  0.00    +0.176 A 
ATOM      4  C   UNL     1     -34.456  24.760   4.244  0.00  0.00    +0.114 A 
ATOM      5  C   UNL     1     -35.064  23.484   4.331  0.00  0.00    +0.114 A 
ATOM      6  H   UNL     1     -34.562  23.818   1.220  0.00  0.00    +0.168 HD
ENDROOT
BRANCH   2   7
ATOM      7  S   UNL     1     -35.798  21.464   2.416  0.00  0.00    +0.025 S 
ATOM      8  O   UNL     1     -35.214  20.377   3.184  0.00  0.00    -0.167 OA
ATOM      9  O   UNL     1     -37.241  21.612   2.339  0.00  0.00    -0.167 OA
BRANCH   7  10
ATOM     10  C   UNL     1     -35.149  21.377   0.777  0.00  0.00    +0.175 C 
BRANCH  10  12
ATOM     11 CL   UNL     1     -32.749  20.083   0.617  0.00  0.00    -0.112 Cl
ATOM     12  C   UNL     1     -34.522  20.031   0.464  0.00  0.00    +0.121 C 
ENDBRANCH  10  12
ENDBRANCH   7  10
ENDBRANCH   2   7
BRANCH   3  13
ATOM     13  S   UNL     1     -33.456  26.376   2.077  0.00  0.00    +0.025 S 
ATOM     14  O   UNL     1     -34.367  27.498   2.170  0.00  0.00    -0.167 OA
ATOM     15  O   UNL     1     -32.094  26.484   2.559  0.00  0.00    -0.167 OA
BRANCH  13  16
ATOM     16  C   UNL     1     -33.414  25.861   0.382  0.00  0.00    +0.175 C 
BRANCH  16  18
ATOM     17 CL   UNL     1     -32.240  23.523  -0.404  0.00  0.00    -0.112 Cl
ATOM     18  C   UNL     1     -32.083  25.254  -0.016  0.00  0.00    +0.121 C 
ENDBRANCH  16  18
ENDBRANCH  13  16
ENDBRANCH   3  13
BRANCH   4  20
ATOM     19  N   UNL     1     -33.907  26.389   6.176  0.00  0.00    -0.191 NA
ATOM     20  C   UNL     1     -34.153  25.658   5.309  0.00  0.00    +0.104 C 
ENDBRANCH   4  20
BRANCH   5  22
ATOM     21  N   UNL     1     -35.876  22.258   6.459  0.00  0.00    -0.191 NA
ATOM     22  C   UNL     1     -35.512  22.808   5.504  0.00  0.00    +0.104 C 
ENDBRANCH   5  22
TORSDOF 8
ENDMDL
MODEL 8
REMARK VINA RESULT:      -4.7      4.221      6.165
REMARK  Name = 53920044
REMARK  8 active torsions:
REMARK  status: ('A' for Active; 'I' for Inactive)
REMARK    1  A    between atoms: C_2  and  S_7
REMARK    2  A    between atoms: C_3  and  S_13
REMARK    3  A    between atoms: C_4  and  C_20
REMARK    4  A    between atoms: C_5  and  C_22
REMARK    5  A    between atoms: S_7  and  C_10
REMARK    6  A    between atoms: C_10  and  C_12
REMARK    7  A    between atoms: S_13  and  C_16
REMARK    8  A    between atoms: C_16  and  C_18
REMARK                            x       y       z     vdW  Elec       q    Type
REMARK                         _______ _______ _______ _____ _____    ______ ____
ROOT
ATOM      1  N   UNL     1     -34.485  26.606   3.601  0.00  0.00    -0.324 N 
ATOM      2  C   UNL     1     -34.439  27.866   3.064  0.00  0.00    +0.176 A 
ATOM      3  C   UNL     1     -35.642  25.982   3.209  0.00  0.00    +0.176 A 
ATOM      4  C   UNL     1     -36.344  26.858   2.412  0.00  0.00    +0.114 A 
ATOM      5  C   UNL     1     -35.583  28.049   2.320  0.00  0.00    +0.114 A 
ATOM      6  H   UNL     1     -33.794  26.209   4.178  0.00  0.00    +0.168 HD
ENDROOT
BRANCH   2   7
ATOM      7  S   UNL     1     -33.056  28.917   3.392  0.00  0.00    +0.025 S 
ATOM      8  O   UNL     1     -32.375  29.165   2.132  0.00  0.00    -0.167 OA
ATOM      9  O   UNL     1     -33.549  30.028   4.188  0.00  0.00    -0.167 OA
BRANCH   7  10
ATOM     10  C   UNL     1     -31.994  27.927   4.395  0.00  0.00    +0.175 C 
BRANCH  10  12
ATOM     11 CL   UNL     1     -32.803  27.088   6.864  0.00  0.00    -0.112 Cl
ATOM     12  C   UNL     1     -32.021  28.330   5.856  0.00  0.00    +0.121 C 
ENDBRANCH  10  12
ENDBRANCH   7  10
ENDBRANCH   2   7
BRANCH   3  13
ATOM     13  S   UNL     1     -35.983  24.331   3.750  0.00  0.00    +0.025 S 
ATOM     14  O   UNL     1     -37.283  24.330   4.390  0.00  0.00    -0.167 OA
ATOM     15  O   UNL     1     -35.707  23.453   2.632  0.00  0.00    -0.167 OA
BRANCH  13  16
ATOM     16  C   UNL     1     -34.768  24.043   5.008  0.00  0.00    +0.175 C 
BRANCH  16  18
ATOM     17 CL   UNL     1     -35.116  21.380   5.505  0.00  0.00    -0.112 Cl
ATOM     18  C   UNL     1     -35.239  23.065   6.067  0.00  0.00    +0.121 C 
ENDBRANCH  16  18
ENDBRANCH  13  16
ENDBRANCH   3  13
BRANCH   4  20
ATOM     19  N   UNL     1     -38.631  26.350   1.317  0.00  0.00    -0.191 NA
ATOM     20  C   UNL     1     -37.605  26.578   1.809  0.00  0.00    +0.104 C 
ENDBRANCH   4  20
BRANCH   5  22
ATOM     21  N   UNL     1     -36.169  30.205   1.018  0.00  0.00    -0.191 NA
ATOM     22  C   UNL     1     -35.906  29.238   1.602  0.00  0.00    +0.104 C 
ENDBRANCH   5  22
TORSDOF 8
ENDMDL
MODEL 9
REMARK VINA RESULT:      -4.7      4.107      6.176
REMARK  Name = 53920044
REMARK  8 active torsions:
REMARK  status: ('A' for Active; 'I' for Inactive)
REMARK    1  A    between atoms: C_2  and  S_7
REMARK    2  A    between atoms: C_3  and  S_13
REMARK    3  A    between atoms: C_4  and  C_20
REMARK    4  A    between atoms: C_5  and  C_22
REMARK    5  A    between atoms: S_7  and  C_10
REMARK    6  A    between atoms: C_10  and  C_12
REMARK    7  A    between atoms: S_13  and  C_16
REMARK    8  A    between atoms: C_16  and  C_18
REMARK                            x       y       z     vdW  Elec       q    Type
REMARK                         _______ _______ _______ _____ _____    ______ ____
ROOT
ATOM      1  N   UNL     1     -36.356  27.007   2.571  0.00  0.00    -0.324 N 
ATOM      2  C   UNL     1     -36.754  25.835   3.160  0.00  0.00    +0.176 A 
ATOM      3  C   UNL     1     -35.208  27.455   3.170  0.00  0.00    +0.176 A 
ATOM      4  C   UNL     1     -34.869  26.556   4.158  0.00  0.00    +0.114 A 
ATOM      5  C   UNL     1     -35.847  25.532   4.151  0.00  0.00    +0.114 A 
ATOM      6  H   UNL     1     -36.822  27.457   1.830  0.00  0.00    +0.168 HD
ENDROOT
BRANCH   2   7
ATOM      7  S   UNL     1     -38.213  25.012   2.595  0.00  0.00    +0.025 S 
ATOM      8  O   UNL     1     -38.917  24.502   3.760  0.00  0.00    -0.167 OA
ATOM      9  O   UNL     1     -38.881  25.917   1.675  0.00  0.00    -0.167 OA
BRANCH   7  10
ATOM     10  C   UNL     1     -37.600  23.629   1.686  0.00  0.00    +0.175 C 
BRANCH  10  12
ATOM     11 CL   UNL     1     -36.036  21.606   2.644  0.00  0.00    -0.112 Cl
ATOM     12  C   UNL     1     -37.651  22.336   2.478  0.00  0.00    +0.121 C 
ENDBRANCH  10  12
ENDBRANCH   7  10
ENDBRANCH   2   7
BRANCH   3  13
ATOM     13  S   UNL     1     -34.450  28.957   2.619  0.00  0.00    +0.025 S 
ATOM     14  O   UNL     1     -34.396  29.870   3.743  0.00  0.00    -0.167 OA
ATOM     15  O   UNL     1     -33.244  28.588   1.906  0.00  0.00    -0.167 OA
BRANCH  13  16
ATOM     16  C   UNL     1     -35.616  29.611   1.455  0.00  0.00    +0.175 C 
BRANCH  16  18
ATOM     17 CL   UNL     1     -36.955  31.924   2.014  0.00  0.00    -0.112 Cl
ATOM     18  C   UNL     1     -35.528  31.119   1.319  0.00  0.00    +0.121 C 
ENDBRANCH  16  18
ENDBRANCH  13  16
ENDBRANCH   3  13
BRANCH   4  20
ATOM     19  N   UNL     1     -32.807  26.769   5.704  0.00  0.00    -0.191 NA
ATOM     20  C   UNL     1     -33.732  26.674   5.010  0.00  0.00    +0.104 C 
ENDBRANCH   4  20
BRANCH   5  22
ATOM     21  N   UNL     1     -35.973  23.452   5.683  0.00  0.00    -0.191 NA
ATOM     22  C   UNL     1     -35.916  24.385   4.995  0.00  0.00    +0.104 C 
ENDBRANCH   5  22
TORSDOF 8
ENDMDL
