MODEL 1
REMARK VINA RESULT:      -6.1      0.000      0.000
REMARK  Name = 5281626
REMARK  4 active torsions:
REMARK  status: ('A' for Active; 'I' for Inactive)
REMARK    1  A    between atoms: C_8  and  O_16
REMARK    2  A    between atoms: C_9  and  O_18
REMARK    3  A    between atoms: C_10  and  O_20
REMARK    4  A    between atoms: C_13  and  O_22
REMARK                            x       y       z     vdW  Elec       q    Type
REMARK                         _______ _______ _______ _____ _____    ______ ____
ROOT
ATOM      1  O   UNL     1     -37.368  22.155   3.265  0.00  0.00    -0.450 OA
ATOM      2  O   UNL     1     -38.342  26.129   3.161  0.00  0.00    -0.286 OA
ATOM      3  C   UNL     1     -36.949  24.438   4.027  0.00  0.00    +0.110 A 
ATOM      4  C   UNL     1     -38.786  23.945   2.398  0.00  0.00    +0.107 A 
ATOM      5  C   UNL     1     -36.671  23.072   4.014  0.00  0.00    +0.185 A 
ATOM      6  C   UNL     1     -38.401  22.607   2.481  0.00  0.00    +0.154 A 
ATOM      7  C   UNL     1     -38.052  24.942   3.193  0.00  0.00    +0.207 A 
ATOM      8  C   UNL     1     -39.848  24.328   1.577  0.00  0.00    +0.143 C 
ATOM      9  C   UNL     1     -36.195  25.310   4.816  0.00  0.00    +0.140 C 
ATOM     10  C   UNL     1     -35.629  22.572   4.798  0.00  0.00    +0.169 C 
ATOM     11  C   UNL     1     -39.084  21.644   1.735  0.00  0.00    +0.074 C 
ATOM     12  C   UNL     1     -40.527  23.361   0.833  0.00  0.00    +0.073 C 
ATOM     13  C   UNL     1     -40.146  22.022   0.913  0.00  0.00    +0.140 C 
ATOM     14  C   UNL     1     -35.155  24.805   5.597  0.00  0.00    +0.040 C 
ATOM     15  C   UNL     1     -34.872  23.439   5.588  0.00  0.00    +0.043 C 
ENDROOT
BRANCH   8  16
ATOM     16  O   UNL     1     -40.264  25.621   1.462  0.00  0.00    -0.505 OA
ATOM     17  H   UNL     1     -41.165  25.808   1.287  0.00  0.00    +0.292 HD
ENDBRANCH   8  16
BRANCH   9  18
ATOM     18  O   UNL     1     -36.428  26.651   4.863  0.00  0.00    -0.505 OA
ATOM     19  H   UNL     1     -36.946  27.060   4.199  0.00  0.00    +0.292 HD
ENDBRANCH   9  18
BRANCH  10  20
ATOM     20  O   UNL     1     -35.335  21.241   4.804  0.00  0.00    -0.503 OA
ATOM     21  H   UNL     1     -34.473  20.953   5.031  0.00  0.00    +0.292 HD
ENDBRANCH  10  20
BRANCH  13  22
ATOM     22  O   UNL     1     -40.810  21.082   0.186  0.00  0.00    -0.505 OA
ATOM     23  H   UNL     1     -41.244  21.325  -0.609  0.00  0.00    +0.292 HD
ENDBRANCH  13  22
TORSDOF 4
ENDMDL
MODEL 2
REMARK VINA RESULT:      -6.1      1.120      3.338
REMARK  Name = 5281626
REMARK  4 active torsions:
REMARK  status: ('A' for Active; 'I' for Inactive)
REMARK    1  A    between atoms: C_8  and  O_16
REMARK    2  A    between atoms: C_9  and  O_18
REMARK    3  A    between atoms: C_10  and  O_20
REMARK    4  A    between atoms: C_13  and  O_22
REMARK                            x       y       z     vdW  Elec       q    Type
REMARK                         _______ _______ _______ _____ _____    ______ ____
ROOT
ATOM      1  O   UNL     1     -38.242  25.661   3.609  0.00  0.00    -0.450 OA
ATOM      2  O   UNL     1     -38.098  21.793   2.277  0.00  0.00    -0.286 OA
ATOM      3  C   UNL     1     -37.124  23.488   3.591  0.00  0.00    +0.110 A 
ATOM      4  C   UNL     1     -39.210  23.870   2.261  0.00  0.00    +0.107 A 
ATOM      5  C   UNL     1     -37.234  24.815   4.006  0.00  0.00    +0.185 A 
ATOM      6  C   UNL     1     -39.199  25.174   2.753  0.00  0.00    +0.154 A 
ATOM      7  C   UNL     1     -38.140  22.949   2.674  0.00  0.00    +0.207 A 
ATOM      8  C   UNL     1     -40.220  23.448   1.392  0.00  0.00    +0.143 C 
ATOM      9  C   UNL     1     -36.069  22.689   4.039  0.00  0.00    +0.140 C 
ATOM     10  C   UNL     1     -36.281  25.348   4.877  0.00  0.00    +0.169 C 
ATOM     11  C   UNL     1     -40.205  26.066   2.374  0.00  0.00    +0.074 C 
ATOM     12  C   UNL     1     -41.223  24.343   1.016  0.00  0.00    +0.073 C 
ATOM     13  C   UNL     1     -41.215  25.649   1.506  0.00  0.00    +0.140 C 
ATOM     14  C   UNL     1     -35.120  23.227   4.909  0.00  0.00    +0.040 C 
ATOM     15  C   UNL     1     -35.225  24.554   5.327  0.00  0.00    +0.043 C 
ENDROOT
BRANCH   8  16
ATOM     16  O   UNL     1     -40.275  22.185   0.883  0.00  0.00    -0.505 OA
ATOM     17  H   UNL     1     -40.340  22.056  -0.043  0.00  0.00    +0.292 HD
ENDBRANCH   8  16
BRANCH   9  18
ATOM     18  O   UNL     1     -35.918  21.389   3.662  0.00  0.00    -0.505 OA
ATOM     19  H   UNL     1     -35.246  21.153   3.054  0.00  0.00    +0.292 HD
ENDBRANCH   9  18
BRANCH  10  20
ATOM     20  O   UNL     1     -36.365  26.641   5.297  0.00  0.00    -0.503 OA
ATOM     21  H   UNL     1     -35.800  26.950   5.979  0.00  0.00    +0.292 HD
ENDBRANCH  10  20
BRANCH  13  22
ATOM     22  O   UNL     1     -42.196  26.518   1.137  0.00  0.00    -0.505 OA
ATOM     23  H   UNL     1     -43.015  26.520   1.592  0.00  0.00    +0.292 HD
ENDBRANCH  13  22
TORSDOF 4
ENDMDL
MODEL 3
REMARK VINA RESULT:      -5.9      1.610      3.606
REMARK  Name = 5281626
REMARK  4 active torsions:
REMARK  status: ('A' for Active; 'I' for Inactive)
REMARK    1  A    between atoms: C_8  and  O_16
REMARK    2  A    between atoms: C_9  and  O_18
REMARK    3  A    between atoms: C_10  and  O_20
REMARK    4  A    between atoms: C_13  and  O_22
REMARK                            x       y       z     vdW  Elec       q    Type
REMARK                         _______ _______ _______ _____ _____    ______ ____
ROOT
ATOM      1  O   UNL     1     -37.642  23.999   2.499  0.00  0.00    -0.450 OA
ATOM      2  O   UNL     1     -35.470  20.728   3.653  0.00  0.00    -0.286 OA
ATOM      3  C   UNL     1     -36.055  22.975   4.048  0.00  0.00    +0.110 A 
ATOM      4  C   UNL     1     -37.002  21.671   2.132  0.00  0.00    +0.107 A 
ATOM      5  C   UNL     1     -36.822  24.050   3.599  0.00  0.00    +0.185 A 
ATOM      6  C   UNL     1     -37.714  22.822   1.795  0.00  0.00    +0.154 A 
ATOM      7  C   UNL     1     -36.118  21.706   3.308  0.00  0.00    +0.207 A 
ATOM      8  C   UNL     1     -37.127  20.510   1.366  0.00  0.00    +0.143 C 
ATOM      9  C   UNL     1     -35.243  23.105   5.177  0.00  0.00    +0.140 C 
ATOM     10  C   UNL     1     -36.778  25.265   4.287  0.00  0.00    +0.169 C 
ATOM     11  C   UNL     1     -38.559  22.811   0.683  0.00  0.00    +0.074 C 
ATOM     12  C   UNL     1     -37.973  20.505   0.256  0.00  0.00    +0.073 C 
ATOM     13  C   UNL     1     -38.687  21.653  -0.085  0.00  0.00    +0.140 C 
ATOM     14  C   UNL     1     -35.203  24.321   5.860  0.00  0.00    +0.040 C 
ATOM     15  C   UNL     1     -35.968  25.399   5.416  0.00  0.00    +0.043 C 
ENDROOT
BRANCH   8  16
ATOM     16  O   UNL     1     -36.453  19.360   1.653  0.00  0.00    -0.505 OA
ATOM     17  H   UNL     1     -35.881  19.325   2.394  0.00  0.00    +0.292 HD
ENDBRANCH   8  16
BRANCH   9  18
ATOM     18  O   UNL     1     -34.475  22.086   5.654  0.00  0.00    -0.505 OA
ATOM     19  H   UNL     1     -33.913  22.227   6.389  0.00  0.00    +0.292 HD
ENDBRANCH   9  18
BRANCH  10  20
ATOM     20  O   UNL     1     -37.517  26.331   3.870  0.00  0.00    -0.503 OA
ATOM     21  H   UNL     1     -38.357  26.496   4.251  0.00  0.00    +0.292 HD
ENDBRANCH  10  20
BRANCH  13  22
ATOM     22  O   UNL     1     -39.511  21.644  -1.168  0.00  0.00    -0.505 OA
ATOM     23  H   UNL     1     -40.071  20.909  -1.324  0.00  0.00    +0.292 HD
ENDBRANCH  13  22
TORSDOF 4
ENDMDL
MODEL 4
REMARK VINA RESULT:      -5.8      1.814      5.947
REMARK  Name = 5281626
REMARK  4 active torsions:
REMARK  status: ('A' for Active; 'I' for Inactive)
REMARK    1  A    between atoms: C_8  and  O_16
REMARK    2  A    between atoms: C_9  and  O_18
REMARK    3  A    between atoms: C_10  and  O_20
REMARK    4  A    between atoms: C_13  and  O_22
REMARK                            x       y       z     vdW  Elec       q    Type
REMARK                         _______ _______ _______ _____ _____    ______ ____
ROOT
ATOM      1  O   UNL     1     -37.751  23.771   2.059  0.00  0.00    -0.450 OA
ATOM      2  O   UNL     1     -35.562  20.625   3.494  0.00  0.00    -0.286 OA
ATOM      3  C   UNL     1     -37.021  21.450   1.840  0.00  0.00    +0.110 A 
ATOM      4  C   UNL     1     -36.240  22.867   3.750  0.00  0.00    +0.107 A 
ATOM      5  C   UNL     1     -37.742  22.562   1.407  0.00  0.00    +0.185 A 
ATOM      6  C   UNL     1     -37.006  23.896   3.206  0.00  0.00    +0.154 A 
ATOM      7  C   UNL     1     -36.217  21.564   3.066  0.00  0.00    +0.207 A 
ATOM      8  C   UNL     1     -35.508  23.071   4.922  0.00  0.00    +0.143 C 
ATOM      9  C   UNL     1     -37.062  20.253   1.121  0.00  0.00    +0.140 C 
ATOM     10  C   UNL     1     -38.512  22.476   0.244  0.00  0.00    +0.169 C 
ATOM     11  C   UNL     1     -37.042  25.141   3.838  0.00  0.00    +0.074 C 
ATOM     12  C   UNL     1     -35.547  24.317   5.550  0.00  0.00    +0.073 C 
ATOM     13  C   UNL     1     -36.313  25.349   5.009  0.00  0.00    +0.140 C 
ATOM     14  C   UNL     1     -37.833  20.173  -0.039  0.00  0.00    +0.040 C 
ATOM     15  C   UNL     1     -38.557  21.282  -0.477  0.00  0.00    +0.043 C 
ENDROOT
BRANCH   8  16
ATOM     16  O   UNL     1     -34.744  22.098   5.495  0.00  0.00    -0.505 OA
ATOM     17  H   UNL     1     -34.678  21.256   5.089  0.00  0.00    +0.292 HD
ENDBRANCH   8  16
BRANCH   9  18
ATOM     18  O   UNL     1     -36.377  19.139   1.504  0.00  0.00    -0.505 OA
ATOM     19  H   UNL     1     -36.532  18.323   1.072  0.00  0.00    +0.292 HD
ENDBRANCH   9  18
BRANCH  10  20
ATOM     20  O   UNL     1     -39.227  23.547  -0.202  0.00  0.00    -0.503 OA
ATOM     21  H   UNL     1     -39.712  24.072   0.405  0.00  0.00    +0.292 HD
ENDBRANCH  10  20
BRANCH  13  22
ATOM     22  O   UNL     1     -36.348  26.563   5.625  0.00  0.00    -0.505 OA
ATOM     23  H   UNL     1     -35.676  27.194   5.455  0.00  0.00    +0.292 HD
ENDBRANCH  13  22
TORSDOF 4
ENDMDL
MODEL 5
REMARK VINA RESULT:      -5.8      1.874      5.096
REMARK  Name = 5281626
REMARK  4 active torsions:
REMARK  status: ('A' for Active; 'I' for Inactive)
REMARK    1  A    between atoms: C_8  and  O_16
REMARK    2  A    between atoms: C_9  and  O_18
REMARK    3  A    between atoms: C_10  and  O_20
REMARK    4  A    between atoms: C_13  and  O_22
REMARK                            x       y       z     vdW  Elec       q    Type
REMARK                         _______ _______ _______ _____ _____    ______ ____
ROOT
ATOM      1  O   UNL     1     -35.283  22.248   3.450  0.00  0.00    -0.450 OA
ATOM      2  O   UNL     1     -38.700  24.179   2.291  0.00  0.00    -0.286 OA
ATOM      3  C   UNL     1     -37.331  22.271   2.118  0.00  0.00    +0.110 A 
ATOM      4  C   UNL     1     -36.737  24.205   3.592  0.00  0.00    +0.107 A 
ATOM      5  C   UNL     1     -36.151  21.670   2.556  0.00  0.00    +0.185 A 
ATOM      6  C   UNL     1     -35.593  23.491   3.944  0.00  0.00    +0.154 A 
ATOM      7  C   UNL     1     -37.679  23.603   2.636  0.00  0.00    +0.207 A 
ATOM      8  C   UNL     1     -36.983  25.467   4.139  0.00  0.00    +0.143 C 
ATOM      9  C   UNL     1     -38.164  21.619   1.205  0.00  0.00    +0.140 C 
ATOM     10  C   UNL     1     -35.801  20.405   2.077  0.00  0.00    +0.169 C 
ATOM     11  C   UNL     1     -34.684  24.044   4.851  0.00  0.00    +0.074 C 
ATOM     12  C   UNL     1     -36.072  26.014   5.044  0.00  0.00    +0.073 C 
ATOM     13  C   UNL     1     -34.926  25.304   5.399  0.00  0.00    +0.140 C 
ATOM     14  C   UNL     1     -37.809  20.356   0.730  0.00  0.00    +0.040 C 
ATOM     15  C   UNL     1     -36.630  19.750   1.165  0.00  0.00    +0.043 C 
ENDROOT
BRANCH   8  16
ATOM     16  O   UNL     1     -38.085  26.204   3.827  0.00  0.00    -0.505 OA
ATOM     17  H   UNL     1     -38.825  26.207   4.402  0.00  0.00    +0.292 HD
ENDBRANCH   8  16
BRANCH   9  18
ATOM     18  O   UNL     1     -39.325  22.164   0.747  0.00  0.00    -0.505 OA
ATOM     19  H   UNL     1     -39.593  22.018  -0.139  0.00  0.00    +0.292 HD
ENDBRANCH   9  18
BRANCH  10  20
ATOM     20  O   UNL     1     -34.654  19.795   2.488  0.00  0.00    -0.503 OA
ATOM     21  H   UNL     1     -33.883  20.304   2.646  0.00  0.00    +0.292 HD
ENDBRANCH  10  20
BRANCH  13  22
ATOM     22  O   UNL     1     -34.040  25.841   6.282  0.00  0.00    -0.505 OA
ATOM     23  H   UNL     1     -34.152  25.700   7.202  0.00  0.00    +0.292 HD
ENDBRANCH  13  22
TORSDOF 4
ENDMDL
MODEL 6
REMARK VINA RESULT:      -5.7      3.581      5.632
REMARK  Name = 5281626
REMARK  4 active torsions:
REMARK  status: ('A' for Active; 'I' for Inactive)
REMARK    1  A    between atoms: C_8  and  O_16
REMARK    2  A    between atoms: C_9  and  O_18
REMARK    3  A    between atoms: C_10  and  O_20
REMARK    4  A    between atoms: C_13  and  O_22
REMARK                            x       y       z     vdW  Elec       q    Type
REMARK                         _______ _______ _______ _____ _____    ______ ____
ROOT
ATOM      1  O   UNL     1     -33.352  26.214   5.581  0.00  0.00    -0.450 OA
ATOM      2  O   UNL     1     -35.257  27.820   2.334  0.00  0.00    -0.286 OA
ATOM      3  C   UNL     1     -33.564  28.028   3.959  0.00  0.00    +0.110 A 
ATOM      4  C   UNL     1     -35.093  26.047   3.877  0.00  0.00    +0.107 A 
ATOM      5  C   UNL     1     -32.961  27.423   5.061  0.00  0.00    +0.185 A 
ATOM      6  C   UNL     1     -34.400  25.558   4.983  0.00  0.00    +0.154 A 
ATOM      7  C   UNL     1     -34.689  27.341   3.305  0.00  0.00    +0.207 A 
ATOM      8  C   UNL     1     -36.150  25.320   3.324  0.00  0.00    +0.143 C 
ATOM      9  C   UNL     1     -33.109  29.261   3.487  0.00  0.00    +0.140 C 
ATOM     10  C   UNL     1     -31.891  28.058   5.698  0.00  0.00    +0.169 C 
ATOM     11  C   UNL     1     -34.767  24.331   5.543  0.00  0.00    +0.074 C 
ATOM     12  C   UNL     1     -36.512  24.095   3.887  0.00  0.00    +0.073 C 
ATOM     13  C   UNL     1     -35.822  23.602   4.994  0.00  0.00    +0.140 C 
ATOM     14  C   UNL     1     -32.041  29.891   4.127  0.00  0.00    +0.040 C 
ATOM     15  C   UNL     1     -31.433  29.291   5.230  0.00  0.00    +0.043 C 
ENDROOT
BRANCH   8  16
ATOM     16  O   UNL     1     -36.859  25.754   2.244  0.00  0.00    -0.505 OA
ATOM     17  H   UNL     1     -37.758  25.999   2.342  0.00  0.00    +0.292 HD
ENDBRANCH   8  16
BRANCH   9  18
ATOM     18  O   UNL     1     -33.666  29.892   2.416  0.00  0.00    -0.505 OA
ATOM     19  H   UNL     1     -34.422  29.530   2.000  0.00  0.00    +0.292 HD
ENDBRANCH   9  18
BRANCH  10  20
ATOM     20  O   UNL     1     -31.283  27.490   6.776  0.00  0.00    -0.503 OA
ATOM     21  H   UNL     1     -30.927  28.032   7.453  0.00  0.00    +0.292 HD
ENDBRANCH  10  20
BRANCH  13  22
ATOM     22  O   UNL     1     -36.179  22.407   5.539  0.00  0.00    -0.505 OA
ATOM     23  H   UNL     1     -35.982  21.609   5.088  0.00  0.00    +0.292 HD
ENDBRANCH  13  22
TORSDOF 4
ENDMDL
MODEL 7
REMARK VINA RESULT:      -5.6      2.351      4.078
REMARK  Name = 5281626
REMARK  4 active torsions:
REMARK  status: ('A' for Active; 'I' for Inactive)
REMARK    1  A    between atoms: C_8  and  O_16
REMARK    2  A    between atoms: C_9  and  O_18
REMARK    3  A    between atoms: C_10  and  O_20
REMARK    4  A    between atoms: C_13  and  O_22
REMARK                            x       y       z     vdW  Elec       q    Type
REMARK                         _______ _______ _______ _____ _____    ______ ____
ROOT
ATOM      1  O   UNL     1     -36.690  23.944   2.075  0.00  0.00    -0.450 OA
ATOM      2  O   UNL     1     -35.275  20.393   3.539  0.00  0.00    -0.286 OA
ATOM      3  C   UNL     1     -35.730  22.671   3.926  0.00  0.00    +0.110 A 
ATOM      4  C   UNL     1     -36.198  21.578   1.724  0.00  0.00    +0.107 A 
ATOM      5  C   UNL     1     -36.225  23.847   3.364  0.00  0.00    +0.185 A 
ATOM      6  C   UNL     1     -36.666  22.817   1.290  0.00  0.00    +0.154 A 
ATOM      7  C   UNL     1     -35.696  21.454   3.101  0.00  0.00    +0.207 A 
ATOM      8  C   UNL     1     -36.206  20.476   0.865  0.00  0.00    +0.143 C 
ATOM      9  C   UNL     1     -35.274  22.652   5.247  0.00  0.00    +0.140 C 
ATOM     10  C   UNL     1     -36.267  25.015   4.130  0.00  0.00    +0.169 C 
ATOM     11  C   UNL     1     -37.147  22.958  -0.014  0.00  0.00    +0.074 C 
ATOM     12  C   UNL     1     -36.687  20.622  -0.437  0.00  0.00    +0.073 C 
ATOM     13  C   UNL     1     -37.157  21.860  -0.875  0.00  0.00    +0.140 C 
ATOM     14  C   UNL     1     -35.318  23.822   6.007  0.00  0.00    +0.040 C 
ATOM     15  C   UNL     1     -35.813  25.001   5.450  0.00  0.00    +0.043 C 
ENDROOT
BRANCH   8  16
ATOM     16  O   UNL     1     -35.758  19.245   1.239  0.00  0.00    -0.505 OA
ATOM     17  H   UNL     1     -35.664  18.567   0.600  0.00  0.00    +0.292 HD
ENDBRANCH   8  16
BRANCH   9  18
ATOM     18  O   UNL     1     -34.781  21.530   5.840  0.00  0.00    -0.505 OA
ATOM     19  H   UNL     1     -34.905  21.392   6.759  0.00  0.00    +0.292 HD
ENDBRANCH   9  18
BRANCH  10  20
ATOM     20  O   UNL     1     -36.746  26.178   3.606  0.00  0.00    -0.503 OA
ATOM     21  H   UNL     1     -36.333  26.559   2.855  0.00  0.00    +0.292 HD
ENDBRANCH  10  20
BRANCH  13  22
ATOM     22  O   UNL     1     -37.626  21.998  -2.146  0.00  0.00    -0.505 OA
ATOM     23  H   UNL     1     -38.001  22.812  -2.421  0.00  0.00    +0.292 HD
ENDBRANCH  13  22
TORSDOF 4
ENDMDL
MODEL 8
REMARK VINA RESULT:      -5.6      3.608      5.307
REMARK  Name = 5281626
REMARK  4 active torsions:
REMARK  status: ('A' for Active; 'I' for Inactive)
REMARK    1  A    between atoms: C_8  and  O_16
REMARK    2  A    between atoms: C_9  and  O_18
REMARK    3  A    between atoms: C_10  and  O_20
REMARK    4  A    between atoms: C_13  and  O_22
REMARK                            x       y       z     vdW  Elec       q    Type
REMARK                         _______ _______ _______ _____ _____    ______ ____
ROOT
ATOM      1  O   UNL     1     -33.906  25.213   5.217  0.00  0.00    -0.450 OA
ATOM      2  O   UNL     1     -34.679  24.968   1.206  0.00  0.00    -0.286 OA
ATOM      3  C   UNL     1     -33.851  26.244   3.003  0.00  0.00    +0.110 A 
ATOM      4  C   UNL     1     -34.755  23.931   3.320  0.00  0.00    +0.107 A 
ATOM      5  C   UNL     1     -33.614  26.260   4.377  0.00  0.00    +0.185 A 
ATOM      6  C   UNL     1     -34.465  24.082   4.675  0.00  0.00    +0.154 A 
ATOM      7  C   UNL     1     -34.450  25.041   2.404  0.00  0.00    +0.207 A 
ATOM      8  C   UNL     1     -35.324  22.748   2.843  0.00  0.00    +0.143 C 
ATOM      9  C   UNL     1     -33.527  27.350   2.213  0.00  0.00    +0.140 C 
ATOM     10  C   UNL     1     -33.046  27.392   4.967  0.00  0.00    +0.169 C 
ATOM     11  C   UNL     1     -34.746  23.040   5.562  0.00  0.00    +0.074 C 
ATOM     12  C   UNL     1     -35.603  21.711   3.734  0.00  0.00    +0.073 C 
ATOM     13  C   UNL     1     -35.315  21.856   5.091  0.00  0.00    +0.140 C 
ATOM     14  C   UNL     1     -32.960  28.478   2.808  0.00  0.00    +0.040 C 
ATOM     15  C   UNL     1     -32.721  28.499   4.182  0.00  0.00    +0.043 C 
ENDROOT
BRANCH   8  16
ATOM     16  O   UNL     1     -35.627  22.551   1.529  0.00  0.00    -0.505 OA
ATOM     17  H   UNL     1     -36.163  21.825   1.276  0.00  0.00    +0.292 HD
ENDBRANCH   8  16
BRANCH   9  18
ATOM     18  O   UNL     1     -33.740  27.384   0.869  0.00  0.00    -0.505 OA
ATOM     19  H   UNL     1     -34.519  27.777   0.527  0.00  0.00    +0.292 HD
ENDBRANCH   9  18
BRANCH  10  20
ATOM     20  O   UNL     1     -32.804  27.434   6.307  0.00  0.00    -0.503 OA
ATOM     21  H   UNL     1     -32.556  26.654   6.763  0.00  0.00    +0.292 HD
ENDBRANCH  10  20
BRANCH  13  22
ATOM     22  O   UNL     1     -35.589  20.842   5.956  0.00  0.00    -0.505 OA
ATOM     23  H   UNL     1     -35.404  19.956   5.713  0.00  0.00    +0.292 HD
ENDBRANCH  13  22
TORSDOF 4
ENDMDL
MODEL 9
REMARK VINA RESULT:      -5.6      3.455      6.084
REMARK  Name = 5281626
REMARK  4 active torsions:
REMARK  status: ('A' for Active; 'I' for Inactive)
REMARK    1  A    between atoms: C_8  and  O_16
REMARK    2  A    between atoms: C_9  and  O_18
REMARK    3  A    between atoms: C_10  and  O_20
REMARK    4  A    between atoms: C_13  and  O_22
REMARK                            x       y       z     vdW  Elec       q    Type
REMARK                         _______ _______ _______ _____ _____    ______ ____
ROOT
ATOM      1  O   UNL     1     -34.869  24.037   1.371  0.00  0.00    -0.450 OA
ATOM      2  O   UNL     1     -35.443  20.615   3.540  0.00  0.00    -0.286 OA
ATOM      3  C   UNL     1     -34.899  21.596   1.470  0.00  0.00    +0.110 A 
ATOM      4  C   UNL     1     -35.430  22.970   3.494  0.00  0.00    +0.107 A 
ATOM      5  C   UNL     1     -34.719  22.801   0.791  0.00  0.00    +0.185 A 
ATOM      6  C   UNL     1     -35.218  24.094   2.698  0.00  0.00    +0.154 A 
ATOM      7  C   UNL     1     -35.273  21.637   2.892  0.00  0.00    +0.207 A 
ATOM      8  C   UNL     1     -35.783  23.109   4.839  0.00  0.00    +0.143 C 
ATOM      9  C   UNL     1     -34.727  20.377   0.810  0.00  0.00    +0.140 C 
ATOM     10  C   UNL     1     -34.363  22.786  -0.560  0.00  0.00    +0.169 C 
ATOM     11  C   UNL     1     -35.362  25.369   3.249  0.00  0.00    +0.074 C 
ATOM     12  C   UNL     1     -35.925  24.385   5.385  0.00  0.00    +0.073 C 
ATOM     13  C   UNL     1     -35.715  25.513   4.592  0.00  0.00    +0.140 C 
ATOM     14  C   UNL     1     -34.372  20.368  -0.539  0.00  0.00    +0.040 C 
ATOM     15  C   UNL     1     -34.191  21.570  -1.223  0.00  0.00    +0.043 C 
ENDROOT
BRANCH   8  16
ATOM     16  O   UNL     1     -36.002  22.043   5.659  0.00  0.00    -0.505 OA
ATOM     17  H   UNL     1     -35.917  22.141   6.587  0.00  0.00    +0.292 HD
ENDBRANCH   8  16
BRANCH   9  18
ATOM     18  O   UNL     1     -34.893  19.175   1.429  0.00  0.00    -0.505 OA
ATOM     19  H   UNL     1     -34.154  18.728   1.790  0.00  0.00    +0.292 HD
ENDBRANCH   9  18
BRANCH  10  20
ATOM     20  O   UNL     1     -34.181  23.949  -1.247  0.00  0.00    -0.503 OA
ATOM     21  H   UNL     1     -34.586  24.067  -2.084  0.00  0.00    +0.292 HD
ENDBRANCH  10  20
BRANCH  13  22
ATOM     22  O   UNL     1     -35.854  26.756   5.128  0.00  0.00    -0.505 OA
ATOM     23  H   UNL     1     -35.823  27.512   4.574  0.00  0.00    +0.292 HD
ENDBRANCH  13  22
TORSDOF 4
ENDMDL
