MODEL 1
REMARK VINA RESULT:      -7.0      0.000      0.000
REMARK  Name = 5281813
REMARK  4 active torsions:
REMARK  status: ('A' for Active; 'I' for Inactive)
REMARK    1  A    between atoms: C_11  and  O_19
REMARK    2  A    between atoms: C_15  and  O_23
REMARK    3  A    between atoms: C_17  and  O_21
REMARK    4  A    between atoms: C_18  and  O_25
REMARK                            x       y       z     vdW  Elec       q    Type
REMARK                         _______ _______ _______ _____ _____    ______ ____
ROOT
ATOM      1  O   UNL     1     -33.687  25.147   5.636  0.00  0.00    -0.453 OA
ATOM      2  O   UNL     1     -33.827  27.842   2.570  0.00  0.00    -0.421 OA
ATOM      3  O   UNL     1     -34.996  26.264   1.350  0.00  0.00    -0.244 OA
ATOM      4  C   UNL     1     -34.332  25.684   3.535  0.00  0.00    +0.114 A 
ATOM      5  C   UNL     1     -33.688  26.095   4.674  0.00  0.00    +0.157 A 
ATOM      6  C   UNL     1     -34.777  24.363   3.800  0.00  0.00    +0.047 A 
ATOM      7  C   UNL     1     -33.070  27.375   4.868  0.00  0.00    +0.103 A 
ATOM      8  C   UNL     1     -34.357  24.079   5.102  0.00  0.00    +0.149 A 
ATOM      9  C   UNL     1     -33.159  28.247   3.770  0.00  0.00    +0.158 A 
ATOM     10  C   UNL     1     -34.433  26.567   2.395  0.00  0.00    +0.349 A 
ATOM     11  C   UNL     1     -32.417  27.792   6.023  0.00  0.00    +0.143 C 
ATOM     12  C   UNL     1     -35.485  23.372   3.095  0.00  0.00    +0.043 C 
ATOM     13  C   UNL     1     -34.597  22.870   5.752  0.00  0.00    +0.077 C 
ATOM     14  C   UNL     1     -32.608  29.523   3.806  0.00  0.00    +0.075 C 
ATOM     15  C   UNL     1     -35.739  22.147   3.727  0.00  0.00    +0.168 C 
ATOM     16  C   UNL     1     -31.860  29.074   6.069  0.00  0.00    +0.074 C 
ATOM     17  C   UNL     1     -31.956  29.934   4.968  0.00  0.00    +0.145 C 
ATOM     18  C   UNL     1     -35.303  21.904   5.031  0.00  0.00    +0.171 C 
ENDROOT
BRANCH  11  19
ATOM     19  O   UNL     1     -32.298  26.992   7.118  0.00  0.00    -0.505 OA
ATOM     20  H   UNL     1     -31.453  26.816   7.481  0.00  0.00    +0.292 HD
ENDBRANCH  11  19
BRANCH  17  21
ATOM     21  O   UNL     1     -31.406  31.179   5.033  0.00  0.00    -0.471 OA
ATOM     22  C   UNL     1     -29.992  31.272   4.875  0.00  0.00    +0.252 C 
ENDBRANCH  17  21
BRANCH  15  23
ATOM     23  O   UNL     1     -36.427  21.186   3.044  0.00  0.00    -0.503 OA
ATOM     24  H   UNL     1     -36.580  20.350   3.437  0.00  0.00    +0.292 HD
ENDBRANCH  15  23
BRANCH  18  25
ATOM     25  O   UNL     1     -35.562  20.702   5.625  0.00  0.00    -0.503 OA
ATOM     26  H   UNL     1     -35.556  19.916   5.115  0.00  0.00    +0.292 HD
ENDBRANCH  18  25
TORSDOF 4
ENDMDL
MODEL 2
REMARK VINA RESULT:      -6.5      1.729      3.341
REMARK  Name = 5281813
REMARK  4 active torsions:
REMARK  status: ('A' for Active; 'I' for Inactive)
REMARK    1  A    between atoms: C_11  and  O_19
REMARK    2  A    between atoms: C_15  and  O_23
REMARK    3  A    between atoms: C_17  and  O_21
REMARK    4  A    between atoms: C_18  and  O_25
REMARK                            x       y       z     vdW  Elec       q    Type
REMARK                         _______ _______ _______ _____ _____    ______ ____
ROOT
ATOM      1  O   UNL     1     -34.638  24.946   2.207  0.00  0.00    -0.453 OA
ATOM      2  O   UNL     1     -33.404  27.784   4.872  0.00  0.00    -0.421 OA
ATOM      3  O   UNL     1     -33.722  26.225   6.549  0.00  0.00    -0.244 OA
ATOM      4  C   UNL     1     -34.194  25.562   4.337  0.00  0.00    +0.114 A 
ATOM      5  C   UNL     1     -34.220  25.941   3.019  0.00  0.00    +0.157 A 
ATOM      6  C   UNL     1     -34.633  24.214   4.361  0.00  0.00    +0.047 A 
ATOM      7  C   UNL     1     -33.854  27.232   2.513  0.00  0.00    +0.103 A 
ATOM      8  C   UNL     1     -34.894  23.881   3.029  0.00  0.00    +0.149 A 
ATOM      9  C   UNL     1     -33.440  28.154   3.490  0.00  0.00    +0.158 A 
ATOM     10  C   UNL     1     -33.771  26.498   5.356  0.00  0.00    +0.349 A 
ATOM     11  C   UNL     1     -33.880  27.615   1.176  0.00  0.00    +0.143 C 
ATOM     12  C   UNL     1     -34.842  23.233   5.347  0.00  0.00    +0.043 C 
ATOM     13  C   UNL     1     -35.349  22.632   2.612  0.00  0.00    +0.077 C 
ATOM     14  C   UNL     1     -33.055  29.447   3.153  0.00  0.00    +0.075 C 
ATOM     15  C   UNL     1     -35.300  21.968   4.954  0.00  0.00    +0.168 C 
ATOM     16  C   UNL     1     -33.495  28.913   0.829  0.00  0.00    +0.074 C 
ATOM     17  C   UNL     1     -33.084  29.822   1.811  0.00  0.00    +0.145 C 
ATOM     18  C   UNL     1     -35.548  21.676   3.612  0.00  0.00    +0.171 C 
ENDROOT
BRANCH  11  19
ATOM     19  O   UNL     1     -34.272  26.766   0.186  0.00  0.00    -0.505 OA
ATOM     20  H   UNL     1     -33.688  26.102  -0.121  0.00  0.00    +0.292 HD
ENDBRANCH  11  19
BRANCH  17  21
ATOM     21  O   UNL     1     -32.711  31.084   1.452  0.00  0.00    -0.471 OA
ATOM     22  C   UNL     1     -33.054  32.140   2.347  0.00  0.00    +0.252 C 
ENDBRANCH  17  21
BRANCH  15  23
ATOM     23  O   UNL     1     -35.501  21.016   5.912  0.00  0.00    -0.503 OA
ATOM     24  H   UNL     1     -35.933  20.214   5.692  0.00  0.00    +0.292 HD
ENDBRANCH  15  23
BRANCH  18  25
ATOM     25  O   UNL     1     -35.994  20.436   3.254  0.00  0.00    -0.503 OA
ATOM     26  H   UNL     1     -35.794  19.693   3.790  0.00  0.00    +0.292 HD
ENDBRANCH  18  25
TORSDOF 4
ENDMDL
MODEL 3
REMARK VINA RESULT:      -6.4      1.968      3.943
REMARK  Name = 5281813
REMARK  4 active torsions:
REMARK  status: ('A' for Active; 'I' for Inactive)
REMARK    1  A    between atoms: C_11  and  O_19
REMARK    2  A    between atoms: C_15  and  O_23
REMARK    3  A    between atoms: C_17  and  O_21
REMARK    4  A    between atoms: C_18  and  O_25
REMARK                            x       y       z     vdW  Elec       q    Type
REMARK                         _______ _______ _______ _____ _____    ______ ____
ROOT
ATOM      1  O   UNL     1     -34.376  23.931   1.799  0.00  0.00    -0.453 OA
ATOM      2  O   UNL     1     -34.890  24.384   5.826  0.00  0.00    -0.421 OA
ATOM      3  O   UNL     1     -36.039  22.378   5.818  0.00  0.00    -0.244 OA
ATOM      4  C   UNL     1     -35.195  23.162   3.762  0.00  0.00    +0.114 A 
ATOM      5  C   UNL     1     -34.501  24.158   3.125  0.00  0.00    +0.157 A 
ATOM      6  C   UNL     1     -35.539  22.225   2.754  0.00  0.00    +0.047 A 
ATOM      7  C   UNL     1     -33.951  25.325   3.751  0.00  0.00    +0.103 A 
ATOM      8  C   UNL     1     -35.014  22.742   1.567  0.00  0.00    +0.149 A 
ATOM      9  C   UNL     1     -34.168  25.410   5.137  0.00  0.00    +0.158 A 
ATOM     10  C   UNL     1     -35.429  23.233   5.187  0.00  0.00    +0.349 A 
ATOM     11  C   UNL     1     -33.245  26.335   3.104  0.00  0.00    +0.143 C 
ATOM     12  C   UNL     1     -36.232  21.002   2.701  0.00  0.00    +0.043 C 
ATOM     13  C   UNL     1     -35.132  22.119   0.326  0.00  0.00    +0.077 C 
ATOM     14  C   UNL     1     -33.695  26.484   5.884  0.00  0.00    +0.075 C 
ATOM     15  C   UNL     1     -36.364  20.355   1.465  0.00  0.00    +0.168 C 
ATOM     16  C   UNL     1     -32.766  27.418   3.847  0.00  0.00    +0.074 C 
ATOM     17  C   UNL     1     -32.989  27.491   5.227  0.00  0.00    +0.145 C 
ATOM     18  C   UNL     1     -35.823  20.905   0.301  0.00  0.00    +0.171 C 
ENDROOT
BRANCH  11  19
ATOM     19  O   UNL     1     -33.005  26.308   1.765  0.00  0.00    -0.505 OA
ATOM     20  H   UNL     1     -32.139  26.461   1.440  0.00  0.00    +0.292 HD
ENDBRANCH  11  19
BRANCH  17  21
ATOM     21  O   UNL     1     -32.514  28.556   5.934  0.00  0.00    -0.471 OA
ATOM     22  C   UNL     1     -31.106  28.611   6.155  0.00  0.00    +0.252 C 
ENDBRANCH  17  21
BRANCH  15  23
ATOM     23  O   UNL     1     -37.035  19.167   1.414  0.00  0.00    -0.503 OA
ATOM     24  H   UNL     1     -37.972  19.157   1.421  0.00  0.00    +0.292 HD
ENDBRANCH  15  23
BRANCH  18  25
ATOM     25  O   UNL     1     -35.965  20.256  -0.892  0.00  0.00    -0.503 OA
ATOM     26  H   UNL     1     -35.478  20.538  -1.641  0.00  0.00    +0.292 HD
ENDBRANCH  18  25
TORSDOF 4
ENDMDL
MODEL 4
REMARK VINA RESULT:      -6.3      3.450      5.857
REMARK  Name = 5281813
REMARK  4 active torsions:
REMARK  status: ('A' for Active; 'I' for Inactive)
REMARK    1  A    between atoms: C_11  and  O_19
REMARK    2  A    between atoms: C_15  and  O_23
REMARK    3  A    between atoms: C_17  and  O_21
REMARK    4  A    between atoms: C_18  and  O_25
REMARK                            x       y       z     vdW  Elec       q    Type
REMARK                         _______ _______ _______ _____ _____    ______ ____
ROOT
ATOM      1  O   UNL     1     -38.512  24.030   2.303  0.00  0.00    -0.453 OA
ATOM      2  O   UNL     1     -35.216  22.194   3.868  0.00  0.00    -0.421 OA
ATOM      3  O   UNL     1     -35.794  20.313   2.654  0.00  0.00    -0.244 OA
ATOM      4  C   UNL     1     -37.188  22.204   2.468  0.00  0.00    +0.114 A 
ATOM      5  C   UNL     1     -37.406  23.499   2.865  0.00  0.00    +0.157 A 
ATOM      6  C   UNL     1     -38.248  21.889   1.579  0.00  0.00    +0.047 A 
ATOM      7  C   UNL     1     -36.580  24.244   3.771  0.00  0.00    +0.103 A 
ATOM      8  C   UNL     1     -39.034  23.043   1.511  0.00  0.00    +0.149 A 
ATOM      9  C   UNL     1     -35.466  23.546   4.266  0.00  0.00    +0.158 A 
ATOM     10  C   UNL     1     -36.047  21.470   2.969  0.00  0.00    +0.349 A 
ATOM     11  C   UNL     1     -36.800  25.558   4.172  0.00  0.00    +0.143 C 
ATOM     12  C   UNL     1     -38.638  20.769   0.824  0.00  0.00    +0.043 C 
ATOM     13  C   UNL     1     -40.187  23.155   0.736  0.00  0.00    +0.077 C 
ATOM     14  C   UNL     1     -34.573  24.136   5.154  0.00  0.00    +0.075 C 
ATOM     15  C   UNL     1     -39.794  20.856   0.037  0.00  0.00    +0.168 C 
ATOM     16  C   UNL     1     -35.907  26.159   5.065  0.00  0.00    +0.074 C 
ATOM     17  C   UNL     1     -34.801  25.453   5.551  0.00  0.00    +0.145 C 
ATOM     18  C   UNL     1     -40.552  22.028  -0.005  0.00  0.00    +0.171 C 
ENDROOT
BRANCH  11  19
ATOM     19  O   UNL     1     -37.862  26.284   3.726  0.00  0.00    -0.505 OA
ATOM     20  H   UNL     1     -38.680  26.248   4.182  0.00  0.00    +0.292 HD
ENDBRANCH  11  19
BRANCH  17  21
ATOM     21  O   UNL     1     -33.942  26.057   6.420  0.00  0.00    -0.471 OA
ATOM     22  C   UNL     1     -33.071  27.052   5.885  0.00  0.00    +0.252 C 
ENDBRANCH  17  21
BRANCH  15  23
ATOM     23  O   UNL     1     -40.172  19.769  -0.697  0.00  0.00    -0.503 OA
ATOM     24  H   UNL     1     -40.472  18.993  -0.266  0.00  0.00    +0.292 HD
ENDBRANCH  15  23
BRANCH  18  25
ATOM     25  O   UNL     1     -41.675  22.089  -0.781  0.00  0.00    -0.503 OA
ATOM     26  H   UNL     1     -42.499  21.810  -0.434  0.00  0.00    +0.292 HD
ENDBRANCH  18  25
TORSDOF 4
ENDMDL
MODEL 5
REMARK VINA RESULT:      -6.2      3.596      5.381
REMARK  Name = 5281813
REMARK  4 active torsions:
REMARK  status: ('A' for Active; 'I' for Inactive)
REMARK    1  A    between atoms: C_11  and  O_19
REMARK    2  A    between atoms: C_15  and  O_23
REMARK    3  A    between atoms: C_17  and  O_21
REMARK    4  A    between atoms: C_18  and  O_25
REMARK                            x       y       z     vdW  Elec       q    Type
REMARK                         _______ _______ _______ _____ _____    ______ ____
ROOT
ATOM      1  O   UNL     1     -37.966  22.774   3.026  0.00  0.00    -0.453 OA
ATOM      2  O   UNL     1     -36.889  26.712   2.880  0.00  0.00    -0.421 OA
ATOM      3  O   UNL     1     -38.409  26.975   1.159  0.00  0.00    -0.244 OA
ATOM      4  C   UNL     1     -38.190  24.827   2.104  0.00  0.00    +0.114 A 
ATOM      5  C   UNL     1     -37.552  24.060   3.045  0.00  0.00    +0.157 A 
ATOM      6  C   UNL     1     -39.083  23.953   1.433  0.00  0.00    +0.047 A 
ATOM      7  C   UNL     1     -36.554  24.524   3.964  0.00  0.00    +0.103 A 
ATOM      8  C   UNL     1     -38.908  22.704   2.036  0.00  0.00    +0.149 A 
ATOM      9  C   UNL     1     -36.237  25.889   3.854  0.00  0.00    +0.158 A 
ATOM     10  C   UNL     1     -37.876  26.233   1.975  0.00  0.00    +0.349 A 
ATOM     11  C   UNL     1     -35.908  23.745   4.919  0.00  0.00    +0.143 C 
ATOM     12  C   UNL     1     -40.019  24.065   0.389  0.00  0.00    +0.043 C 
ATOM     13  C   UNL     1     -39.606  21.556   1.667  0.00  0.00    +0.077 C 
ATOM     14  C   UNL     1     -35.288  26.485   4.677  0.00  0.00    +0.075 C 
ATOM     15  C   UNL     1     -40.735  22.925  -0.001  0.00  0.00    +0.168 C 
ATOM     16  C   UNL     1     -34.952  24.337   5.751  0.00  0.00    +0.074 C 
ATOM     17  C   UNL     1     -34.645  25.697   5.631  0.00  0.00    +0.145 C 
ATOM     18  C   UNL     1     -40.531  21.696   0.628  0.00  0.00    +0.171 C 
ENDROOT
BRANCH  11  19
ATOM     19  O   UNL     1     -36.172  22.419   5.072  0.00  0.00    -0.505 OA
ATOM     20  H   UNL     1     -35.493  21.787   4.943  0.00  0.00    +0.292 HD
ENDBRANCH  11  19
BRANCH  17  21
ATOM     21  O   UNL     1     -33.711  26.255   6.451  0.00  0.00    -0.471 OA
ATOM     22  C   UNL     1     -32.869  27.258   5.887  0.00  0.00    +0.252 C 
ENDBRANCH  17  21
BRANCH  15  23
ATOM     23  O   UNL     1     -41.644  23.035  -1.014  0.00  0.00    -0.503 OA
ATOM     24  H   UNL     1     -42.071  23.854  -1.174  0.00  0.00    +0.292 HD
ENDBRANCH  15  23
BRANCH  18  25
ATOM     25  O   UNL     1     -41.240  20.599   0.230  0.00  0.00    -0.503 OA
ATOM     26  H   UNL     1     -41.608  20.565  -0.632  0.00  0.00    +0.292 HD
ENDBRANCH  18  25
TORSDOF 4
ENDMDL
MODEL 6
REMARK VINA RESULT:      -6.1      1.256      6.731
REMARK  Name = 5281813
REMARK  4 active torsions:
REMARK  status: ('A' for Active; 'I' for Inactive)
REMARK    1  A    between atoms: C_11  and  O_19
REMARK    2  A    between atoms: C_15  and  O_23
REMARK    3  A    between atoms: C_17  and  O_21
REMARK    4  A    between atoms: C_18  and  O_25
REMARK                            x       y       z     vdW  Elec       q    Type
REMARK                         _______ _______ _______ _____ _____    ______ ____
ROOT
ATOM      1  O   UNL     1     -33.676  25.837   5.615  0.00  0.00    -0.453 OA
ATOM      2  O   UNL     1     -34.526  25.597   1.627  0.00  0.00    -0.421 OA
ATOM      3  O   UNL     1     -33.458  27.630   1.364  0.00  0.00    -0.244 OA
ATOM      4  C   UNL     1     -33.564  26.725   3.537  0.00  0.00    +0.114 A 
ATOM      5  C   UNL     1     -33.998  25.679   4.313  0.00  0.00    +0.157 A 
ATOM      6  C   UNL     1     -32.914  27.620   4.425  0.00  0.00    +0.047 A 
ATOM      7  C   UNL     1     -34.713  24.529   3.840  0.00  0.00    +0.103 A 
ATOM      8  C   UNL     1     -33.009  27.030   5.688  0.00  0.00    +0.149 A 
ATOM      9  C   UNL     1     -34.967  24.518   2.458  0.00  0.00    +0.158 A 
ATOM     10  C   UNL     1     -33.818  26.731   2.114  0.00  0.00    +0.349 A 
ATOM     11  C   UNL     1     -35.151  23.469   4.626  0.00  0.00    +0.143 C 
ATOM     12  C   UNL     1     -32.255  28.858   4.314  0.00  0.00    +0.043 C 
ATOM     13  C   UNL     1     -32.489  27.593   6.853  0.00  0.00    +0.077 C 
ATOM     14  C   UNL     1     -35.651  23.470   1.852  0.00  0.00    +0.075 C 
ATOM     15  C   UNL     1     -31.724  29.445   5.470  0.00  0.00    +0.168 C 
ATOM     16  C   UNL     1     -35.840  22.411   4.025  0.00  0.00    +0.074 C 
ATOM     17  C   UNL     1     -36.087  22.411   2.647  0.00  0.00    +0.145 C 
ATOM     18  C   UNL     1     -31.839  28.822   6.714  0.00  0.00    +0.171 C 
ENDROOT
BRANCH  11  19
ATOM     19  O   UNL     1     -34.934  23.424   5.970  0.00  0.00    -0.505 OA
ATOM     20  H   UNL     1     -34.121  23.100   6.303  0.00  0.00    +0.292 HD
ENDBRANCH  11  19
BRANCH  17  21
ATOM     21  O   UNL     1     -36.760  21.370   2.080  0.00  0.00    -0.471 OA
ATOM     22  C   UNL     1     -36.041  20.151   1.907  0.00  0.00    +0.252 C 
ENDBRANCH  17  21
BRANCH  15  23
ATOM     23  O   UNL     1     -31.084  30.646   5.361  0.00  0.00    -0.503 OA
ATOM     24  H   UNL     1     -30.851  30.979   4.516  0.00  0.00    +0.292 HD
ENDBRANCH  15  23
BRANCH  18  25
ATOM     25  O   UNL     1     -31.313  29.415   7.826  0.00  0.00    -0.503 OA
ATOM     26  H   UNL     1     -30.387  29.545   7.895  0.00  0.00    +0.292 HD
ENDBRANCH  18  25
TORSDOF 4
ENDMDL
MODEL 7
REMARK VINA RESULT:      -6.0      3.631      8.590
REMARK  Name = 5281813
REMARK  4 active torsions:
REMARK  status: ('A' for Active; 'I' for Inactive)
REMARK    1  A    between atoms: C_11  and  O_19
REMARK    2  A    between atoms: C_15  and  O_23
REMARK    3  A    between atoms: C_17  and  O_21
REMARK    4  A    between atoms: C_18  and  O_25
REMARK                            x       y       z     vdW  Elec       q    Type
REMARK                         _______ _______ _______ _____ _____    ______ ____
ROOT
ATOM      1  O   UNL     1     -35.221  22.168   2.882  0.00  0.00    -0.453 OA
ATOM      2  O   UNL     1     -38.843  21.561   1.096  0.00  0.00    -0.421 OA
ATOM      3  O   UNL     1     -39.600  23.457   2.182  0.00  0.00    -0.244 OA
ATOM      4  C   UNL     1     -37.364  22.808   2.547  0.00  0.00    +0.114 A 
ATOM      5  C   UNL     1     -36.383  21.894   2.253  0.00  0.00    +0.157 A 
ATOM      6  C   UNL     1     -36.770  23.737   3.439  0.00  0.00    +0.047 A 
ATOM      7  C   UNL     1     -36.530  20.764   1.382  0.00  0.00    +0.103 A 
ATOM      8  C   UNL     1     -35.454  23.301   3.614  0.00  0.00    +0.149 A 
ATOM      9  C   UNL     1     -37.803  20.622   0.805  0.00  0.00    +0.158 A 
ATOM     10  C   UNL     1     -38.681  22.677   1.964  0.00  0.00    +0.349 A 
ATOM     11  C   UNL     1     -35.534  19.839   1.083  0.00  0.00    +0.143 C 
ATOM     12  C   UNL     1     -37.186  24.895   4.121  0.00  0.00    +0.043 C 
ATOM     13  C   UNL     1     -34.521  23.945   4.424  0.00  0.00    +0.077 C 
ATOM     14  C   UNL     1     -38.098  19.575  -0.061  0.00  0.00    +0.075 C 
ATOM     15  C   UNL     1     -36.267  25.561   4.942  0.00  0.00    +0.168 C 
ATOM     16  C   UNL     1     -35.822  18.783   0.213  0.00  0.00    +0.074 C 
ATOM     17  C   UNL     1     -37.095  18.652  -0.355  0.00  0.00    +0.145 C 
ATOM     18  C   UNL     1     -34.960  25.093   5.089  0.00  0.00    +0.171 C 
ENDROOT
BRANCH  11  19
ATOM     19  O   UNL     1     -34.282  19.924   1.611  0.00  0.00    -0.505 OA
ATOM     20  H   UNL     1     -34.150  20.345   2.438  0.00  0.00    +0.292 HD
ENDBRANCH  11  19
BRANCH  17  21
ATOM     21  O   UNL     1     -37.355  17.616  -1.201  0.00  0.00    -0.471 OA
ATOM     22  C   UNL     1     -38.361  16.689  -0.799  0.00  0.00    +0.252 C 
ENDBRANCH  17  21
BRANCH  15  23
ATOM     23  O   UNL     1     -36.671  26.686   5.603  0.00  0.00    -0.503 OA
ATOM     24  H   UNL     1     -36.037  27.308   5.900  0.00  0.00    +0.292 HD
ENDBRANCH  15  23
BRANCH  18  25
ATOM     25  O   UNL     1     -34.082  25.760   5.895  0.00  0.00    -0.503 OA
ATOM     26  H   UNL     1     -34.095  25.618   6.822  0.00  0.00    +0.292 HD
ENDBRANCH  18  25
TORSDOF 4
ENDMDL
MODEL 8
REMARK VINA RESULT:      -6.0      2.258      7.395
REMARK  Name = 5281813
REMARK  4 active torsions:
REMARK  status: ('A' for Active; 'I' for Inactive)
REMARK    1  A    between atoms: C_11  and  O_19
REMARK    2  A    between atoms: C_15  and  O_23
REMARK    3  A    between atoms: C_17  and  O_21
REMARK    4  A    between atoms: C_18  and  O_25
REMARK                            x       y       z     vdW  Elec       q    Type
REMARK                         _______ _______ _______ _____ _____    ______ ____
ROOT
ATOM      1  O   UNL     1     -35.291  28.639   2.701  0.00  0.00    -0.453 OA
ATOM      2  O   UNL     1     -32.969  26.331   5.143  0.00  0.00    -0.421 OA
ATOM      3  O   UNL     1     -31.351  27.977   5.018  0.00  0.00    -0.244 OA
ATOM      4  C   UNL     1     -33.357  28.324   3.831  0.00  0.00    +0.114 A 
ATOM      5  C   UNL     1     -34.590  27.815   3.509  0.00  0.00    +0.157 A 
ATOM      6  C   UNL     1     -33.272  29.577   3.170  0.00  0.00    +0.047 A 
ATOM      7  C   UNL     1     -35.116  26.558   3.956  0.00  0.00    +0.103 A 
ATOM      8  C   UNL     1     -34.484  29.724   2.490  0.00  0.00    +0.149 A 
ATOM      9  C   UNL     1     -34.260  25.822   4.792  0.00  0.00    +0.158 A 
ATOM     10  C   UNL     1     -32.463  27.580   4.690  0.00  0.00    +0.349 A 
ATOM     11  C   UNL     1     -36.367  26.042   3.630  0.00  0.00    +0.143 C 
ATOM     12  C   UNL     1     -32.318  30.604   3.064  0.00  0.00    +0.043 C 
ATOM     13  C   UNL     1     -34.810  30.831   1.708  0.00  0.00    +0.077 C 
ATOM     14  C   UNL     1     -34.630  24.583   5.305  0.00  0.00    +0.075 C 
ATOM     15  C   UNL     1     -32.621  31.728   2.284  0.00  0.00    +0.168 C 
ATOM     16  C   UNL     1     -36.747  24.798   4.141  0.00  0.00    +0.074 C 
ATOM     17  C   UNL     1     -35.885  24.074   4.973  0.00  0.00    +0.145 C 
ATOM     18  C   UNL     1     -33.844  31.838   1.621  0.00  0.00    +0.171 C 
ENDROOT
BRANCH  11  19
ATOM     19  O   UNL     1     -37.238  26.709   2.824  0.00  0.00    -0.505 OA
ATOM     20  H   UNL     1     -36.918  27.213   2.102  0.00  0.00    +0.292 HD
ENDBRANCH  11  19
BRANCH  17  21
ATOM     21  O   UNL     1     -36.275  22.862   5.461  0.00  0.00    -0.471 OA
ATOM     22  C   UNL     1     -35.360  22.185   6.320  0.00  0.00    +0.252 C 
ENDBRANCH  17  21
BRANCH  15  23
ATOM     23  O   UNL     1     -31.694  32.726   2.183  0.00  0.00    -0.503 OA
ATOM     24  H   UNL     1     -31.538  33.297   2.909  0.00  0.00    +0.292 HD
ENDBRANCH  15  23
BRANCH  18  25
ATOM     25  O   UNL     1     -34.116  32.944   0.867  0.00  0.00    -0.503 OA
ATOM     26  H   UNL     1     -33.488  33.253   0.245  0.00  0.00    +0.292 HD
ENDBRANCH  18  25
TORSDOF 4
ENDMDL
MODEL 9
REMARK VINA RESULT:      -6.0      2.326      7.043
REMARK  Name = 5281813
REMARK  4 active torsions:
REMARK  status: ('A' for Active; 'I' for Inactive)
REMARK    1  A    between atoms: C_11  and  O_19
REMARK    2  A    between atoms: C_15  and  O_23
REMARK    3  A    between atoms: C_17  and  O_21
REMARK    4  A    between atoms: C_18  and  O_25
REMARK                            x       y       z     vdW  Elec       q    Type
REMARK                         _______ _______ _______ _____ _____    ______ ____
ROOT
ATOM      1  O   UNL     1     -33.574  28.567   4.009  0.00  0.00    -0.453 OA
ATOM      2  O   UNL     1     -36.777  26.591   2.423  0.00  0.00    -0.421 OA
ATOM      3  O   UNL     1     -37.070  28.388   0.998  0.00  0.00    -0.244 OA
ATOM      4  C   UNL     1     -35.284  28.490   2.531  0.00  0.00    +0.114 A 
ATOM      5  C   UNL     1     -34.616  27.847   3.543  0.00  0.00    +0.157 A 
ATOM      6  C   UNL     1     -34.605  29.721   2.342  0.00  0.00    +0.047 A 
ATOM      7  C   UNL     1     -34.951  26.559   4.077  0.00  0.00    +0.103 A 
ATOM      8  C   UNL     1     -33.563  29.721   3.273  0.00  0.00    +0.149 A 
ATOM      9  C   UNL     1     -36.063  25.942   3.480  0.00  0.00    +0.158 A 
ATOM     10  C   UNL     1     -36.431  27.871   1.906  0.00  0.00    +0.349 A 
ATOM     11  C   UNL     1     -34.273  25.907   5.102  0.00  0.00    +0.143 C 
ATOM     12  C   UNL     1     -34.745  30.836   1.496  0.00  0.00    +0.043 C 
ATOM     13  C   UNL     1     -32.647  30.762   3.417  0.00  0.00    +0.077 C 
ATOM     14  C   UNL     1     -36.509  24.690   3.891  0.00  0.00    +0.075 C 
ATOM     15  C   UNL     1     -33.836  31.896   1.621  0.00  0.00    +0.168 C 
ATOM     16  C   UNL     1     -34.715  24.648   5.521  0.00  0.00    +0.074 C 
ATOM     17  C   UNL     1     -35.824  24.044   4.919  0.00  0.00    +0.145 C 
ATOM     18  C   UNL     1     -32.808  31.857   2.564  0.00  0.00    +0.171 C 
ENDROOT
BRANCH  11  19
ATOM     19  O   UNL     1     -33.189  26.455   5.718  0.00  0.00    -0.505 OA
ATOM     20  H   UNL     1     -33.251  27.304   6.107  0.00  0.00    +0.292 HD
ENDBRANCH  11  19
BRANCH  17  21
ATOM     21  O   UNL     1     -36.239  22.816   5.342  0.00  0.00    -0.471 OA
ATOM     22  C   UNL     1     -35.434  22.162   6.320  0.00  0.00    +0.252 C 
ENDBRANCH  17  21
BRANCH  15  23
ATOM     23  O   UNL     1     -33.972  32.978   0.799  0.00  0.00    -0.503 OA
ATOM     24  H   UNL     1     -34.430  32.894  -0.014  0.00  0.00    +0.292 HD
ENDBRANCH  15  23
BRANCH  18  25
ATOM     25  O   UNL     1     -31.935  32.902   2.667  0.00  0.00    -0.503 OA
ATOM     26  H   UNL     1     -31.221  32.859   3.272  0.00  0.00    +0.292 HD
ENDBRANCH  18  25
TORSDOF 4
ENDMDL
