MODEL 1
REMARK VINA RESULT:      -5.4      0.000      0.000
REMARK  Name = 5484169
REMARK  4 active torsions:
REMARK  status: ('A' for Active; 'I' for Inactive)
REMARK    1  A    between atoms: C_2  and  N_14
REMARK    2  A    between atoms: C_3  and  N_10
REMARK    3  A    between atoms: C_4  and  N_13
REMARK    4  A    between atoms: N_14  and  O_16
REMARK                            x       y       z     vdW  Elec       q    Type
REMARK                         _______ _______ _______ _____ _____    ______ ____
ROOT
ATOM      1  C   UNL     1     -35.412  22.798   3.456  0.00  0.00    +0.018 C 
ATOM      2  C   UNL     1     -35.458  22.948   4.842  0.00  0.00    +0.077 C 
ATOM      3  C   UNL     1     -34.913  23.829   2.659  0.00  0.00    +0.142 C 
ATOM      4  C   UNL     1     -34.506  25.159   4.635  0.00  0.00    +0.146 C 
ATOM      5  C   UNL     1     -35.006  24.129   5.432  0.00  0.00    +0.043 C 
ATOM      6  C   UNL     1     -34.460  25.009   3.249  0.00  0.00    +0.048 C 
ATOM      7  C   UNL     1     -35.899  21.528   2.828  0.00  0.00    +0.034 C 
ENDROOT
BRANCH   3  10
ATOM      8  O   UNL     1     -35.836  24.085   0.563  0.00  0.00    -0.126 OA
ATOM      9  O   UNL     1     -33.830  23.208   0.720  0.00  0.00    -0.126 OA
ATOM     10  N   UNL     1     -34.857  23.701   1.244  0.00  0.00    +0.057 N 
ENDBRANCH   3  10
BRANCH   4  13
ATOM     11  O   UNL     1     -34.022  27.412   4.549  0.00  0.00    -0.126 OA
ATOM     12  O   UNL     1     -33.682  26.341   6.435  0.00  0.00    -0.126 OA
ATOM     13  N   UNL     1     -34.048  26.362   5.235  0.00  0.00    +0.058 N 
ENDBRANCH   4  13
BRANCH   2  14
ATOM     14  N   UNL     1     -35.960  21.916   5.666  0.00  0.00    -0.268 N 
ATOM     15  H   UNL     1     -36.855  22.020   6.064  0.00  0.00    +0.194 HD
BRANCH  14  16
ATOM     16  O   UNL     1     -35.247  20.776   5.932  0.00  0.00    -0.289 OA
ATOM     17  H   UNL     1     -35.804  20.000   5.762  0.00  0.00    +0.244 HD
ENDBRANCH  14  16
ENDBRANCH   2  14
TORSDOF 4
ENDMDL
MODEL 2
REMARK VINA RESULT:      -5.4      1.919      2.146
REMARK  Name = 5484169
REMARK  4 active torsions:
REMARK  status: ('A' for Active; 'I' for Inactive)
REMARK    1  A    between atoms: C_2  and  N_14
REMARK    2  A    between atoms: C_3  and  N_10
REMARK    3  A    between atoms: C_4  and  N_13
REMARK    4  A    between atoms: N_14  and  O_16
REMARK                            x       y       z     vdW  Elec       q    Type
REMARK                         _______ _______ _______ _____ _____    ______ ____
ROOT
ATOM      1  C   UNL     1     -36.676  24.141   3.573  0.00  0.00    +0.018 C 
ATOM      2  C   UNL     1     -35.880  23.599   4.582  0.00  0.00    +0.077 C 
ATOM      3  C   UNL     1     -36.466  25.454   3.148  0.00  0.00    +0.142 C 
ATOM      4  C   UNL     1     -34.664  25.681   4.742  0.00  0.00    +0.146 C 
ATOM      5  C   UNL     1     -34.875  24.369   5.168  0.00  0.00    +0.043 C 
ATOM      6  C   UNL     1     -35.460  26.223   3.733  0.00  0.00    +0.048 C 
ATOM      7  C   UNL     1     -37.754  23.311   2.948  0.00  0.00    +0.034 C 
ENDROOT
BRANCH   3  10
ATOM      8  O   UNL     1     -38.329  26.611   2.439  0.00  0.00    -0.126 OA
ATOM      9  O   UNL     1     -36.881  25.939   0.933  0.00  0.00    -0.126 OA
ATOM     10  N   UNL     1     -37.265  26.030   2.123  0.00  0.00    +0.057 N 
ENDBRANCH   3  10
BRANCH   4  13
ATOM     11  O   UNL     1     -32.756  26.968   4.607  0.00  0.00    -0.126 OA
ATOM     12  O   UNL     1     -33.654  26.636   6.582  0.00  0.00    -0.126 OA
ATOM     13  N   UNL     1     -33.642  26.466   5.339  0.00  0.00    +0.058 N 
ENDBRANCH   4  13
BRANCH   2  14
ATOM     14  N   UNL     1     -36.077  22.273   5.027  0.00  0.00    -0.268 N 
ATOM     15  H   UNL     1     -36.192  21.561   4.357  0.00  0.00    +0.194 HD
BRANCH  14  16
ATOM     16  O   UNL     1     -36.114  21.943   6.357  0.00  0.00    -0.289 OA
ATOM     17  H   UNL     1     -37.037  21.850   6.641  0.00  0.00    +0.244 HD
ENDBRANCH  14  16
ENDBRANCH   2  14
TORSDOF 4
ENDMDL
MODEL 3
REMARK VINA RESULT:      -5.4      2.338      3.753
REMARK  Name = 5484169
REMARK  4 active torsions:
REMARK  status: ('A' for Active; 'I' for Inactive)
REMARK    1  A    between atoms: C_2  and  N_14
REMARK    2  A    between atoms: C_3  and  N_10
REMARK    3  A    between atoms: C_4  and  N_13
REMARK    4  A    between atoms: N_14  and  O_16
REMARK                            x       y       z     vdW  Elec       q    Type
REMARK                         _______ _______ _______ _____ _____    ______ ____
ROOT
ATOM      1  C   UNL     1     -36.539  24.357   4.022  0.00  0.00    +0.018 C 
ATOM      2  C   UNL     1     -36.490  25.712   3.695  0.00  0.00    +0.077 C 
ATOM      3  C   UNL     1     -35.586  23.813   4.884  0.00  0.00    +0.142 C 
ATOM      4  C   UNL     1     -34.537  25.979   5.092  0.00  0.00    +0.146 C 
ATOM      5  C   UNL     1     -35.489  26.523   4.229  0.00  0.00    +0.043 C 
ATOM      6  C   UNL     1     -34.586  24.625   5.419  0.00  0.00    +0.048 C 
ATOM      7  C   UNL     1     -37.615  23.490   3.444  0.00  0.00    +0.034 C 
ENDROOT
BRANCH   3  10
ATOM      8  O   UNL     1     -35.224  21.590   4.390  0.00  0.00    -0.126 OA
ATOM      9  O   UNL     1     -36.025  22.104   6.369  0.00  0.00    -0.126 OA
ATOM     10  N   UNL     1     -35.613  22.434   5.231  0.00  0.00    +0.057 N 
ENDBRANCH   3  10
BRANCH   4  13
ATOM     11  O   UNL     1     -33.021  26.506   6.748  0.00  0.00    -0.126 OA
ATOM     12  O   UNL     1     -33.139  27.810   4.987  0.00  0.00    -0.126 OA
ATOM     13  N   UNL     1     -33.517  26.805   5.635  0.00  0.00    +0.058 N 
ENDBRANCH   4  13
BRANCH   2  14
ATOM     14  N   UNL     1     -37.444  26.282   2.823  0.00  0.00    -0.268 N 
ATOM     15  H   UNL     1     -37.181  26.476   1.894  0.00  0.00    +0.194 HD
BRANCH  14  16
ATOM     16  O   UNL     1     -38.722  26.574   3.223  0.00  0.00    -0.289 OA
ATOM     17  H   UNL     1     -38.883  27.526   3.121  0.00  0.00    +0.244 HD
ENDBRANCH  14  16
ENDBRANCH   2  14
TORSDOF 4
ENDMDL
MODEL 4
REMARK VINA RESULT:      -5.3      2.444      2.979
REMARK  Name = 5484169
REMARK  4 active torsions:
REMARK  status: ('A' for Active; 'I' for Inactive)
REMARK    1  A    between atoms: C_2  and  N_14
REMARK    2  A    between atoms: C_3  and  N_10
REMARK    3  A    between atoms: C_4  and  N_13
REMARK    4  A    between atoms: N_14  and  O_16
REMARK                            x       y       z     vdW  Elec       q    Type
REMARK                         _______ _______ _______ _____ _____    ______ ____
ROOT
ATOM      1  C   UNL     1     -37.080  23.419   3.235  0.00  0.00    +0.018 C 
ATOM      2  C   UNL     1     -37.426  24.642   3.810  0.00  0.00    +0.077 C 
ATOM      3  C   UNL     1     -35.753  22.988   3.257  0.00  0.00    +0.142 C 
ATOM      4  C   UNL     1     -35.119  25.003   4.430  0.00  0.00    +0.146 C 
ATOM      5  C   UNL     1     -36.445  25.435   4.407  0.00  0.00    +0.043 C 
ATOM      6  C   UNL     1     -34.773  23.781   3.855  0.00  0.00    +0.048 C 
ATOM      7  C   UNL     1     -38.136  22.572   2.594  0.00  0.00    +0.034 C 
ENDROOT
BRANCH   3  10
ATOM      8  O   UNL     1     -35.017  21.725   1.475  0.00  0.00    -0.126 OA
ATOM      9  O   UNL     1     -35.410  20.711   3.382  0.00  0.00    -0.126 OA
ATOM     10  N   UNL     1     -35.375  21.747   2.676  0.00  0.00    +0.057 N 
ENDBRANCH   3  10
BRANCH   4  13
ATOM     11  O   UNL     1     -33.020  25.959   4.452  0.00  0.00    -0.126 OA
ATOM     12  O   UNL     1     -34.366  26.355   6.140  0.00  0.00    -0.126 OA
ATOM     13  N   UNL     1     -34.120  25.811   5.037  0.00  0.00    +0.058 N 
ENDBRANCH   4  13
BRANCH   2  14
ATOM     14  N   UNL     1     -38.763  25.097   3.797  0.00  0.00    -0.268 N 
ATOM     15  H   UNL     1     -39.480  24.467   4.037  0.00  0.00    +0.194 HD
BRANCH  14  16
ATOM     16  O   UNL     1     -39.098  26.383   3.461  0.00  0.00    -0.289 OA
ATOM     17  H   UNL     1     -39.229  26.904   4.270  0.00  0.00    +0.244 HD
ENDBRANCH  14  16
ENDBRANCH   2  14
TORSDOF 4
ENDMDL
MODEL 5
REMARK VINA RESULT:      -5.3      2.722      4.465
REMARK  Name = 5484169
REMARK  4 active torsions:
REMARK  status: ('A' for Active; 'I' for Inactive)
REMARK    1  A    between atoms: C_2  and  N_14
REMARK    2  A    between atoms: C_3  and  N_10
REMARK    3  A    between atoms: C_4  and  N_13
REMARK    4  A    between atoms: N_14  and  O_16
REMARK                            x       y       z     vdW  Elec       q    Type
REMARK                         _______ _______ _______ _____ _____    ______ ____
ROOT
ATOM      1  C   UNL     1     -37.837  24.810   3.346  0.00  0.00    +0.018 C 
ATOM      2  C   UNL     1     -36.877  25.045   4.330  0.00  0.00    +0.077 C 
ATOM      3  C   UNL     1     -37.965  23.539   2.785  0.00  0.00    +0.142 C 
ATOM      4  C   UNL     1     -36.172  22.738   4.194  0.00  0.00    +0.146 C 
ATOM      5  C   UNL     1     -36.044  24.009   4.754  0.00  0.00    +0.043 C 
ATOM      6  C   UNL     1     -37.132  22.503   3.210  0.00  0.00    +0.048 C 
ATOM      7  C   UNL     1     -38.728  25.926   2.894  0.00  0.00    +0.034 C 
ENDROOT
BRANCH   3  10
ATOM      8  O   UNL     1     -40.074  22.884   2.124  0.00  0.00    -0.126 OA
ATOM      9  O   UNL     1     -38.619  23.442   0.576  0.00  0.00    -0.126 OA
ATOM     10  N   UNL     1     -38.934  23.275   1.779  0.00  0.00    +0.057 N 
ENDBRANCH   3  10
BRANCH   4  13
ATOM     11  O   UNL     1     -34.741  21.785   5.730  0.00  0.00    -0.126 OA
ATOM     12  O   UNL     1     -35.181  20.678   3.887  0.00  0.00    -0.126 OA
ATOM     13  N   UNL     1     -35.324  21.683   4.624  0.00  0.00    +0.058 N 
ENDBRANCH   4  13
BRANCH   2  14
ATOM     14  N   UNL     1     -36.731  26.325   4.909  0.00  0.00    -0.268 N 
ATOM     15  H   UNL     1     -37.478  26.698   5.430  0.00  0.00    +0.194 HD
BRANCH  14  16
ATOM     16  O   UNL     1     -35.586  27.066   4.772  0.00  0.00    -0.289 OA
ATOM     17  H   UNL     1     -35.512  27.687   5.515  0.00  0.00    +0.244 HD
ENDBRANCH  14  16
ENDBRANCH   2  14
TORSDOF 4
ENDMDL
MODEL 6
REMARK VINA RESULT:      -5.2      2.357      4.735
REMARK  Name = 5484169
REMARK  4 active torsions:
REMARK  status: ('A' for Active; 'I' for Inactive)
REMARK    1  A    between atoms: C_2  and  N_14
REMARK    2  A    between atoms: C_3  and  N_10
REMARK    3  A    between atoms: C_4  and  N_13
REMARK    4  A    between atoms: N_14  and  O_16
REMARK                            x       y       z     vdW  Elec       q    Type
REMARK                         _______ _______ _______ _____ _____    ______ ____
ROOT
ATOM      1  C   UNL     1     -35.516  26.127   3.844  0.00  0.00    +0.018 C 
ATOM      2  C   UNL     1     -36.603  25.294   3.581  0.00  0.00    +0.077 C 
ATOM      3  C   UNL     1     -34.457  25.667   4.627  0.00  0.00    +0.142 C 
ATOM      4  C   UNL     1     -35.573  23.540   4.885  0.00  0.00    +0.146 C 
ATOM      5  C   UNL     1     -36.633  24.000   4.102  0.00  0.00    +0.043 C 
ATOM      6  C   UNL     1     -34.486  24.373   5.147  0.00  0.00    +0.048 C 
ATOM      7  C   UNL     1     -35.490  27.516   3.282  0.00  0.00    +0.034 C 
ENDROOT
BRANCH   3  10
ATOM      8  O   UNL     1     -32.448  26.633   4.038  0.00  0.00    -0.126 OA
ATOM      9  O   UNL     1     -33.277  27.072   6.023  0.00  0.00    -0.126 OA
ATOM     10  N   UNL     1     -33.338  26.498   4.910  0.00  0.00    +0.057 N 
ENDBRANCH   3  10
BRANCH   4  13
ATOM     11  O   UNL     1     -35.999  22.052   6.594  0.00  0.00    -0.126 OA
ATOM     12  O   UNL     1     -35.234  21.267   4.692  0.00  0.00    -0.126 OA
ATOM     13  N   UNL     1     -35.603  22.223   5.416  0.00  0.00    +0.058 N 
ENDBRANCH   4  13
BRANCH   2  14
ATOM     14  N   UNL     1     -37.686  25.741   2.792  0.00  0.00    -0.268 N 
ATOM     15  H   UNL     1     -37.641  25.624   1.816  0.00  0.00    +0.194 HD
BRANCH  14  16
ATOM     16  O   UNL     1     -38.796  26.333   3.336  0.00  0.00    -0.289 OA
ATOM     17  H   UNL     1     -39.580  26.082   2.822  0.00  0.00    +0.244 HD
ENDBRANCH  14  16
ENDBRANCH   2  14
TORSDOF 4
ENDMDL
MODEL 7
REMARK VINA RESULT:      -5.1      3.047      4.876
REMARK  Name = 5484169
REMARK  4 active torsions:
REMARK  status: ('A' for Active; 'I' for Inactive)
REMARK    1  A    between atoms: C_2  and  N_14
REMARK    2  A    between atoms: C_3  and  N_10
REMARK    3  A    between atoms: C_4  and  N_13
REMARK    4  A    between atoms: N_14  and  O_16
REMARK                            x       y       z     vdW  Elec       q    Type
REMARK                         _______ _______ _______ _____ _____    ______ ____
ROOT
ATOM      1  C   UNL     1     -36.047  23.888   3.977  0.00  0.00    +0.018 C 
ATOM      2  C   UNL     1     -36.950  24.931   4.178  0.00  0.00    +0.077 C 
ATOM      3  C   UNL     1     -36.407  22.795   3.188  0.00  0.00    +0.142 C 
ATOM      4  C   UNL     1     -38.576  23.789   2.803  0.00  0.00    +0.146 C 
ATOM      5  C   UNL     1     -38.215  24.882   3.592  0.00  0.00    +0.043 C 
ATOM      6  C   UNL     1     -37.672  22.746   2.601  0.00  0.00    +0.048 C 
ATOM      7  C   UNL     1     -34.690  23.946   4.610  0.00  0.00    +0.034 C 
ENDROOT
BRANCH   3  10
ATOM      8  O   UNL     1     -35.410  20.822   3.840  0.00  0.00    -0.126 OA
ATOM      9  O   UNL     1     -34.831  21.698   1.912  0.00  0.00    -0.126 OA
ATOM     10  N   UNL     1     -35.505  21.718   2.970  0.00  0.00    +0.057 N 
ENDBRANCH   3  10
BRANCH   4  13
ATOM     11  O   UNL     1     -40.340  22.624   1.883  0.00  0.00    -0.126 OA
ATOM     12  O   UNL     1     -40.490  24.809   2.021  0.00  0.00    -0.126 OA
ATOM     13  N   UNL     1     -39.864  23.738   2.206  0.00  0.00    +0.058 N 
ENDBRANCH   4  13
BRANCH   2  14
ATOM     14  N   UNL     1     -36.605  26.046   4.974  0.00  0.00    -0.268 N 
ATOM     15  H   UNL     1     -36.887  26.061   5.917  0.00  0.00    +0.194 HD
BRANCH  14  16
ATOM     16  O   UNL     1     -35.891  27.108   4.480  0.00  0.00    -0.289 OA
ATOM     17  H   UNL     1     -35.484  26.857   3.635  0.00  0.00    +0.244 HD
ENDBRANCH  14  16
ENDBRANCH   2  14
TORSDOF 4
ENDMDL
MODEL 8
REMARK VINA RESULT:      -4.9      2.961      3.250
REMARK  Name = 5484169
REMARK  4 active torsions:
REMARK  status: ('A' for Active; 'I' for Inactive)
REMARK    1  A    between atoms: C_2  and  N_14
REMARK    2  A    between atoms: C_3  and  N_10
REMARK    3  A    between atoms: C_4  and  N_13
REMARK    4  A    between atoms: N_14  and  O_16
REMARK                            x       y       z     vdW  Elec       q    Type
REMARK                         _______ _______ _______ _____ _____    ______ ____
ROOT
ATOM      1  C   UNL     1     -37.845  23.612   2.916  0.00  0.00    +0.018 C 
ATOM      2  C   UNL     1     -36.739  22.848   3.287  0.00  0.00    +0.077 C 
ATOM      3  C   UNL     1     -37.885  24.974   3.216  0.00  0.00    +0.142 C 
ATOM      4  C   UNL     1     -35.711  24.808   4.257  0.00  0.00    +0.146 C 
ATOM      5  C   UNL     1     -35.672  23.445   3.958  0.00  0.00    +0.043 C 
ATOM      6  C   UNL     1     -36.817  25.571   3.887  0.00  0.00    +0.048 C 
ATOM      7  C   UNL     1     -38.989  22.966   2.196  0.00  0.00    +0.034 C 
ENDROOT
BRANCH   3  10
ATOM      8  O   UNL     1     -40.100  25.579   3.423  0.00  0.00    -0.126 OA
ATOM      9  O   UNL     1     -38.856  26.651   1.966  0.00  0.00    -0.126 OA
ATOM     10  N   UNL     1     -39.003  25.774   2.851  0.00  0.00    +0.057 N 
ENDBRANCH   3  10
BRANCH   4  13
ATOM     11  O   UNL     1     -33.456  25.047   4.676  0.00  0.00    -0.126 OA
ATOM     12  O   UNL     1     -34.865  26.306   5.792  0.00  0.00    -0.126 OA
ATOM     13  N   UNL     1     -34.625  25.416   4.942  0.00  0.00    +0.058 N 
ENDBRANCH   4  13
BRANCH   2  14
ATOM     14  N   UNL     1     -36.680  21.468   2.993  0.00  0.00    -0.268 N 
ATOM     15  H   UNL     1     -37.297  21.099   2.321  0.00  0.00    +0.194 HD
BRANCH  14  16
ATOM     16  O   UNL     1     -35.795  20.623   3.612  0.00  0.00    -0.289 OA
ATOM     17  H   UNL     1     -34.935  20.672   3.164  0.00  0.00    +0.244 HD
ENDBRANCH  14  16
ENDBRANCH   2  14
TORSDOF 4
ENDMDL
MODEL 9
REMARK VINA RESULT:      -4.9      3.164      4.872
REMARK  Name = 5484169
REMARK  4 active torsions:
REMARK  status: ('A' for Active; 'I' for Inactive)
REMARK    1  A    between atoms: C_2  and  N_14
REMARK    2  A    between atoms: C_3  and  N_10
REMARK    3  A    between atoms: C_4  and  N_13
REMARK    4  A    between atoms: N_14  and  O_16
REMARK                            x       y       z     vdW  Elec       q    Type
REMARK                         _______ _______ _______ _____ _____    ______ ____
ROOT
ATOM      1  C   UNL     1     -36.128  23.473   3.802  0.00  0.00    +0.018 C 
ATOM      2  C   UNL     1     -36.732  22.375   3.190  0.00  0.00    +0.077 C 
ATOM      3  C   UNL     1     -36.791  24.700   3.845  0.00  0.00    +0.142 C 
ATOM      4  C   UNL     1     -38.662  23.731   2.662  0.00  0.00    +0.146 C 
ATOM      5  C   UNL     1     -37.999  22.504   2.619  0.00  0.00    +0.043 C 
ATOM      6  C   UNL     1     -38.057  24.828   3.274  0.00  0.00    +0.048 C 
ATOM      7  C   UNL     1     -34.768  23.330   4.413  0.00  0.00    +0.034 C 
ENDROOT
BRANCH   3  10
ATOM      8  O   UNL     1     -35.603  26.673   3.742  0.00  0.00    -0.126 OA
ATOM      9  O   UNL     1     -36.281  25.962   5.706  0.00  0.00    -0.126 OA
ATOM     10  N   UNL     1     -36.195  25.835   4.461  0.00  0.00    +0.057 N 
ENDBRANCH   3  10
BRANCH   4  13
ATOM     11  O   UNL     1     -40.501  22.849   1.588  0.00  0.00    -0.126 OA
ATOM     12  O   UNL     1     -40.503  24.988   2.075  0.00  0.00    -0.126 OA
ATOM     13  N   UNL     1     -39.950  23.862   2.080  0.00  0.00    +0.058 N 
ENDBRANCH   4  13
BRANCH   2  14
ATOM     14  N   UNL     1     -36.078  21.124   3.135  0.00  0.00    -0.268 N 
ATOM     15  H   UNL     1     -35.125  21.077   3.376  0.00  0.00    +0.194 HD
BRANCH  14  16
ATOM     16  O   UNL     1     -36.723  19.974   2.760  0.00  0.00    -0.289 OA
ATOM     17  H   UNL     1     -37.552  20.202   2.310  0.00  0.00    +0.244 HD
ENDBRANCH  14  16
ENDBRANCH   2  14
TORSDOF 4
ENDMDL
