MODEL 1
REMARK VINA RESULT:      -6.8      0.000      0.000
REMARK  Name = 5316819
REMARK  9 active torsions:
REMARK  status: ('A' for Active; 'I' for Inactive)
REMARK    1  A    between atoms: C_2  and  C_4
REMARK    2  A    between atoms: C_2  and  O_15
REMARK    3  A    between atoms: C_3  and  C_5
REMARK    4  A    between atoms: C_8  and  O_11
REMARK    5  A    between atoms: C_9  and  O_13
REMARK    6  A    between atoms: O_15  and  C_17
REMARK    7  A    between atoms: C_16  and  C_18
REMARK    8  A    between atoms: C_21  and  O_24
REMARK    9  A    between atoms: C_22  and  O_26
REMARK                            x       y       z     vdW  Elec       q    Type
REMARK                         _______ _______ _______ _____ _____    ______ ____
ROOT
ATOM      1  O   UNL     1     -36.559  27.792   1.649  0.00  0.00    -0.244 OA
ATOM      2  C   UNL     1     -35.737  27.765   2.550  0.00  0.00    +0.346 C 
ENDROOT
BRANCH   2   4
ATOM      3  C   UNL     1     -36.023  25.391   3.125  0.00  0.00    +0.007 C 
ATOM      4  C   UNL     1     -35.413  26.572   3.370  0.00  0.00    +0.082 C 
BRANCH   3   5
ATOM      5  C   UNL     1     -35.797  24.158   3.864  0.00  0.00    +0.003 C 
ATOM      6  C   UNL     1     -35.905  22.928   3.217  0.00  0.00    +0.040 C 
ATOM      7  C   UNL     1     -35.473  24.208   5.220  0.00  0.00    +0.003 C 
ATOM      8  C   UNL     1     -35.688  21.746   3.925  0.00  0.00    +0.167 C 
ATOM      9  C   UNL     1     -35.365  21.795   5.282  0.00  0.00    +0.167 C 
ATOM     10  C   UNL     1     -35.257  23.026   5.928  0.00  0.00    +0.040 C 
BRANCH   8  11
ATOM     11  O   UNL     1     -35.797  20.550   3.283  0.00  0.00    -0.503 OA
ATOM     12  H   UNL     1     -36.321  20.479   2.509  0.00  0.00    +0.292 HD
ENDBRANCH   8  11
BRANCH   9  13
ATOM     13  O   UNL     1     -35.151  20.649   5.985  0.00  0.00    -0.503 OA
ATOM     14  H   UNL     1     -34.277  20.388   6.201  0.00  0.00    +0.292 HD
ENDBRANCH   9  13
ENDBRANCH   3   5
ENDBRANCH   2   4
BRANCH   2  15
ATOM     15  O   UNL     1     -34.940  28.784   2.994  0.00  0.00    -0.418 OA
BRANCH  15  17
ATOM     16  C   UNL     1     -32.610  29.230   2.759  0.00  0.00    +0.041 C 
ATOM     17  C   UNL     1     -33.812  28.990   2.225  0.00  0.00    +0.183 C 
BRANCH  16  18
ATOM     18  C   UNL     1     -32.317  29.307   4.201  0.00  0.00    +0.006 C 
ATOM     19  C   UNL     1     -32.203  28.137   4.935  0.00  0.00    +0.040 C 
ATOM     20  C   UNL     1     -32.162  30.548   4.797  0.00  0.00    +0.003 C 
ATOM     21  C   UNL     1     -31.926  28.210   6.300  0.00  0.00    +0.167 C 
ATOM     22  C   UNL     1     -31.767  29.453   6.914  0.00  0.00    +0.167 C 
ATOM     23  C   UNL     1     -31.884  30.622   6.162  0.00  0.00    +0.040 C 
BRANCH  21  24
ATOM     24  O   UNL     1     -31.813  27.062   7.023  0.00  0.00    -0.503 OA
ATOM     25  H   UNL     1     -32.581  26.638   7.352  0.00  0.00    +0.292 HD
ENDBRANCH  21  24
BRANCH  22  26
ATOM     26  O   UNL     1     -31.496  29.538   8.246  0.00  0.00    -0.503 OA
ATOM     27  H   UNL     1     -30.721  29.974   8.539  0.00  0.00    +0.292 HD
ENDBRANCH  22  26
ENDBRANCH  16  18
ENDBRANCH  15  17
ENDBRANCH   2  15
TORSDOF 9
ENDMDL
MODEL 2
REMARK VINA RESULT:      -6.8      2.923      5.656
REMARK  Name = 5316819
REMARK  9 active torsions:
REMARK  status: ('A' for Active; 'I' for Inactive)
REMARK    1  A    between atoms: C_2  and  C_4
REMARK    2  A    between atoms: C_2  and  O_15
REMARK    3  A    between atoms: C_3  and  C_5
REMARK    4  A    between atoms: C_8  and  O_11
REMARK    5  A    between atoms: C_9  and  O_13
REMARK    6  A    between atoms: O_15  and  C_17
REMARK    7  A    between atoms: C_16  and  C_18
REMARK    8  A    between atoms: C_21  and  O_24
REMARK    9  A    between atoms: C_22  and  O_26
REMARK                            x       y       z     vdW  Elec       q    Type
REMARK                         _______ _______ _______ _____ _____    ______ ____
ROOT
ATOM      1  O   UNL     1     -34.792  28.983   3.329  0.00  0.00    -0.244 OA
ATOM      2  C   UNL     1     -35.023  27.860   2.908  0.00  0.00    +0.346 C 
ENDROOT
BRANCH   2   4
ATOM      3  C   UNL     1     -35.014  25.419   3.206  0.00  0.00    +0.007 C 
ATOM      4  C   UNL     1     -35.157  26.648   3.751  0.00  0.00    +0.082 C 
BRANCH   3   5
ATOM      5  C   UNL     1     -35.132  24.160   3.927  0.00  0.00    +0.003 C 
ATOM      6  C   UNL     1     -35.393  22.981   3.230  0.00  0.00    +0.040 C 
ATOM      7  C   UNL     1     -34.984  24.134   5.313  0.00  0.00    +0.003 C 
ATOM      8  C   UNL     1     -35.506  21.774   3.920  0.00  0.00    +0.167 C 
ATOM      9  C   UNL     1     -35.359  21.748   5.308  0.00  0.00    +0.167 C 
ATOM     10  C   UNL     1     -35.098  22.927   6.004  0.00  0.00    +0.040 C 
BRANCH   8  11
ATOM     11  O   UNL     1     -35.762  20.628   3.230  0.00  0.00    -0.503 OA
ATOM     12  H   UNL     1     -36.236  20.663   2.422  0.00  0.00    +0.292 HD
ENDBRANCH   8  11
BRANCH   9  13
ATOM     13  O   UNL     1     -35.466  20.576   5.993  0.00  0.00    -0.503 OA
ATOM     14  H   UNL     1     -35.839  19.823   5.579  0.00  0.00    +0.292 HD
ENDBRANCH   9  13
ENDBRANCH   3   5
ENDBRANCH   2   4
BRANCH   2  15
ATOM     15  O   UNL     1     -35.218  27.470   1.612  0.00  0.00    -0.418 OA
BRANCH  15  17
ATOM     16  C   UNL     1     -37.437  27.655   0.759  0.00  0.00    +0.041 C 
ATOM     17  C   UNL     1     -36.217  28.166   0.961  0.00  0.00    +0.183 C 
BRANCH  16  18
ATOM     18  C   UNL     1     -37.882  26.319   1.187  0.00  0.00    +0.006 C 
ATOM     19  C   UNL     1     -38.572  26.182   2.381  0.00  0.00    +0.040 C 
ATOM     20  C   UNL     1     -37.604  25.222   0.387  0.00  0.00    +0.003 C 
ATOM     21  C   UNL     1     -38.994  24.915   2.786  0.00  0.00    +0.167 C 
ATOM     22  C   UNL     1     -38.722  23.802   1.991  0.00  0.00    +0.167 C 
ATOM     23  C   UNL     1     -38.027  23.956   0.791  0.00  0.00    +0.040 C 
BRANCH  21  24
ATOM     24  O   UNL     1     -39.672  24.779   3.959  0.00  0.00    -0.503 OA
ATOM     25  H   UNL     1     -40.385  25.353   4.158  0.00  0.00    +0.292 HD
ENDBRANCH  21  24
BRANCH  22  26
ATOM     26  O   UNL     1     -39.128  22.560   2.375  0.00  0.00    -0.503 OA
ATOM     27  H   UNL     1     -39.638  22.033   1.792  0.00  0.00    +0.292 HD
ENDBRANCH  22  26
ENDBRANCH  16  18
ENDBRANCH  15  17
ENDBRANCH   2  15
TORSDOF 9
ENDMDL
MODEL 3
REMARK VINA RESULT:      -6.6      4.471      7.651
REMARK  Name = 5316819
REMARK  9 active torsions:
REMARK  status: ('A' for Active; 'I' for Inactive)
REMARK    1  A    between atoms: C_2  and  C_4
REMARK    2  A    between atoms: C_2  and  O_15
REMARK    3  A    between atoms: C_3  and  C_5
REMARK    4  A    between atoms: C_8  and  O_11
REMARK    5  A    between atoms: C_9  and  O_13
REMARK    6  A    between atoms: O_15  and  C_17
REMARK    7  A    between atoms: C_16  and  C_18
REMARK    8  A    between atoms: C_21  and  O_24
REMARK    9  A    between atoms: C_22  and  O_26
REMARK                            x       y       z     vdW  Elec       q    Type
REMARK                         _______ _______ _______ _____ _____    ______ ____
ROOT
ATOM      1  O   UNL     1     -37.267  27.835   1.536  0.00  0.00    -0.244 OA
ATOM      2  C   UNL     1     -37.736  26.712   1.431  0.00  0.00    +0.346 C 
ENDROOT
BRANCH   2   4
ATOM      3  C   UNL     1     -37.010  25.327   3.329  0.00  0.00    +0.007 C 
ATOM      4  C   UNL     1     -37.127  25.481   1.991  0.00  0.00    +0.082 C 
BRANCH   3   5
ATOM      5  C   UNL     1     -36.424  24.173   3.994  0.00  0.00    +0.003 C 
ATOM      6  C   UNL     1     -36.433  22.928   3.367  0.00  0.00    +0.040 C 
ATOM      7  C   UNL     1     -35.853  24.313   5.259  0.00  0.00    +0.003 C 
ATOM      8  C   UNL     1     -35.871  21.822   4.004  0.00  0.00    +0.167 C 
ATOM      9  C   UNL     1     -35.300  21.962   5.270  0.00  0.00    +0.167 C 
ATOM     10  C   UNL     1     -35.292  23.207   5.897  0.00  0.00    +0.040 C 
BRANCH   8  11
ATOM     11  O   UNL     1     -35.886  20.610   3.382  0.00  0.00    -0.503 OA
ATOM     12  H   UNL     1     -35.968  20.563   2.449  0.00  0.00    +0.292 HD
ENDBRANCH   8  11
BRANCH   9  13
ATOM     13  O   UNL     1     -34.748  20.889   5.902  0.00  0.00    -0.503 OA
ATOM     14  H   UNL     1     -33.904  20.576   5.644  0.00  0.00    +0.292 HD
ENDBRANCH   9  13
ENDBRANCH   3   5
ENDBRANCH   2   4
BRANCH   2  15
ATOM     15  O   UNL     1     -38.894  26.338   0.806  0.00  0.00    -0.418 OA
BRANCH  15  17
ATOM     16  C   UNL     1     -40.779  25.335   1.868  0.00  0.00    +0.041 C 
ATOM     17  C   UNL     1     -40.012  26.401   1.615  0.00  0.00    +0.183 C 
BRANCH  16  18
ATOM     18  C   UNL     1     -40.553  23.978   1.342  0.00  0.00    +0.006 C 
ATOM     19  C   UNL     1     -39.816  23.073   2.089  0.00  0.00    +0.040 C 
ATOM     20  C   UNL     1     -41.082  23.632   0.109  0.00  0.00    +0.003 C 
ATOM     21  C   UNL     1     -39.603  21.788   1.590  0.00  0.00    +0.167 C 
ATOM     22  C   UNL     1     -40.129  21.424   0.351  0.00  0.00    +0.167 C 
ATOM     23  C   UNL     1     -40.869  22.347  -0.390  0.00  0.00    +0.040 C 
BRANCH  21  24
ATOM     24  O   UNL     1     -38.879  20.897   2.324  0.00  0.00    -0.503 OA
ATOM     25  H   UNL     1     -38.015  20.658   2.051  0.00  0.00    +0.292 HD
ENDBRANCH  21  24
BRANCH  22  26
ATOM     26  O   UNL     1     -39.928  20.173  -0.147  0.00  0.00    -0.503 OA
ATOM     27  H   UNL     1     -40.069  20.003  -1.057  0.00  0.00    +0.292 HD
ENDBRANCH  22  26
ENDBRANCH  16  18
ENDBRANCH  15  17
ENDBRANCH   2  15
TORSDOF 9
ENDMDL
MODEL 4
REMARK VINA RESULT:      -6.5      1.755      6.909
REMARK  Name = 5316819
REMARK  9 active torsions:
REMARK  status: ('A' for Active; 'I' for Inactive)
REMARK    1  A    between atoms: C_2  and  C_4
REMARK    2  A    between atoms: C_2  and  O_15
REMARK    3  A    between atoms: C_3  and  C_5
REMARK    4  A    between atoms: C_8  and  O_11
REMARK    5  A    between atoms: C_9  and  O_13
REMARK    6  A    between atoms: O_15  and  C_17
REMARK    7  A    between atoms: C_16  and  C_18
REMARK    8  A    between atoms: C_21  and  O_24
REMARK    9  A    between atoms: C_22  and  O_26
REMARK                            x       y       z     vdW  Elec       q    Type
REMARK                         _______ _______ _______ _____ _____    ______ ____
ROOT
ATOM      1  O   UNL     1     -35.501  21.940   6.679  0.00  0.00    -0.244 OA
ATOM      2  C   UNL     1     -35.480  22.727   5.745  0.00  0.00    +0.346 C 
ENDROOT
BRANCH   2   4
ATOM      3  C   UNL     1     -34.827  25.085   5.500  0.00  0.00    +0.007 C 
ATOM      4  C   UNL     1     -34.460  23.785   5.548  0.00  0.00    +0.082 C 
BRANCH   3   5
ATOM      5  C   UNL     1     -33.922  26.208   5.303  0.00  0.00    +0.003 C 
ATOM      6  C   UNL     1     -33.230  26.743   6.389  0.00  0.00    +0.040 C 
ATOM      7  C   UNL     1     -33.748  26.748   4.029  0.00  0.00    +0.003 C 
ATOM      8  C   UNL     1     -32.362  27.819   6.200  0.00  0.00    +0.167 C 
ATOM      9  C   UNL     1     -32.189  28.360   4.926  0.00  0.00    +0.167 C 
ATOM     10  C   UNL     1     -32.882  27.824   3.841  0.00  0.00    +0.040 C 
BRANCH   8  11
ATOM     11  O   UNL     1     -31.692  28.334   7.268  0.00  0.00    -0.503 OA
ATOM     12  H   UNL     1     -32.072  28.296   8.124  0.00  0.00    +0.292 HD
ENDBRANCH   8  11
BRANCH   9  13
ATOM     13  O   UNL     1     -31.344  29.410   4.728  0.00  0.00    -0.503 OA
ATOM     14  H   UNL     1     -31.192  29.733   3.862  0.00  0.00    +0.292 HD
ENDBRANCH   9  13
ENDBRANCH   3   5
ENDBRANCH   2   4
BRANCH   2  15
ATOM     15  O   UNL     1     -36.351  22.809   4.693  0.00  0.00    -0.418 OA
BRANCH  15  17
ATOM     16  C   UNL     1     -35.830  22.869   2.367  0.00  0.00    +0.041 C 
ATOM     17  C   UNL     1     -35.886  22.219   3.534  0.00  0.00    +0.183 C 
BRANCH  16  18
ATOM     18  C   UNL     1     -36.240  24.267   2.150  0.00  0.00    +0.006 C 
ATOM     19  C   UNL     1     -37.369  24.752   2.791  0.00  0.00    +0.040 C 
ATOM     20  C   UNL     1     -35.489  25.072   1.308  0.00  0.00    +0.003 C 
ATOM     21  C   UNL     1     -37.757  26.076   2.585  0.00  0.00    +0.167 C 
ATOM     22  C   UNL     1     -37.011  26.899   1.741  0.00  0.00    +0.167 C 
ATOM     23  C   UNL     1     -35.877  26.396   1.102  0.00  0.00    +0.040 C 
BRANCH  21  24
ATOM     24  O   UNL     1     -38.866  26.555   3.215  0.00  0.00    -0.503 OA
ATOM     25  H   UNL     1     -38.900  27.450   3.488  0.00  0.00    +0.292 HD
ENDBRANCH  21  24
BRANCH  22  26
ATOM     26  O   UNL     1     -37.379  28.193   1.532  0.00  0.00    -0.503 OA
ATOM     27  H   UNL     1     -38.266  28.457   1.677  0.00  0.00    +0.292 HD
ENDBRANCH  22  26
ENDBRANCH  16  18
ENDBRANCH  15  17
ENDBRANCH   2  15
TORSDOF 9
ENDMDL
MODEL 5
REMARK VINA RESULT:      -6.4      1.026      1.466
REMARK  Name = 5316819
REMARK  9 active torsions:
REMARK  status: ('A' for Active; 'I' for Inactive)
REMARK    1  A    between atoms: C_2  and  C_4
REMARK    2  A    between atoms: C_2  and  O_15
REMARK    3  A    between atoms: C_3  and  C_5
REMARK    4  A    between atoms: C_8  and  O_11
REMARK    5  A    between atoms: C_9  and  O_13
REMARK    6  A    between atoms: O_15  and  C_17
REMARK    7  A    between atoms: C_16  and  C_18
REMARK    8  A    between atoms: C_21  and  O_24
REMARK    9  A    between atoms: C_22  and  O_26
REMARK                            x       y       z     vdW  Elec       q    Type
REMARK                         _______ _______ _______ _____ _____    ______ ____
ROOT
ATOM      1  O   UNL     1     -35.187  27.876   1.581  0.00  0.00    -0.244 OA
ATOM      2  C   UNL     1     -34.996  27.871   2.787  0.00  0.00    +0.346 C 
ENDROOT
BRANCH   2   4
ATOM      3  C   UNL     1     -35.310  25.455   3.125  0.00  0.00    +0.007 C 
ATOM      4  C   UNL     1     -34.953  26.655   3.635  0.00  0.00    +0.082 C 
BRANCH   3   5
ATOM      5  C   UNL     1     -35.318  24.198   3.858  0.00  0.00    +0.003 C 
ATOM      6  C   UNL     1     -35.560  23.001   3.185  0.00  0.00    +0.040 C 
ATOM      7  C   UNL     1     -35.085  24.191   5.233  0.00  0.00    +0.003 C 
ATOM      8  C   UNL     1     -35.567  21.795   3.888  0.00  0.00    +0.167 C 
ATOM      9  C   UNL     1     -35.335  21.789   5.264  0.00  0.00    +0.167 C 
ATOM     10  C   UNL     1     -35.094  22.987   5.936  0.00  0.00    +0.040 C 
BRANCH   8  11
ATOM     11  O   UNL     1     -35.805  20.632   3.221  0.00  0.00    -0.503 OA
ATOM     12  H   UNL     1     -35.731  19.812   3.667  0.00  0.00    +0.292 HD
ENDBRANCH   8  11
BRANCH   9  13
ATOM     13  O   UNL     1     -35.340  20.619   5.961  0.00  0.00    -0.503 OA
ATOM     14  H   UNL     1     -34.955  20.581   6.814  0.00  0.00    +0.292 HD
ENDBRANCH   9  13
ENDBRANCH   3   5
ENDBRANCH   2   4
BRANCH   2  15
ATOM     15  O   UNL     1     -34.773  28.941   3.608  0.00  0.00    -0.418 OA
BRANCH  15  17
ATOM     16  C   UNL     1     -32.880  30.346   3.252  0.00  0.00    +0.041 C 
ATOM     17  C   UNL     1     -34.145  30.003   2.988  0.00  0.00    +0.183 C 
BRANCH  16  18
ATOM     18  C   UNL     1     -31.994  29.665   4.211  0.00  0.00    +0.006 C 
ATOM     19  C   UNL     1     -32.146  29.907   5.567  0.00  0.00    +0.040 C 
ATOM     20  C   UNL     1     -31.025  28.794   3.740  0.00  0.00    +0.003 C 
ATOM     21  C   UNL     1     -31.308  29.260   6.476  0.00  0.00    +0.167 C 
ATOM     22  C   UNL     1     -30.327  28.381   6.016  0.00  0.00    +0.167 C 
ATOM     23  C   UNL     1     -30.186  28.148   4.648  0.00  0.00    +0.040 C 
BRANCH  21  24
ATOM     24  O   UNL     1     -31.456  29.497   7.809  0.00  0.00    -0.503 OA
ATOM     25  H   UNL     1     -31.984  30.213   8.102  0.00  0.00    +0.292 HD
ENDBRANCH  21  24
BRANCH  22  26
ATOM     26  O   UNL     1     -29.502  27.744   6.893  0.00  0.00    -0.503 OA
ATOM     27  H   UNL     1     -29.717  26.885   7.199  0.00  0.00    +0.292 HD
ENDBRANCH  22  26
ENDBRANCH  16  18
ENDBRANCH  15  17
ENDBRANCH   2  15
TORSDOF 9
ENDMDL
MODEL 6
REMARK VINA RESULT:      -6.4      4.382      7.066
REMARK  Name = 5316819
REMARK  9 active torsions:
REMARK  status: ('A' for Active; 'I' for Inactive)
REMARK    1  A    between atoms: C_2  and  C_4
REMARK    2  A    between atoms: C_2  and  O_15
REMARK    3  A    between atoms: C_3  and  C_5
REMARK    4  A    between atoms: C_8  and  O_11
REMARK    5  A    between atoms: C_9  and  O_13
REMARK    6  A    between atoms: O_15  and  C_17
REMARK    7  A    between atoms: C_16  and  C_18
REMARK    8  A    between atoms: C_21  and  O_24
REMARK    9  A    between atoms: C_22  and  O_26
REMARK                            x       y       z     vdW  Elec       q    Type
REMARK                         _______ _______ _______ _____ _____    ______ ____
ROOT
ATOM      1  O   UNL     1     -36.779  19.974   1.581  0.00  0.00    -0.244 OA
ATOM      2  C   UNL     1     -35.747  20.445   2.031  0.00  0.00    +0.346 C 
ENDROOT
BRANCH   2   4
ATOM      3  C   UNL     1     -33.642  20.314   0.765  0.00  0.00    +0.007 C 
ATOM      4  C   UNL     1     -34.390  19.888   1.807  0.00  0.00    +0.082 C 
BRANCH   3   5
ATOM      5  C   UNL     1     -32.307  19.837   0.438  0.00  0.00    +0.003 C 
ATOM      6  C   UNL     1     -31.890  18.580   0.873  0.00  0.00    +0.040 C 
ATOM      7  C   UNL     1     -31.444  20.638  -0.311  0.00  0.00    +0.003 C 
ATOM      8  C   UNL     1     -30.610  18.122   0.559  0.00  0.00    +0.167 C 
ATOM      9  C   UNL     1     -29.747  18.924  -0.189  0.00  0.00    +0.167 C 
ATOM     10  C   UNL     1     -30.164  20.181  -0.623  0.00  0.00    +0.040 C 
BRANCH   8  11
ATOM     11  O   UNL     1     -30.214  16.893   0.990  0.00  0.00    -0.503 OA
ATOM     12  H   UNL     1     -29.377  16.786   1.398  0.00  0.00    +0.292 HD
ENDBRANCH   8  11
BRANCH   9  13
ATOM     13  O   UNL     1     -28.495  18.488  -0.501  0.00  0.00    -0.503 OA
ATOM     14  H   UNL     1     -28.222  18.449  -1.397  0.00  0.00    +0.292 HD
ENDBRANCH   9  13
ENDBRANCH   3   5
ENDBRANCH   2   4
BRANCH   2  15
ATOM     15  O   UNL     1     -35.598  21.560   2.808  0.00  0.00    -0.418 OA
BRANCH  15  17
ATOM     16  C   UNL     1     -35.275  22.251   5.067  0.00  0.00    +0.041 C 
ATOM     17  C   UNL     1     -35.412  21.289   4.149  0.00  0.00    +0.183 C 
BRANCH  16  18
ATOM     18  C   UNL     1     -35.302  23.699   4.795  0.00  0.00    +0.006 C 
ATOM     19  C   UNL     1     -36.506  24.308   4.477  0.00  0.00    +0.040 C 
ATOM     20  C   UNL     1     -34.124  24.424   4.862  0.00  0.00    +0.003 C 
ATOM     21  C   UNL     1     -36.531  25.679   4.220  0.00  0.00    +0.167 C 
ATOM     22  C   UNL     1     -35.353  26.423   4.284  0.00  0.00    +0.167 C 
ATOM     23  C   UNL     1     -34.149  25.795   4.605  0.00  0.00    +0.040 C 
BRANCH  21  24
ATOM     24  O   UNL     1     -37.713  26.280   3.908  0.00  0.00    -0.503 OA
ATOM     25  H   UNL     1     -38.472  25.758   3.732  0.00  0.00    +0.292 HD
ENDBRANCH  21  24
BRANCH  22  26
ATOM     26  O   UNL     1     -35.364  27.762   4.035  0.00  0.00    -0.503 OA
ATOM     27  H   UNL     1     -36.177  28.228   4.021  0.00  0.00    +0.292 HD
ENDBRANCH  22  26
ENDBRANCH  16  18
ENDBRANCH  15  17
ENDBRANCH   2  15
TORSDOF 9
ENDMDL
MODEL 7
REMARK VINA RESULT:      -6.3      3.407      5.986
REMARK  Name = 5316819
REMARK  9 active torsions:
REMARK  status: ('A' for Active; 'I' for Inactive)
REMARK    1  A    between atoms: C_2  and  C_4
REMARK    2  A    between atoms: C_2  and  O_15
REMARK    3  A    between atoms: C_3  and  C_5
REMARK    4  A    between atoms: C_8  and  O_11
REMARK    5  A    between atoms: C_9  and  O_13
REMARK    6  A    between atoms: O_15  and  C_17
REMARK    7  A    between atoms: C_16  and  C_18
REMARK    8  A    between atoms: C_21  and  O_24
REMARK    9  A    between atoms: C_22  and  O_26
REMARK                            x       y       z     vdW  Elec       q    Type
REMARK                         _______ _______ _______ _____ _____    ______ ____
ROOT
ATOM      1  O   UNL     1     -36.869  28.243   1.354  0.00  0.00    -0.244 OA
ATOM      2  C   UNL     1     -36.845  27.133   1.863  0.00  0.00    +0.346 C 
ENDROOT
BRANCH   2   4
ATOM      3  C   UNL     1     -37.986  24.953   1.868  0.00  0.00    +0.007 C 
ATOM      4  C   UNL     1     -37.273  25.881   1.191  0.00  0.00    +0.082 C 
BRANCH   3   5
ATOM      5  C   UNL     1     -38.451  23.687   1.322  0.00  0.00    +0.003 C 
ATOM      6  C   UNL     1     -39.218  22.829   2.110  0.00  0.00    +0.040 C 
ATOM      7  C   UNL     1     -38.131  23.333   0.012  0.00  0.00    +0.003 C 
ATOM      8  C   UNL     1     -39.665  21.616   1.587  0.00  0.00    +0.167 C 
ATOM      9  C   UNL     1     -39.343  21.261   0.277  0.00  0.00    +0.167 C 
ATOM     10  C   UNL     1     -38.577  22.119  -0.510  0.00  0.00    +0.040 C 
BRANCH   8  11
ATOM     11  O   UNL     1     -40.413  20.785   2.366  0.00  0.00    -0.503 OA
ATOM     12  H   UNL     1     -39.993  20.214   2.979  0.00  0.00    +0.292 HD
ENDBRANCH   8  11
BRANCH   9  13
ATOM     13  O   UNL     1     -39.774  20.079  -0.246  0.00  0.00    -0.503 OA
ATOM     14  H   UNL     1     -40.608  19.732   0.004  0.00  0.00    +0.292 HD
ENDBRANCH   9  13
ENDBRANCH   3   5
ENDBRANCH   2   4
BRANCH   2  15
ATOM     15  O   UNL     1     -36.425  26.790   3.118  0.00  0.00    -0.418 OA
BRANCH  15  17
ATOM     16  C   UNL     1     -34.283  25.796   3.450  0.00  0.00    +0.041 C 
ATOM     17  C   UNL     1     -35.058  26.875   3.294  0.00  0.00    +0.183 C 
BRANCH  16  18
ATOM     18  C   UNL     1     -34.756  24.401   3.455  0.00  0.00    +0.006 C 
ATOM     19  C   UNL     1     -35.216  23.844   4.638  0.00  0.00    +0.040 C 
ATOM     20  C   UNL     1     -34.731  23.672   2.278  0.00  0.00    +0.003 C 
ATOM     21  C   UNL     1     -35.665  22.523   4.642  0.00  0.00    +0.167 C 
ATOM     22  C   UNL     1     -35.646  21.776   3.465  0.00  0.00    +0.167 C 
ATOM     23  C   UNL     1     -35.179  22.351   2.282  0.00  0.00    +0.040 C 
BRANCH  21  24
ATOM     24  O   UNL     1     -36.118  21.974   5.803  0.00  0.00    -0.503 OA
ATOM     25  H   UNL     1     -36.651  21.204   5.782  0.00  0.00    +0.292 HD
ENDBRANCH  21  24
BRANCH  22  26
ATOM     26  O   UNL     1     -36.080  20.485   3.456  0.00  0.00    -0.503 OA
ATOM     27  H   UNL     1     -36.704  20.197   4.093  0.00  0.00    +0.292 HD
ENDBRANCH  22  26
ENDBRANCH  16  18
ENDBRANCH  15  17
ENDBRANCH   2  15
TORSDOF 9
ENDMDL
MODEL 8
REMARK VINA RESULT:      -6.3      4.312      6.702
REMARK  Name = 5316819
REMARK  9 active torsions:
REMARK  status: ('A' for Active; 'I' for Inactive)
REMARK    1  A    between atoms: C_2  and  C_4
REMARK    2  A    between atoms: C_2  and  O_15
REMARK    3  A    between atoms: C_3  and  C_5
REMARK    4  A    between atoms: C_8  and  O_11
REMARK    5  A    between atoms: C_9  and  O_13
REMARK    6  A    between atoms: O_15  and  C_17
REMARK    7  A    between atoms: C_16  and  C_18
REMARK    8  A    between atoms: C_21  and  O_24
REMARK    9  A    between atoms: C_22  and  O_26
REMARK                            x       y       z     vdW  Elec       q    Type
REMARK                         _______ _______ _______ _____ _____    ______ ____
ROOT
ATOM      1  O   UNL     1     -34.643  24.201  -0.864  0.00  0.00    -0.244 OA
ATOM      2  C   UNL     1     -33.901  23.802   0.019  0.00  0.00    +0.346 C 
ENDROOT
BRANCH   2   4
ATOM      3  C   UNL     1     -33.892  21.365   0.358  0.00  0.00    +0.007 C 
ATOM      4  C   UNL     1     -33.215  22.487   0.023  0.00  0.00    +0.082 C 
BRANCH   3   5
ATOM      5  C   UNL     1     -33.328  20.025   0.407  0.00  0.00    +0.003 C 
ATOM      6  C   UNL     1     -34.171  18.915   0.418  0.00  0.00    +0.040 C 
ATOM      7  C   UNL     1     -31.944  19.852   0.443  0.00  0.00    +0.003 C 
ATOM      8  C   UNL     1     -33.630  17.629   0.465  0.00  0.00    +0.167 C 
ATOM      9  C   UNL     1     -32.246  17.456   0.502  0.00  0.00    +0.167 C 
ATOM     10  C   UNL     1     -31.404  18.567   0.491  0.00  0.00    +0.040 C 
BRANCH   8  11
ATOM     11  O   UNL     1     -34.463  16.552   0.475  0.00  0.00    -0.503 OA
ATOM     12  H   UNL     1     -34.397  15.901  -0.196  0.00  0.00    +0.292 HD
ENDBRANCH   8  11
BRANCH   9  13
ATOM     13  O   UNL     1     -31.706  16.206   0.547  0.00  0.00    -0.503 OA
ATOM     14  H   UNL     1     -30.782  16.092   0.448  0.00  0.00    +0.292 HD
ENDBRANCH   9  13
ENDBRANCH   3   5
ENDBRANCH   2   4
BRANCH   2  15
ATOM     15  O   UNL     1     -33.530  24.450   1.165  0.00  0.00    -0.418 OA
BRANCH  15  17
ATOM     16  C   UNL     1     -35.229  25.220   2.651  0.00  0.00    +0.041 C 
ATOM     17  C   UNL     1     -34.436  25.402   1.589  0.00  0.00    +0.183 C 
BRANCH  16  18
ATOM     18  C   UNL     1     -35.252  24.018   3.501  0.00  0.00    +0.006 C 
ATOM     19  C   UNL     1     -35.647  22.807   2.955  0.00  0.00    +0.040 C 
ATOM     20  C   UNL     1     -34.879  24.120   4.831  0.00  0.00    +0.003 C 
ATOM     21  C   UNL     1     -35.668  21.668   3.761  0.00  0.00    +0.167 C 
ATOM     22  C   UNL     1     -35.295  21.755   5.102  0.00  0.00    +0.167 C 
ATOM     23  C   UNL     1     -34.900  22.982   5.637  0.00  0.00    +0.040 C 
BRANCH  21  24
ATOM     24  O   UNL     1     -36.056  20.477   3.226  0.00  0.00    -0.503 OA
ATOM     25  H   UNL     1     -35.629  20.146   2.460  0.00  0.00    +0.292 HD
ENDBRANCH  21  24
BRANCH  22  26
ATOM     26  O   UNL     1     -35.312  20.651   5.899  0.00  0.00    -0.503 OA
ATOM     27  H   UNL     1     -36.084  20.122   5.949  0.00  0.00    +0.292 HD
ENDBRANCH  22  26
ENDBRANCH  16  18
ENDBRANCH  15  17
ENDBRANCH   2  15
TORSDOF 9
ENDMDL
MODEL 9
REMARK VINA RESULT:      -6.2      2.989      4.951
REMARK  Name = 5316819
REMARK  9 active torsions:
REMARK  status: ('A' for Active; 'I' for Inactive)
REMARK    1  A    between atoms: C_2  and  C_4
REMARK    2  A    between atoms: C_2  and  O_15
REMARK    3  A    between atoms: C_3  and  C_5
REMARK    4  A    between atoms: C_8  and  O_11
REMARK    5  A    between atoms: C_9  and  O_13
REMARK    6  A    between atoms: O_15  and  C_17
REMARK    7  A    between atoms: C_16  and  C_18
REMARK    8  A    between atoms: C_21  and  O_24
REMARK    9  A    between atoms: C_22  and  O_26
REMARK                            x       y       z     vdW  Elec       q    Type
REMARK                         _______ _______ _______ _____ _____    ______ ____
ROOT
ATOM      1  O   UNL     1     -33.922  26.917   0.203  0.00  0.00    -0.244 OA
ATOM      2  C   UNL     1     -33.388  26.187   1.024  0.00  0.00    +0.346 C 
ENDROOT
BRANCH   2   4
ATOM      3  C   UNL     1     -34.479  23.987   1.148  0.00  0.00    +0.007 C 
ATOM      4  C   UNL     1     -33.352  24.707   0.949  0.00  0.00    +0.082 C 
BRANCH   3   5
ATOM      5  C   UNL     1     -34.568  22.535   1.109  0.00  0.00    +0.003 C 
ATOM      6  C   UNL     1     -35.540  21.876   1.861  0.00  0.00    +0.040 C 
ATOM      7  C   UNL     1     -33.680  21.803   0.320  0.00  0.00    +0.003 C 
ATOM      8  C   UNL     1     -35.626  20.484   1.824  0.00  0.00    +0.167 C 
ATOM      9  C   UNL     1     -34.737  19.752   1.035  0.00  0.00    +0.167 C 
ATOM     10  C   UNL     1     -33.765  20.411   0.284  0.00  0.00    +0.040 C 
BRANCH   8  11
ATOM     11  O   UNL     1     -36.579  19.851   2.562  0.00  0.00    -0.503 OA
ATOM     12  H   UNL     1     -37.348  20.314   2.831  0.00  0.00    +0.292 HD
ENDBRANCH   8  11
BRANCH   9  13
ATOM     13  O   UNL     1     -34.810  18.393   0.991  0.00  0.00    -0.503 OA
ATOM     14  H   UNL     1     -34.072  17.893   0.702  0.00  0.00    +0.292 HD
ENDBRANCH   9  13
ENDBRANCH   3   5
ENDBRANCH   2   4
BRANCH   2  15
ATOM     15  O   UNL     1     -32.712  26.547   2.157  0.00  0.00    -0.418 OA
BRANCH  15  17
ATOM     16  C   UNL     1     -34.243  27.425   3.760  0.00  0.00    +0.041 C 
ATOM     17  C   UNL     1     -33.286  27.599   2.842  0.00  0.00    +0.183 C 
BRANCH  16  18
ATOM     18  C   UNL     1     -34.808  26.127   4.166  0.00  0.00    +0.006 C 
ATOM     19  C   UNL     1     -36.141  25.852   3.902  0.00  0.00    +0.040 C 
ATOM     20  C   UNL     1     -33.996  25.203   4.805  0.00  0.00    +0.003 C 
ATOM     21  C   UNL     1     -36.675  24.622   4.286  0.00  0.00    +0.167 C 
ATOM     22  C   UNL     1     -35.870  23.682   4.929  0.00  0.00    +0.167 C 
ATOM     23  C   UNL     1     -34.531  23.973   5.189  0.00  0.00    +0.040 C 
BRANCH  21  24
ATOM     24  O   UNL     1     -37.984  24.351   4.026  0.00  0.00    -0.503 OA
ATOM     25  H   UNL     1     -38.279  24.264   3.141  0.00  0.00    +0.292 HD
ENDBRANCH  21  24
BRANCH  22  26
ATOM     26  O   UNL     1     -36.380  22.478   5.310  0.00  0.00    -0.503 OA
ATOM     27  H   UNL     1     -36.536  21.813   4.669  0.00  0.00    +0.292 HD
ENDBRANCH  22  26
ENDBRANCH  16  18
ENDBRANCH  15  17
ENDBRANCH   2  15
TORSDOF 9
ENDMDL
