MODEL 1
REMARK VINA RESULT:      -6.0      0.000      0.000
REMARK  Name = 195678
REMARK  9 active torsions:
REMARK  status: ('A' for Active; 'I' for Inactive)
REMARK    1  A    between atoms: C_2  and  O_13
REMARK    2  A    between atoms: C_3  and  O_7
REMARK    3  A    between atoms: C_4  and  O_9
REMARK    4  A    between atoms: C_5  and  O_11
REMARK    5  A    between atoms: C_6  and  C_26
REMARK    6  A    between atoms: O_13  and  C_16
REMARK    7  A    between atoms: C_19  and  O_22
REMARK    8  A    between atoms: C_21  and  O_24
REMARK    9  A    between atoms: C_26  and  O_27
REMARK                            x       y       z     vdW  Elec       q    Type
REMARK                         _______ _______ _______ _____ _____    ______ ____
ROOT
ATOM      1  O   UNL     1     -33.231  27.474   5.194  0.00  0.00    -0.326 OA
ATOM      2  C   UNL     1     -33.801  26.956   3.993  0.00  0.00    +0.266 C 
ATOM      3  C   UNL     1     -34.059  28.075   2.981  0.00  0.00    +0.196 C 
ATOM      4  C   UNL     1     -32.787  28.889   2.739  0.00  0.00    +0.172 C 
ATOM      5  C   UNL     1     -32.163  29.337   4.061  0.00  0.00    +0.169 C 
ATOM      6  C   UNL     1     -31.973  28.127   4.982  0.00  0.00    +0.176 C 
ENDROOT
BRANCH   3   7
ATOM      7  O   UNL     1     -34.481  27.486   1.751  0.00  0.00    -0.378 OA
ATOM      8  H   UNL     1     -34.889  26.624   1.928  0.00  0.00    +0.211 HD
ENDBRANCH   3   7
BRANCH   4   9
ATOM      9  O   UNL     1     -33.103  30.023   1.935  0.00  0.00    -0.379 OA
ATOM     10  H   UNL     1     -32.306  30.320   1.469  0.00  0.00    +0.211 HD
ENDBRANCH   4   9
BRANCH   5  11
ATOM     11  O   UNL     1     -33.025  30.281   4.703  0.00  0.00    -0.379 OA
ATOM     12  H   UNL     1     -33.311  30.947   4.060  0.00  0.00    +0.211 HD
ENDBRANCH   5  11
BRANCH   2  13
ATOM     13  O   UNL     1     -35.051  26.332   4.284  0.00  0.00    -0.326 OA
BRANCH  13  16
ATOM     14  O   UNL     1     -37.154  24.430   4.865  0.00  0.00    -0.348 OA
ATOM     15  O   UNL     1     -35.417  23.030   2.775  0.00  0.00    -0.326 OA
ATOM     16  C   UNL     1     -34.959  24.921   4.181  0.00  0.00    +0.177 C 
ATOM     17  C   UNL     1     -35.774  24.243   5.269  0.00  0.00    +0.177 C 
ATOM     18  C   UNL     1     -35.731  24.416   2.981  0.00  0.00    +0.177 C 
ATOM     19  C   UNL     1     -35.458  22.745   5.226  0.00  0.00    +0.197 C 
ATOM     20  C   UNL     1     -37.173  24.613   3.432  0.00  0.00    +0.174 C 
ATOM     21  C   UNL     1     -35.786  22.151   3.846  0.00  0.00    +0.266 C 
BRANCH  19  22
ATOM     22  O   UNL     1     -36.214  22.075   6.230  0.00  0.00    -0.378 OA
ATOM     23  H   UNL     1     -37.073  21.810   5.864  0.00  0.00    +0.211 HD
ENDBRANCH  19  22
BRANCH  21  24
ATOM     24  O   UNL     1     -35.088  20.912   3.728  0.00  0.00    -0.326 OA
ATOM     25  C   UNL     1     -35.099  20.439   2.390  0.00  0.00    +0.177 C 
ENDBRANCH  21  24
ENDBRANCH  13  16
ENDBRANCH   2  13
BRANCH   6  26
ATOM     26  C   UNL     1     -31.428  28.520   6.350  0.00  0.00    +0.169 C 
BRANCH  26  27
ATOM     27  O   UNL     1     -30.541  27.511   6.777  0.00  0.00    -0.379 OA
ATOM     28  H   UNL     1     -31.043  26.804   7.213  0.00  0.00    +0.211 HD
ENDBRANCH  26  27
ENDBRANCH   6  26
TORSDOF 9
ENDMDL
MODEL 2
REMARK VINA RESULT:      -5.9      1.652      1.957
REMARK  Name = 195678
REMARK  9 active torsions:
REMARK  status: ('A' for Active; 'I' for Inactive)
REMARK    1  A    between atoms: C_2  and  O_13
REMARK    2  A    between atoms: C_3  and  O_7
REMARK    3  A    between atoms: C_4  and  O_9
REMARK    4  A    between atoms: C_5  and  O_11
REMARK    5  A    between atoms: C_6  and  C_26
REMARK    6  A    between atoms: O_13  and  C_16
REMARK    7  A    between atoms: C_19  and  O_22
REMARK    8  A    between atoms: C_21  and  O_24
REMARK    9  A    between atoms: C_26  and  O_27
REMARK                            x       y       z     vdW  Elec       q    Type
REMARK                         _______ _______ _______ _____ _____    ______ ____
ROOT
ATOM      1  O   UNL     1     -32.197  26.254   3.108  0.00  0.00    -0.326 OA
ATOM      2  C   UNL     1     -33.585  26.450   3.370  0.00  0.00    +0.266 C 
ATOM      3  C   UNL     1     -33.912  27.940   3.507  0.00  0.00    +0.196 C 
ATOM      4  C   UNL     1     -33.415  28.717   2.287  0.00  0.00    +0.172 C 
ATOM      5  C   UNL     1     -31.950  28.396   1.992  0.00  0.00    +0.169 C 
ATOM      6  C   UNL     1     -31.760  26.879   1.894  0.00  0.00    +0.176 C 
ENDROOT
BRANCH   3   7
ATOM      7  O   UNL     1     -35.328  28.085   3.612  0.00  0.00    -0.378 OA
ATOM      8  H   UNL     1     -35.535  28.800   4.233  0.00  0.00    +0.211 HD
ENDBRANCH   3   7
BRANCH   4   9
ATOM      9  O   UNL     1     -33.574  30.113   2.525  0.00  0.00    -0.379 OA
ATOM     10  H   UNL     1     -32.801  30.589   2.182  0.00  0.00    +0.211 HD
ENDBRANCH   4   9
BRANCH   5  11
ATOM     11  O   UNL     1     -31.126  28.902   3.046  0.00  0.00    -0.379 OA
ATOM     12  H   UNL     1     -31.425  29.791   3.292  0.00  0.00    +0.211 HD
ENDBRANCH   5  11
BRANCH   2  13
ATOM     13  O   UNL     1     -33.940  25.810   4.595  0.00  0.00    -0.326 OA
BRANCH  13  16
ATOM     14  O   UNL     1     -36.418  24.443   5.195  0.00  0.00    -0.348 OA
ATOM     15  O   UNL     1     -35.193  22.828   2.907  0.00  0.00    -0.326 OA
ATOM     16  C   UNL     1     -34.208  24.432   4.397  0.00  0.00    +0.177 C 
ATOM     17  C   UNL     1     -35.111  23.891   5.491  0.00  0.00    +0.177 C 
ATOM     18  C   UNL     1     -35.140  24.228   3.222  0.00  0.00    +0.177 C 
ATOM     19  C   UNL     1     -35.181  22.369   5.332  0.00  0.00    +0.197 C 
ATOM     20  C   UNL     1     -36.463  24.737   3.781  0.00  0.00    +0.174 C 
ATOM     21  C   UNL     1     -35.716  21.985   3.943  0.00  0.00    +0.266 C 
BRANCH  19  22
ATOM     22  O   UNL     1     -36.029  21.830   6.340  0.00  0.00    -0.378 OA
ATOM     23  H   UNL     1     -36.893  21.616   5.955  0.00  0.00    +0.211 HD
ENDBRANCH  19  22
BRANCH  21  24
ATOM     24  O   UNL     1     -35.356  20.626   3.699  0.00  0.00    -0.326 OA
ATOM     25  C   UNL     1     -35.167  20.383   2.313  0.00  0.00    +0.177 C 
ENDBRANCH  21  24
ENDBRANCH  13  16
ENDBRANCH   2  13
BRANCH   6  26
ATOM     26  C   UNL     1     -30.302  26.489   1.680  0.00  0.00    +0.169 C 
BRANCH  26  27
ATOM     27  O   UNL     1     -29.738  26.189   2.937  0.00  0.00    -0.379 OA
ATOM     28  H   UNL     1     -30.422  25.824   3.519  0.00  0.00    +0.211 HD
ENDBRANCH  26  27
ENDBRANCH   6  26
TORSDOF 9
ENDMDL
MODEL 3
REMARK VINA RESULT:      -5.8      3.394      4.883
REMARK  Name = 195678
REMARK  9 active torsions:
REMARK  status: ('A' for Active; 'I' for Inactive)
REMARK    1  A    between atoms: C_2  and  O_13
REMARK    2  A    between atoms: C_3  and  O_7
REMARK    3  A    between atoms: C_4  and  O_9
REMARK    4  A    between atoms: C_5  and  O_11
REMARK    5  A    between atoms: C_6  and  C_26
REMARK    6  A    between atoms: O_13  and  C_16
REMARK    7  A    between atoms: C_19  and  O_22
REMARK    8  A    between atoms: C_21  and  O_24
REMARK    9  A    between atoms: C_26  and  O_27
REMARK                            x       y       z     vdW  Elec       q    Type
REMARK                         _______ _______ _______ _____ _____    ______ ____
ROOT
ATOM      1  O   UNL     1     -36.845  24.451   3.586  0.00  0.00    -0.326 OA
ATOM      2  C   UNL     1     -36.904  25.119   2.327  0.00  0.00    +0.266 C 
ATOM      3  C   UNL     1     -36.666  26.622   2.493  0.00  0.00    +0.196 C 
ATOM      4  C   UNL     1     -35.363  26.883   3.250  0.00  0.00    +0.172 C 
ATOM      5  C   UNL     1     -35.308  26.068   4.543  0.00  0.00    +0.169 C 
ATOM      6  C   UNL     1     -35.576  24.591   4.237  0.00  0.00    +0.176 C 
ENDROOT
BRANCH   3   7
ATOM      7  O   UNL     1     -36.582  27.214   1.196  0.00  0.00    -0.378 OA
ATOM      8  H   UNL     1     -37.021  28.078   1.206  0.00  0.00    +0.211 HD
ENDBRANCH   3   7
BRANCH   4   9
ATOM      9  O   UNL     1     -35.262  28.275   3.542  0.00  0.00    -0.379 OA
ATOM     10  H   UNL     1     -36.125  28.607   3.833  0.00  0.00    +0.211 HD
ENDBRANCH   4   9
BRANCH   5  11
ATOM     11  O   UNL     1     -36.303  26.544   5.453  0.00  0.00    -0.379 OA
ATOM     12  H   UNL     1     -36.952  25.843   5.618  0.00  0.00    +0.211 HD
ENDBRANCH   5  11
BRANCH   2  13
ATOM     13  O   UNL     1     -38.197  24.943   1.748  0.00  0.00    -0.326 OA
BRANCH  13  16
ATOM     14  O   UNL     1     -40.717  23.532   1.579  0.00  0.00    -0.348 OA
ATOM     15  O   UNL     1     -38.976  22.240  -0.575  0.00  0.00    -0.326 OA
ATOM     16  C   UNL     1     -38.384  23.609   1.305  0.00  0.00    +0.177 C 
ATOM     17  C   UNL     1     -39.498  22.930   2.083  0.00  0.00    +0.177 C 
ATOM     18  C   UNL     1     -39.025  23.581  -0.065  0.00  0.00    +0.177 C 
ATOM     19  C   UNL     1     -39.499  21.446   1.702  0.00  0.00    +0.197 C 
ATOM     20  C   UNL     1     -40.450  24.021   0.246  0.00  0.00    +0.174 C 
ATOM     21  C   UNL     1     -39.700  21.266   0.188  0.00  0.00    +0.266 C 
BRANCH  19  22
ATOM     22  O   UNL     1     -40.540  20.780   2.408  0.00  0.00    -0.378 OA
ATOM     23  H   UNL     1     -40.180  20.387   3.219  0.00  0.00    +0.211 HD
ENDBRANCH  19  22
BRANCH  21  24
ATOM     24  O   UNL     1     -39.266  19.950  -0.155  0.00  0.00    -0.326 OA
ATOM     25  C   UNL     1     -37.857  19.826  -0.045  0.00  0.00    +0.177 C 
ENDBRANCH  21  24
ENDBRANCH  13  16
ENDBRANCH   2  13
BRANCH   6  26
ATOM     26  C   UNL     1     -35.614  23.736   5.498  0.00  0.00    +0.169 C 
BRANCH  26  27
ATOM     27  O   UNL     1     -36.331  22.557   5.209  0.00  0.00    -0.379 OA
ATOM     28  H   UNL     1     -36.606  22.135   6.039  0.00  0.00    +0.211 HD
ENDBRANCH  26  27
ENDBRANCH   6  26
TORSDOF 9
ENDMDL
MODEL 4
REMARK VINA RESULT:      -5.8      3.117      7.648
REMARK  Name = 195678
REMARK  9 active torsions:
REMARK  status: ('A' for Active; 'I' for Inactive)
REMARK    1  A    between atoms: C_2  and  O_13
REMARK    2  A    between atoms: C_3  and  O_7
REMARK    3  A    between atoms: C_4  and  O_9
REMARK    4  A    between atoms: C_5  and  O_11
REMARK    5  A    between atoms: C_6  and  C_26
REMARK    6  A    between atoms: O_13  and  C_16
REMARK    7  A    between atoms: C_19  and  O_22
REMARK    8  A    between atoms: C_21  and  O_24
REMARK    9  A    between atoms: C_26  and  O_27
REMARK                            x       y       z     vdW  Elec       q    Type
REMARK                         _______ _______ _______ _____ _____    ______ ____
ROOT
ATOM      1  O   UNL     1     -38.571  23.090   2.045  0.00  0.00    -0.326 OA
ATOM      2  C   UNL     1     -37.292  22.474   1.910  0.00  0.00    +0.266 C 
ATOM      3  C   UNL     1     -37.432  20.987   1.573  0.00  0.00    +0.196 C 
ATOM      4  C   UNL     1     -38.326  20.792   0.347  0.00  0.00    +0.172 C 
ATOM      5  C   UNL     1     -39.644  21.552   0.502  0.00  0.00    +0.169 C 
ATOM      6  C   UNL     1     -39.360  23.017   0.851  0.00  0.00    +0.176 C 
ENDROOT
BRANCH   3   7
ATOM      7  O   UNL     1     -36.135  20.460   1.298  0.00  0.00    -0.378 OA
ATOM      8  H   UNL     1     -35.490  21.184   1.270  0.00  0.00    +0.211 HD
ENDBRANCH   3   7
BRANCH   4   9
ATOM      9  O   UNL     1     -38.579  19.401   0.169  0.00  0.00    -0.379 OA
ATOM     10  H   UNL     1     -39.509  19.270  -0.073  0.00  0.00    +0.211 HD
ENDBRANCH   4   9
BRANCH   5  11
ATOM     11  O   UNL     1     -40.415  20.964   1.552  0.00  0.00    -0.379 OA
ATOM     12  H   UNL     1     -39.880  20.301   2.015  0.00  0.00    +0.211 HD
ENDBRANCH   5  11
BRANCH   2  13
ATOM     13  O   UNL     1     -36.575  22.578   3.139  0.00  0.00    -0.326 OA
BRANCH  13  16
ATOM     14  O   UNL     1     -36.075  23.911   5.658  0.00  0.00    -0.348 OA
ATOM     15  O   UNL     1     -34.017  25.109   3.742  0.00  0.00    -0.326 OA
ATOM     16  C   UNL     1     -36.030  23.876   3.308  0.00  0.00    +0.177 C 
ATOM     17  C   UNL     1     -36.652  24.574   4.506  0.00  0.00    +0.177 C 
ATOM     18  C   UNL     1     -34.606  23.801   3.814  0.00  0.00    +0.177 C 
ATOM     19  C   UNL     1     -36.177  26.030   4.498  0.00  0.00    +0.197 C 
ATOM     20  C   UNL     1     -34.808  23.346   5.254  0.00  0.00    +0.174 C 
ATOM     21  C   UNL     1     -34.643  26.110   4.555  0.00  0.00    +0.266 C 
BRANCH  19  22
ATOM     22  O   UNL     1     -36.737  26.713   5.615  0.00  0.00    -0.378 OA
ATOM     23  H   UNL     1     -36.205  27.501   5.811  0.00  0.00    +0.211 HD
ENDBRANCH  19  22
BRANCH  21  24
ATOM     24  O   UNL     1     -34.258  27.412   4.115  0.00  0.00    -0.326 OA
ATOM     25  C   UNL     1     -34.557  27.603   2.741  0.00  0.00    +0.177 C 
ENDBRANCH  21  24
ENDBRANCH  13  16
ENDBRANCH   2  13
BRANCH   6  26
ATOM     26  C   UNL     1     -40.637  23.812   1.098  0.00  0.00    +0.169 C 
BRANCH  26  27
ATOM     27  O   UNL     1     -41.684  23.196   0.383  0.00  0.00    -0.379 OA
ATOM     28  H   UNL     1     -42.493  23.723   0.478  0.00  0.00    +0.211 HD
ENDBRANCH  26  27
ENDBRANCH   6  26
TORSDOF 9
ENDMDL
MODEL 5
REMARK VINA RESULT:      -5.8      2.386      6.983
REMARK  Name = 195678
REMARK  9 active torsions:
REMARK  status: ('A' for Active; 'I' for Inactive)
REMARK    1  A    between atoms: C_2  and  O_13
REMARK    2  A    between atoms: C_3  and  O_7
REMARK    3  A    between atoms: C_4  and  O_9
REMARK    4  A    between atoms: C_5  and  O_11
REMARK    5  A    between atoms: C_6  and  C_26
REMARK    6  A    between atoms: O_13  and  C_16
REMARK    7  A    between atoms: C_19  and  O_22
REMARK    8  A    between atoms: C_21  and  O_24
REMARK    9  A    between atoms: C_26  and  O_27
REMARK                            x       y       z     vdW  Elec       q    Type
REMARK                         _______ _______ _______ _____ _____    ______ ____
ROOT
ATOM      1  O   UNL     1     -34.705  22.472   1.079  0.00  0.00    -0.326 OA
ATOM      2  C   UNL     1     -35.314  21.854   2.211  0.00  0.00    +0.266 C 
ATOM      3  C   UNL     1     -36.089  20.599   1.799  0.00  0.00    +0.196 C 
ATOM      4  C   UNL     1     -35.195  19.648   1.004  0.00  0.00    +0.172 C 
ATOM      5  C   UNL     1     -34.491  20.382  -0.138  0.00  0.00    +0.169 C 
ATOM      6  C   UNL     1     -33.770  21.618   0.407  0.00  0.00    +0.176 C 
ENDROOT
BRANCH   3   7
ATOM      7  O   UNL     1     -36.544  19.940   2.980  0.00  0.00    -0.378 OA
ATOM      8  H   UNL     1     -37.053  20.561   3.523  0.00  0.00    +0.211 HD
ENDBRANCH   3   7
BRANCH   4   9
ATOM      9  O   UNL     1     -35.989  18.582   0.487  0.00  0.00    -0.379 OA
ATOM     10  H   UNL     1     -35.483  17.755   0.526  0.00  0.00    +0.211 HD
ENDBRANCH   4   9
BRANCH   5  11
ATOM     11  O   UNL     1     -35.456  20.795  -1.109  0.00  0.00    -0.379 OA
ATOM     12  H   UNL     1     -35.075  20.717  -1.997  0.00  0.00    +0.211 HD
ENDBRANCH   5  11
BRANCH   2  13
ATOM     13  O   UNL     1     -36.236  22.759   2.816  0.00  0.00    -0.326 OA
BRANCH  13  16
ATOM     14  O   UNL     1     -36.555  23.865   5.471  0.00  0.00    -0.348 OA
ATOM     15  O   UNL     1     -33.713  24.641   4.659  0.00  0.00    -0.326 OA
ATOM     16  C   UNL     1     -35.572  23.899   3.336  0.00  0.00    +0.177 C 
ATOM     17  C   UNL     1     -36.481  24.677   4.272  0.00  0.00    +0.177 C 
ATOM     18  C   UNL     1     -34.516  23.494   4.342  0.00  0.00    +0.177 C 
ATOM     19  C   UNL     1     -35.777  25.991   4.623  0.00  0.00    +0.197 C 
ATOM     20  C   UNL     1     -35.365  23.048   5.525  0.00  0.00    +0.174 C 
ATOM     21  C   UNL     1     -34.412  25.729   5.279  0.00  0.00    +0.266 C 
BRANCH  19  22
ATOM     22  O   UNL     1     -36.600  26.744   5.508  0.00  0.00    -0.378 OA
ATOM     23  H   UNL     1     -36.068  27.433   5.936  0.00  0.00    +0.211 HD
ENDBRANCH  19  22
BRANCH  21  24
ATOM     24  O   UNL     1     -33.644  26.927   5.181  0.00  0.00    -0.326 OA
ATOM     25  C   UNL     1     -33.326  27.228   3.831  0.00  0.00    +0.177 C 
ENDBRANCH  21  24
ENDBRANCH  13  16
ENDBRANCH   2  13
BRANCH   6  26
ATOM     26  C   UNL     1     -33.113  22.440  -0.696  0.00  0.00    +0.169 C 
BRANCH  26  27
ATOM     27  O   UNL     1     -32.597  21.551  -1.660  0.00  0.00    -0.379 OA
ATOM     28  H   UNL     1     -32.888  21.828  -2.543  0.00  0.00    +0.211 HD
ENDBRANCH  26  27
ENDBRANCH   6  26
TORSDOF 9
ENDMDL
MODEL 6
REMARK VINA RESULT:      -5.8      3.403      7.320
REMARK  Name = 195678
REMARK  9 active torsions:
REMARK  status: ('A' for Active; 'I' for Inactive)
REMARK    1  A    between atoms: C_2  and  O_13
REMARK    2  A    between atoms: C_3  and  O_7
REMARK    3  A    between atoms: C_4  and  O_9
REMARK    4  A    between atoms: C_5  and  O_11
REMARK    5  A    between atoms: C_6  and  C_26
REMARK    6  A    between atoms: O_13  and  C_16
REMARK    7  A    between atoms: C_19  and  O_22
REMARK    8  A    between atoms: C_21  and  O_24
REMARK    9  A    between atoms: C_26  and  O_27
REMARK                            x       y       z     vdW  Elec       q    Type
REMARK                         _______ _______ _______ _____ _____    ______ ____
ROOT
ATOM      1  O   UNL     1     -39.060  24.528   1.461  0.00  0.00    -0.326 OA
ATOM      2  C   UNL     1     -38.401  23.376   1.983  0.00  0.00    +0.266 C 
ATOM      3  C   UNL     1     -39.338  22.166   1.995  0.00  0.00    +0.196 C 
ATOM      4  C   UNL     1     -39.944  21.936   0.610  0.00  0.00    +0.172 C 
ATOM      5  C   UNL     1     -40.551  23.225   0.056  0.00  0.00    +0.169 C 
ATOM      6  C   UNL     1     -39.516  24.353   0.114  0.00  0.00    +0.176 C 
ENDROOT
BRANCH   3   7
ATOM      7  O   UNL     1     -38.587  21.014   2.377  0.00  0.00    -0.378 OA
ATOM      8  H   UNL     1     -37.748  21.292   2.776  0.00  0.00    +0.211 HD
ENDBRANCH   3   7
BRANCH   4   9
ATOM      9  O   UNL     1     -40.940  20.921   0.698  0.00  0.00    -0.379 OA
ATOM     10  H   UNL     1     -41.715  21.268   1.168  0.00  0.00    +0.211 HD
ENDBRANCH   4   9
BRANCH   5  11
ATOM     11  O   UNL     1     -41.688  23.595   0.840  0.00  0.00    -0.379 OA
ATOM     12  H   UNL     1     -42.475  23.629   0.274  0.00  0.00    +0.211 HD
ENDBRANCH   5  11
BRANCH   2  13
ATOM     13  O   UNL     1     -37.988  23.624   3.326  0.00  0.00    -0.326 OA
BRANCH  13  16
ATOM     14  O   UNL     1     -36.132  23.662   5.546  0.00  0.00    -0.348 OA
ATOM     15  O   UNL     1     -34.371  24.030   3.076  0.00  0.00    -0.326 OA
ATOM     16  C   UNL     1     -36.739  24.294   3.365  0.00  0.00    +0.177 C 
ATOM     17  C   UNL     1     -36.455  24.834   4.756  0.00  0.00    +0.177 C 
ATOM     18  C   UNL     1     -35.595  23.307   3.276  0.00  0.00    +0.177 C 
ATOM     19  C   UNL     1     -35.207  25.717   4.670  0.00  0.00    +0.197 C 
ATOM     20  C   UNL     1     -35.647  22.642   4.645  0.00  0.00    +0.174 C 
ATOM     21  C   UNL     1     -34.004  24.922   4.137  0.00  0.00    +0.266 C 
BRANCH  19  22
ATOM     22  O   UNL     1     -34.907  26.234   5.962  0.00  0.00    -0.378 OA
ATOM     23  H   UNL     1     -34.022  26.632   5.954  0.00  0.00    +0.211 HD
ENDBRANCH  19  22
BRANCH  21  24
ATOM     24  O   UNL     1     -33.031  25.860   3.677  0.00  0.00    -0.326 OA
ATOM     25  C   UNL     1     -33.584  26.751   2.722  0.00  0.00    +0.177 C 
ENDBRANCH  21  24
ENDBRANCH  13  16
ENDBRANCH   2  13
BRANCH   6  26
ATOM     26  C   UNL     1     -40.087  25.688  -0.351  0.00  0.00    +0.169 C 
BRANCH  26  27
ATOM     27  O   UNL     1     -40.587  26.370   0.777  0.00  0.00    -0.379 OA
ATOM     28  H   UNL     1     -40.489  27.326   0.645  0.00  0.00    +0.211 HD
ENDBRANCH  26  27
ENDBRANCH   6  26
TORSDOF 9
ENDMDL
MODEL 7
REMARK VINA RESULT:      -5.7      1.605      2.219
REMARK  Name = 195678
REMARK  9 active torsions:
REMARK  status: ('A' for Active; 'I' for Inactive)
REMARK    1  A    between atoms: C_2  and  O_13
REMARK    2  A    between atoms: C_3  and  O_7
REMARK    3  A    between atoms: C_4  and  O_9
REMARK    4  A    between atoms: C_5  and  O_11
REMARK    5  A    between atoms: C_6  and  C_26
REMARK    6  A    between atoms: O_13  and  C_16
REMARK    7  A    between atoms: C_19  and  O_22
REMARK    8  A    between atoms: C_21  and  O_24
REMARK    9  A    between atoms: C_26  and  O_27
REMARK                            x       y       z     vdW  Elec       q    Type
REMARK                         _______ _______ _______ _____ _____    ______ ____
ROOT
ATOM      1  O   UNL     1     -33.052  27.963   4.704  0.00  0.00    -0.326 OA
ATOM      2  C   UNL     1     -33.067  27.943   3.278  0.00  0.00    +0.266 C 
ATOM      3  C   UNL     1     -32.976  29.361   2.709  0.00  0.00    +0.196 C 
ATOM      4  C   UNL     1     -31.768  30.099   3.286  0.00  0.00    +0.172 C 
ATOM      5  C   UNL     1     -31.747  30.007   4.812  0.00  0.00    +0.169 C 
ATOM      6  C   UNL     1     -31.858  28.542   5.245  0.00  0.00    +0.176 C 
ENDROOT
BRANCH   3   7
ATOM      7  O   UNL     1     -32.840  29.272   1.291  0.00  0.00    -0.378 OA
ATOM      8  H   UNL     1     -31.999  29.671   1.021  0.00  0.00    +0.211 HD
ENDBRANCH   3   7
BRANCH   4   9
ATOM      9  O   UNL     1     -31.814  31.464   2.877  0.00  0.00    -0.379 OA
ATOM     10  H   UNL     1     -31.048  31.657   2.313  0.00  0.00    +0.211 HD
ENDBRANCH   4   9
BRANCH   5  11
ATOM     11  O   UNL     1     -32.851  30.738   5.352  0.00  0.00    -0.379 OA
ATOM     12  H   UNL     1     -33.092  30.369   6.216  0.00  0.00    +0.211 HD
ENDBRANCH   5  11
BRANCH   2  13
ATOM     13  O   UNL     1     -34.288  27.364   2.817  0.00  0.00    -0.326 OA
BRANCH  13  16
ATOM     14  O   UNL     1     -36.161  25.250   2.189  0.00  0.00    -0.348 OA
ATOM     15  O   UNL     1     -34.424  24.089   4.420  0.00  0.00    -0.326 OA
ATOM     16  C   UNL     1     -34.747  26.357   3.705  0.00  0.00    +0.177 C 
ATOM     17  C   UNL     1     -36.198  26.007   3.424  0.00  0.00    +0.177 C 
ATOM     18  C   UNL     1     -34.128  25.018   3.366  0.00  0.00    +0.177 C 
ATOM     19  C   UNL     1     -36.680  25.080   4.544  0.00  0.00    +0.197 C 
ATOM     20  C   UNL     1     -34.847  24.659   2.072  0.00  0.00    +0.174 C 
ATOM     21  C   UNL     1     -35.816  23.811   4.621  0.00  0.00    +0.266 C 
BRANCH  19  22
ATOM     22  O   UNL     1     -38.038  24.724   4.307  0.00  0.00    -0.378 OA
ATOM     23  H   UNL     1     -38.618  25.277   4.855  0.00  0.00    +0.211 HD
ENDBRANCH  19  22
BRANCH  21  24
ATOM     24  O   UNL     1     -36.020  23.221   5.904  0.00  0.00    -0.326 OA
ATOM     25  C   UNL     1     -35.286  22.015   6.041  0.00  0.00    +0.177 C 
ENDBRANCH  21  24
ENDBRANCH  13  16
ENDBRANCH   2  13
BRANCH   6  26
ATOM     26  C   UNL     1     -31.924  28.389   6.761  0.00  0.00    +0.169 C 
BRANCH  26  27
ATOM     27  O   UNL     1     -32.284  27.058   7.054  0.00  0.00    -0.379 OA
ATOM     28  H   UNL     1     -33.229  27.019   7.267  0.00  0.00    +0.211 HD
ENDBRANCH  26  27
ENDBRANCH   6  26
TORSDOF 9
ENDMDL
MODEL 8
REMARK VINA RESULT:      -5.7      2.022      3.854
REMARK  Name = 195678
REMARK  9 active torsions:
REMARK  status: ('A' for Active; 'I' for Inactive)
REMARK    1  A    between atoms: C_2  and  O_13
REMARK    2  A    between atoms: C_3  and  O_7
REMARK    3  A    between atoms: C_4  and  O_9
REMARK    4  A    between atoms: C_5  and  O_11
REMARK    5  A    between atoms: C_6  and  C_26
REMARK    6  A    between atoms: O_13  and  C_16
REMARK    7  A    between atoms: C_19  and  O_22
REMARK    8  A    between atoms: C_21  and  O_24
REMARK    9  A    between atoms: C_26  and  O_27
REMARK                            x       y       z     vdW  Elec       q    Type
REMARK                         _______ _______ _______ _____ _____    ______ ____
ROOT
ATOM      1  O   UNL     1     -30.208  27.768   4.033  0.00  0.00    -0.326 OA
ATOM      2  C   UNL     1     -31.275  28.715   4.040  0.00  0.00    +0.266 C 
ATOM      3  C   UNL     1     -31.727  29.021   5.470  0.00  0.00    +0.196 C 
ATOM      4  C   UNL     1     -30.540  29.447   6.334  0.00  0.00    +0.172 C 
ATOM      5  C   UNL     1     -29.388  28.448   6.215  0.00  0.00    +0.169 C 
ATOM      6  C   UNL     1     -29.047  28.224   4.738  0.00  0.00    +0.176 C 
ENDROOT
BRANCH   3   7
ATOM      7  O   UNL     1     -32.682  30.081   5.427  0.00  0.00    -0.378 OA
ATOM      8  H   UNL     1     -32.855  30.323   4.505  0.00  0.00    +0.211 HD
ENDBRANCH   3   7
BRANCH   4   9
ATOM      9  O   UNL     1     -30.962  29.550   7.692  0.00  0.00    -0.379 OA
ATOM     10  H   UNL     1     -31.931  29.554   7.729  0.00  0.00    +0.211 HD
ENDBRANCH   4   9
BRANCH   5  11
ATOM     11  O   UNL     1     -29.772  27.201   6.799  0.00  0.00    -0.379 OA
ATOM     12  H   UNL     1     -30.235  27.364   7.635  0.00  0.00    +0.211 HD
ENDBRANCH   5  11
BRANCH   2  13
ATOM     13  O   UNL     1     -32.394  28.186   3.331  0.00  0.00    -0.326 OA
BRANCH  13  16
ATOM     14  O   UNL     1     -35.016  27.068   2.834  0.00  0.00    -0.348 OA
ATOM     15  O   UNL     1     -33.430  24.767   4.071  0.00  0.00    -0.326 OA
ATOM     16  C   UNL     1     -33.007  27.129   4.051  0.00  0.00    +0.177 C 
ATOM     17  C   UNL     1     -34.506  27.345   4.162  0.00  0.00    +0.177 C 
ATOM     18  C   UNL     1     -33.028  25.859   3.229  0.00  0.00    +0.177 C 
ATOM     19  C   UNL     1     -35.062  26.290   5.123  0.00  0.00    +0.197 C 
ATOM     20  C   UNL     1     -34.081  26.184   2.177  0.00  0.00    +0.174 C 
ATOM     21  C   UNL     1     -34.749  24.870   4.623  0.00  0.00    +0.266 C 
BRANCH  19  22
ATOM     22  O   UNL     1     -36.470  26.459   5.244  0.00  0.00    -0.378 OA
ATOM     23  H   UNL     1     -36.762  26.128   6.108  0.00  0.00    +0.211 HD
ENDBRANCH  19  22
BRANCH  21  24
ATOM     24  O   UNL     1     -34.892  23.978   5.728  0.00  0.00    -0.326 OA
ATOM     25  C   UNL     1     -35.677  22.848   5.382  0.00  0.00    +0.177 C 
ENDBRANCH  21  24
ENDBRANCH  13  16
ENDBRANCH   2  13
BRANCH   6  26
ATOM     26  C   UNL     1     -27.957  27.175   4.548  0.00  0.00    +0.169 C 
BRANCH  26  27
ATOM     27  O   UNL     1     -28.469  26.153   3.724  0.00  0.00    -0.379 OA
ATOM     28  H   UNL     1     -29.129  26.526   3.118  0.00  0.00    +0.211 HD
ENDBRANCH  26  27
ENDBRANCH   6  26
TORSDOF 9
ENDMDL
MODEL 9
REMARK VINA RESULT:      -5.5      2.077      7.037
REMARK  Name = 195678
REMARK  9 active torsions:
REMARK  status: ('A' for Active; 'I' for Inactive)
REMARK    1  A    between atoms: C_2  and  O_13
REMARK    2  A    between atoms: C_3  and  O_7
REMARK    3  A    between atoms: C_4  and  O_9
REMARK    4  A    between atoms: C_5  and  O_11
REMARK    5  A    between atoms: C_6  and  C_26
REMARK    6  A    between atoms: O_13  and  C_16
REMARK    7  A    between atoms: C_19  and  O_22
REMARK    8  A    between atoms: C_21  and  O_24
REMARK    9  A    between atoms: C_26  and  O_27
REMARK                            x       y       z     vdW  Elec       q    Type
REMARK                         _______ _______ _______ _____ _____    ______ ____
ROOT
ATOM      1  O   UNL     1     -34.926  23.211   1.365  0.00  0.00    -0.326 OA
ATOM      2  C   UNL     1     -35.211  23.181   2.762  0.00  0.00    +0.266 C 
ATOM      3  C   UNL     1     -36.221  22.078   3.092  0.00  0.00    +0.196 C 
ATOM      4  C   UNL     1     -35.748  20.731   2.546  0.00  0.00    +0.172 C 
ATOM      5  C   UNL     1     -35.362  20.841   1.070  0.00  0.00    +0.169 C 
ATOM      6  C   UNL     1     -34.362  21.986   0.879  0.00  0.00    +0.176 C 
ENDROOT
BRANCH   3   7
ATOM      7  O   UNL     1     -36.350  21.992   4.510  0.00  0.00    -0.378 OA
ATOM      8  H   UNL     1     -36.258  22.875   4.899  0.00  0.00    +0.211 HD
ENDBRANCH   3   7
BRANCH   4   9
ATOM      9  O   UNL     1     -36.786  19.768   2.712  0.00  0.00    -0.379 OA
ATOM     10  H   UNL     1     -36.523  19.123   3.387  0.00  0.00    +0.211 HD
ENDBRANCH   4   9
BRANCH   5  11
ATOM     11  O   UNL     1     -36.530  21.106   0.288  0.00  0.00    -0.379 OA
ATOM     12  H   UNL     1     -36.268  21.479  -0.568  0.00  0.00    +0.211 HD
ENDBRANCH   5  11
BRANCH   2  13
ATOM     13  O   UNL     1     -35.777  24.427   3.165  0.00  0.00    -0.326 OA
BRANCH  13  16
ATOM     14  O   UNL     1     -35.560  26.721   4.916  0.00  0.00    -0.348 OA
ATOM     15  O   UNL     1     -32.724  26.301   3.857  0.00  0.00    -0.326 OA
ATOM     16  C   UNL     1     -34.832  25.480   3.058  0.00  0.00    +0.177 C 
ATOM     17  C   UNL     1     -35.446  26.805   3.474  0.00  0.00    +0.177 C 
ATOM     18  C   UNL     1     -33.783  25.374   4.143  0.00  0.00    +0.177 C 
ATOM     19  C   UNL     1     -34.446  27.913   3.132  0.00  0.00    +0.197 C 
ATOM     20  C   UNL     1     -34.572  25.775   5.382  0.00  0.00    +0.174 C 
ATOM     21  C   UNL     1     -33.104  27.684   3.847  0.00  0.00    +0.266 C 
BRANCH  19  22
ATOM     22  O   UNL     1     -34.988  29.172   3.517  0.00  0.00    -0.378 OA
ATOM     23  H   UNL     1     -35.459  29.564   2.766  0.00  0.00    +0.211 HD
ENDBRANCH  19  22
BRANCH  21  24
ATOM     24  O   UNL     1     -32.114  28.461   3.174  0.00  0.00    -0.326 OA
ATOM     25  C   UNL     1     -31.008  27.663   2.784  0.00  0.00    +0.177 C 
ENDBRANCH  21  24
ENDBRANCH  13  16
ENDBRANCH   2  13
BRANCH   6  26
ATOM     26  C   UNL     1     -33.999  22.200  -0.586  0.00  0.00    +0.169 C 
BRANCH  26  27
ATOM     27  O   UNL     1     -34.168  20.977  -1.264  0.00  0.00    -0.379 OA
ATOM     28  H   UNL     1     -35.071  20.651  -1.123  0.00  0.00    +0.211 HD
ENDBRANCH  26  27
ENDBRANCH   6  26
TORSDOF 9
ENDMDL
