MODEL 1
REMARK VINA RESULT:      -6.5      0.000      0.000
REMARK  Name = 53800850
REMARK  6 active torsions:
REMARK  status: ('A' for Active; 'I' for Inactive)
REMARK    1  A    between atoms: C_2  and  C_3
REMARK    2  A    between atoms: C_2  and  O_13
REMARK    3  A    between atoms: C_6  and  O_9
REMARK    4  A    between atoms: C_7  and  O_11
REMARK    5  A    between atoms: O_13  and  C_14
REMARK    6  A    between atoms: C_17  and  N_22
REMARK                            x       y       z     vdW  Elec       q    Type
REMARK                         _______ _______ _______ _____ _____    ______ ____
ROOT
ATOM      1  O   UNL     1     -36.171  26.370   5.557  0.00  0.00    -0.244 OA
ATOM      2  C   UNL     1     -35.291  25.499   5.588  0.00  0.00    +0.346 C 
ENDROOT
BRANCH   2   3
ATOM      3  C   UNL     1     -35.406  24.191   4.962  0.00  0.00    +0.079 C 
ATOM      4  C   UNL     1     -35.295  23.035   5.736  0.00  0.00    +0.046 C 
ATOM      5  C   UNL     1     -35.626  24.092   3.588  0.00  0.00    +0.010 C 
ATOM      6  C   UNL     1     -35.405  21.782   5.136  0.00  0.00    +0.168 C 
ATOM      7  C   UNL     1     -35.626  21.682   3.762  0.00  0.00    +0.167 C 
ATOM      8  C   UNL     1     -35.737  22.837   2.989  0.00  0.00    +0.040 C 
BRANCH   6   9
ATOM      9  O   UNL     1     -35.296  20.660   5.903  0.00  0.00    -0.503 OA
ATOM     10  H   UNL     1     -36.004  20.404   6.460  0.00  0.00    +0.292 HD
ENDBRANCH   6   9
BRANCH   7  11
ATOM     11  O   UNL     1     -35.736  20.463   3.165  0.00  0.00    -0.503 OA
ATOM     12  H   UNL     1     -36.154  20.385   2.331  0.00  0.00    +0.292 HD
ENDBRANCH   7  11
ENDBRANCH   2   3
BRANCH   2  13
ATOM     13  O   UNL     1     -34.065  25.636   6.236  0.00  0.00    -0.421 OA
BRANCH  13  14
ATOM     14  C   UNL     1     -33.323  26.746   5.826  0.00  0.00    +0.149 C 
ATOM     15  C   UNL     1     -32.589  27.480   6.760  0.00  0.00    +0.039 C 
ATOM     16  C   UNL     1     -33.316  27.124   4.483  0.00  0.00    +0.039 C 
ATOM     17  C   UNL     1     -31.842  28.965   5.008  0.00  0.00    +0.143 C 
ATOM     18  C   UNL     1     -31.850  28.589   6.351  0.00  0.00    +0.027 C 
ATOM     19  C   UNL     1     -32.575  28.233   4.074  0.00  0.00    +0.027 C 
BRANCH  17  22
ATOM     20  O   UNL     1     -30.294  29.974   3.628  0.00  0.00    -0.126 OA
ATOM     21  O   UNL     1     -31.240  31.183   5.198  0.00  0.00    -0.126 OA
ATOM     22  N   UNL     1     -31.089  30.095   4.591  0.00  0.00    +0.058 N 
ENDBRANCH  17  22
ENDBRANCH  13  14
ENDBRANCH   2  13
TORSDOF 6
ENDMDL
MODEL 2
REMARK VINA RESULT:      -6.5      3.554      6.037
REMARK  Name = 53800850
REMARK  6 active torsions:
REMARK  status: ('A' for Active; 'I' for Inactive)
REMARK    1  A    between atoms: C_2  and  C_3
REMARK    2  A    between atoms: C_2  and  O_13
REMARK    3  A    between atoms: C_6  and  O_9
REMARK    4  A    between atoms: C_7  and  O_11
REMARK    5  A    between atoms: O_13  and  C_14
REMARK    6  A    between atoms: C_17  and  N_22
REMARK                            x       y       z     vdW  Elec       q    Type
REMARK                         _______ _______ _______ _____ _____    ______ ____
ROOT
ATOM      1  O   UNL     1     -36.682  20.550   1.279  0.00  0.00    -0.244 OA
ATOM      2  C   UNL     1     -35.641  20.410   1.935  0.00  0.00    +0.346 C 
ENDROOT
BRANCH   2   3
ATOM      3  C   UNL     1     -34.326  20.193   1.354  0.00  0.00    +0.079 C 
ATOM      4  C   UNL     1     -33.620  19.025   1.643  0.00  0.00    +0.046 C 
ATOM      5  C   UNL     1     -33.770  21.152   0.507  0.00  0.00    +0.010 C 
ATOM      6  C   UNL     1     -32.359  18.816   1.085  0.00  0.00    +0.168 C 
ATOM      7  C   UNL     1     -31.803  19.775   0.238  0.00  0.00    +0.167 C 
ATOM      8  C   UNL     1     -32.508  20.943  -0.051  0.00  0.00    +0.040 C 
BRANCH   6   9
ATOM      9  O   UNL     1     -31.679  17.671   1.374  0.00  0.00    -0.503 OA
ATOM     10  H   UNL     1     -31.018  17.358   0.789  0.00  0.00    +0.292 HD
ENDBRANCH   6   9
BRANCH   7  11
ATOM     11  O   UNL     1     -30.573  19.582  -0.313  0.00  0.00    -0.503 OA
ATOM     12  H   UNL     1     -29.941  19.049   0.126  0.00  0.00    +0.292 HD
ENDBRANCH   7  11
ENDBRANCH   2   3
BRANCH   2  13
ATOM     13  O   UNL     1     -35.574  20.429   3.327  0.00  0.00    -0.421 OA
BRANCH  13  14
ATOM     14  C   UNL     1     -35.464  21.709   3.877  0.00  0.00    +0.149 C 
ATOM     15  C   UNL     1     -35.610  22.834   3.063  0.00  0.00    +0.039 C 
ATOM     16  C   UNL     1     -35.206  21.863   5.239  0.00  0.00    +0.039 C 
ATOM     17  C   UNL     1     -35.243  24.265   4.975  0.00  0.00    +0.143 C 
ATOM     18  C   UNL     1     -35.499  24.111   3.612  0.00  0.00    +0.027 C 
ATOM     19  C   UNL     1     -35.096  23.141   5.788  0.00  0.00    +0.027 C 
BRANCH  17  22
ATOM     20  O   UNL     1     -34.048  25.904   6.071  0.00  0.00    -0.126 OA
ATOM     21  O   UNL     1     -36.114  26.341   5.472  0.00  0.00    -0.126 OA
ATOM     22  N   UNL     1     -35.130  25.565   5.533  0.00  0.00    +0.058 N 
ENDBRANCH  17  22
ENDBRANCH  13  14
ENDBRANCH   2  13
TORSDOF 6
ENDMDL
MODEL 3
REMARK VINA RESULT:      -6.0      2.711      4.649
REMARK  Name = 53800850
REMARK  6 active torsions:
REMARK  status: ('A' for Active; 'I' for Inactive)
REMARK    1  A    between atoms: C_2  and  C_3
REMARK    2  A    between atoms: C_2  and  O_13
REMARK    3  A    between atoms: C_6  and  O_9
REMARK    4  A    between atoms: C_7  and  O_11
REMARK    5  A    between atoms: O_13  and  C_14
REMARK    6  A    between atoms: C_17  and  N_22
REMARK                            x       y       z     vdW  Elec       q    Type
REMARK                         _______ _______ _______ _____ _____    ______ ____
ROOT
ATOM      1  O   UNL     1     -35.114  20.965   4.843  0.00  0.00    -0.244 OA
ATOM      2  C   UNL     1     -35.603  21.335   3.766  0.00  0.00    +0.346 C 
ENDROOT
BRANCH   2   3
ATOM      3  C   UNL     1     -35.581  20.552   2.541  0.00  0.00    +0.079 C 
ATOM      4  C   UNL     1     -36.775  20.242   1.890  0.00  0.00    +0.046 C 
ATOM      5  C   UNL     1     -34.366  20.111   2.017  0.00  0.00    +0.010 C 
ATOM      6  C   UNL     1     -36.754  19.492   0.714  0.00  0.00    +0.168 C 
ATOM      7  C   UNL     1     -35.539  19.050   0.190  0.00  0.00    +0.167 C 
ATOM      8  C   UNL     1     -34.346  19.360   0.841  0.00  0.00    +0.040 C 
BRANCH   6   9
ATOM      9  O   UNL     1     -37.927  19.197   0.087  0.00  0.00    -0.503 OA
ATOM     10  H   UNL     1     -38.191  18.304  -0.017  0.00  0.00    +0.292 HD
ENDBRANCH   6   9
BRANCH   7  11
ATOM     11  O   UNL     1     -35.506  18.317  -0.957  0.00  0.00    -0.503 OA
ATOM     12  H   UNL     1     -35.823  18.685  -1.758  0.00  0.00    +0.292 HD
ENDBRANCH   7  11
ENDBRANCH   2   3
BRANCH   2  13
ATOM     13  O   UNL     1     -36.236  22.560   3.564  0.00  0.00    -0.421 OA
BRANCH  13  14
ATOM     14  C   UNL     1     -35.503  23.662   4.010  0.00  0.00    +0.149 C 
ATOM     15  C   UNL     1     -34.543  24.245   3.181  0.00  0.00    +0.039 C 
ATOM     16  C   UNL     1     -35.730  24.181   5.285  0.00  0.00    +0.039 C 
ATOM     17  C   UNL     1     -34.039  25.864   4.901  0.00  0.00    +0.143 C 
ATOM     18  C   UNL     1     -33.811  25.345   3.627  0.00  0.00    +0.027 C 
ATOM     19  C   UNL     1     -34.998  25.282   5.731  0.00  0.00    +0.027 C 
BRANCH  17  22
ATOM     20  O   UNL     1     -32.689  26.908   6.452  0.00  0.00    -0.126 OA
ATOM     21  O   UNL     1     -33.257  28.018   4.646  0.00  0.00    -0.126 OA
ATOM     22  N   UNL     1     -33.293  26.984   5.355  0.00  0.00    +0.058 N 
ENDBRANCH  17  22
ENDBRANCH  13  14
ENDBRANCH   2  13
TORSDOF 6
ENDMDL
MODEL 4
REMARK VINA RESULT:      -6.0      4.282      6.756
REMARK  Name = 53800850
REMARK  6 active torsions:
REMARK  status: ('A' for Active; 'I' for Inactive)
REMARK    1  A    between atoms: C_2  and  C_3
REMARK    2  A    between atoms: C_2  and  O_13
REMARK    3  A    between atoms: C_6  and  O_9
REMARK    4  A    between atoms: C_7  and  O_11
REMARK    5  A    between atoms: O_13  and  C_14
REMARK    6  A    between atoms: C_17  and  N_22
REMARK                            x       y       z     vdW  Elec       q    Type
REMARK                         _______ _______ _______ _____ _____    ______ ____
ROOT
ATOM      1  O   UNL     1     -34.350  25.688   2.261  0.00  0.00    -0.244 OA
ATOM      2  C   UNL     1     -35.236  25.383   3.071  0.00  0.00    +0.346 C 
ENDROOT
BRANCH   2   3
ATOM      3  C   UNL     1     -35.274  24.137   3.818  0.00  0.00    +0.079 C 
ATOM      4  C   UNL     1     -35.485  22.930   3.150  0.00  0.00    +0.046 C 
ATOM      5  C   UNL     1     -35.100  24.147   5.202  0.00  0.00    +0.010 C 
ATOM      6  C   UNL     1     -35.521  21.734   3.867  0.00  0.00    +0.168 C 
ATOM      7  C   UNL     1     -35.347  21.744   5.250  0.00  0.00    +0.167 C 
ATOM      8  C   UNL     1     -35.136  22.950   5.918  0.00  0.00    +0.040 C 
BRANCH   6   9
ATOM      9  O   UNL     1     -35.727  20.561   3.203  0.00  0.00    -0.503 OA
ATOM     10  H   UNL     1     -36.592  20.321   2.935  0.00  0.00    +0.292 HD
ENDBRANCH   6   9
BRANCH   7  11
ATOM     11  O   UNL     1     -35.380  20.582   5.960  0.00  0.00    -0.503 OA
ATOM     12  H   UNL     1     -35.646  20.588   6.858  0.00  0.00    +0.292 HD
ENDBRANCH   7  11
ENDBRANCH   2   3
BRANCH   2  13
ATOM     13  O   UNL     1     -36.334  26.184   3.379  0.00  0.00    -0.421 OA
BRANCH  13  14
ATOM     14  C   UNL     1     -37.538  25.740   2.826  0.00  0.00    +0.149 C 
ATOM     15  C   UNL     1     -38.485  25.105   3.631  0.00  0.00    +0.039 C 
ATOM     16  C   UNL     1     -37.793  25.929   1.467  0.00  0.00    +0.039 C 
ATOM     17  C   UNL     1     -39.942  24.852   1.720  0.00  0.00    +0.143 C 
ATOM     18  C   UNL     1     -39.686  24.662   3.079  0.00  0.00    +0.027 C 
ATOM     19  C   UNL     1     -38.995  25.486   0.915  0.00  0.00    +0.027 C 
BRANCH  17  22
ATOM     20  O   UNL     1     -41.242  23.219   0.742  0.00  0.00    -0.126 OA
ATOM     21  O   UNL     1     -42.134  25.193   1.094  0.00  0.00    -0.126 OA
ATOM     22  N   UNL     1     -41.164  24.400   1.158  0.00  0.00    +0.058 N 
ENDBRANCH  17  22
ENDBRANCH  13  14
ENDBRANCH   2  13
TORSDOF 6
ENDMDL
MODEL 5
REMARK VINA RESULT:      -5.9      4.175      7.343
REMARK  Name = 53800850
REMARK  6 active torsions:
REMARK  status: ('A' for Active; 'I' for Inactive)
REMARK    1  A    between atoms: C_2  and  C_3
REMARK    2  A    between atoms: C_2  and  O_13
REMARK    3  A    between atoms: C_6  and  O_9
REMARK    4  A    between atoms: C_7  and  O_11
REMARK    5  A    between atoms: O_13  and  C_14
REMARK    6  A    between atoms: C_17  and  N_22
REMARK                            x       y       z     vdW  Elec       q    Type
REMARK                         _______ _______ _______ _____ _____    ______ ____
ROOT
ATOM      1  O   UNL     1     -35.144  20.610   4.435  0.00  0.00    -0.244 OA
ATOM      2  C   UNL     1     -35.550  21.522   3.702  0.00  0.00    +0.346 C 
ENDROOT
BRANCH   2   3
ATOM      3  C   UNL     1     -35.790  22.886   4.142  0.00  0.00    +0.079 C 
ATOM      4  C   UNL     1     -36.890  23.593   3.654  0.00  0.00    +0.046 C 
ATOM      5  C   UNL     1     -34.923  23.488   5.053  0.00  0.00    +0.010 C 
ATOM      6  C   UNL     1     -37.121  24.901   4.077  0.00  0.00    +0.168 C 
ATOM      7  C   UNL     1     -36.254  25.504   4.988  0.00  0.00    +0.167 C 
ATOM      8  C   UNL     1     -35.155  24.798   5.476  0.00  0.00    +0.040 C 
BRANCH   6   9
ATOM      9  O   UNL     1     -38.199  25.581   3.593  0.00  0.00    -0.503 OA
ATOM     10  H   UNL     1     -38.530  26.325   4.057  0.00  0.00    +0.292 HD
ENDBRANCH   6   9
BRANCH   7  11
ATOM     11  O   UNL     1     -36.470  26.781   5.408  0.00  0.00    -0.503 OA
ATOM     12  H   UNL     1     -37.077  27.329   4.952  0.00  0.00    +0.292 HD
ENDBRANCH   7  11
ENDBRANCH   2   3
BRANCH   2  13
ATOM     13  O   UNL     1     -35.847  21.374   2.348  0.00  0.00    -0.421 OA
BRANCH  13  14
ATOM     14  C   UNL     1     -34.732  21.135   1.541  0.00  0.00    +0.149 C 
ATOM     15  C   UNL     1     -34.140  19.871   1.523  0.00  0.00    +0.039 C 
ATOM     16  C   UNL     1     -34.208  22.161   0.753  0.00  0.00    +0.039 C 
ATOM     17  C   UNL     1     -32.504  20.659  -0.071  0.00  0.00    +0.143 C 
ATOM     18  C   UNL     1     -33.026  19.634   0.719  0.00  0.00    +0.027 C 
ATOM     19  C   UNL     1     -33.095  21.922  -0.053  0.00  0.00    +0.027 C 
BRANCH  17  22
ATOM     20  O   UNL     1     -30.657  21.387  -1.244  0.00  0.00    -0.126 OA
ATOM     21  O   UNL     1     -31.111  19.239  -1.236  0.00  0.00    -0.126 OA
ATOM     22  N   UNL     1     -31.370  20.417  -0.890  0.00  0.00    +0.058 N 
ENDBRANCH  17  22
ENDBRANCH  13  14
ENDBRANCH   2  13
TORSDOF 6
ENDMDL
MODEL 6
REMARK VINA RESULT:      -5.9      4.719      8.155
REMARK  Name = 53800850
REMARK  6 active torsions:
REMARK  status: ('A' for Active; 'I' for Inactive)
REMARK    1  A    between atoms: C_2  and  C_3
REMARK    2  A    between atoms: C_2  and  O_13
REMARK    3  A    between atoms: C_6  and  O_9
REMARK    4  A    between atoms: C_7  and  O_11
REMARK    5  A    between atoms: O_13  and  C_14
REMARK    6  A    between atoms: C_17  and  N_22
REMARK                            x       y       z     vdW  Elec       q    Type
REMARK                         _______ _______ _______ _____ _____    ______ ____
ROOT
ATOM      1  O   UNL     1     -36.454  19.978   2.020  0.00  0.00    -0.244 OA
ATOM      2  C   UNL     1     -35.626  20.892   1.905  0.00  0.00    +0.346 C 
ENDROOT
BRANCH   2   3
ATOM      3  C   UNL     1     -35.388  21.917   2.908  0.00  0.00    +0.079 C 
ATOM      4  C   UNL     1     -35.484  21.602   4.264  0.00  0.00    +0.046 C 
ATOM      5  C   UNL     1     -35.064  23.216   2.515  0.00  0.00    +0.010 C 
ATOM      6  C   UNL     1     -35.256  22.586   5.226  0.00  0.00    +0.168 C 
ATOM      7  C   UNL     1     -34.932  23.884   4.833  0.00  0.00    +0.167 C 
ATOM      8  C   UNL     1     -34.836  24.199   3.478  0.00  0.00    +0.040 C 
BRANCH   6   9
ATOM      9  O   UNL     1     -35.352  22.265   6.547  0.00  0.00    -0.503 OA
ATOM     10  H   UNL     1     -35.603  22.919   7.170  0.00  0.00    +0.292 HD
ENDBRANCH   6   9
BRANCH   7  11
ATOM     11  O   UNL     1     -34.707  24.853   5.764  0.00  0.00    -0.503 OA
ATOM     12  H   UNL     1     -34.289  25.653   5.516  0.00  0.00    +0.292 HD
ENDBRANCH   7  11
ENDBRANCH   2   3
BRANCH   2  13
ATOM     13  O   UNL     1     -34.806  21.081   0.794  0.00  0.00    -0.421 OA
BRANCH  13  14
ATOM     14  C   UNL     1     -33.679  20.255   0.768  0.00  0.00    +0.149 C 
ATOM     15  C   UNL     1     -32.544  20.644   0.054  0.00  0.00    +0.039 C 
ATOM     16  C   UNL     1     -33.687  19.041   1.456  0.00  0.00    +0.039 C 
ATOM     17  C   UNL     1     -31.428  18.606   0.717  0.00  0.00    +0.143 C 
ATOM     18  C   UNL     1     -31.420  19.819   0.028  0.00  0.00    +0.027 C 
ATOM     19  C   UNL     1     -32.562  18.217   1.430  0.00  0.00    +0.027 C 
BRANCH  17  22
ATOM     20  O   UNL     1     -29.144  18.292   0.690  0.00  0.00    -0.126 OA
ATOM     21  O   UNL     1     -30.442  16.522   0.667  0.00  0.00    -0.126 OA
ATOM     22  N   UNL     1     -30.284  17.767   0.689  0.00  0.00    +0.058 N 
ENDBRANCH  17  22
ENDBRANCH  13  14
ENDBRANCH   2  13
TORSDOF 6
ENDMDL
MODEL 7
REMARK VINA RESULT:      -5.9      1.254      2.285
REMARK  Name = 53800850
REMARK  6 active torsions:
REMARK  status: ('A' for Active; 'I' for Inactive)
REMARK    1  A    between atoms: C_2  and  C_3
REMARK    2  A    between atoms: C_2  and  O_13
REMARK    3  A    between atoms: C_6  and  O_9
REMARK    4  A    between atoms: C_7  and  O_11
REMARK    5  A    between atoms: O_13  and  C_14
REMARK    6  A    between atoms: C_17  and  N_22
REMARK                            x       y       z     vdW  Elec       q    Type
REMARK                         _______ _______ _______ _____ _____    ______ ____
ROOT
ATOM      1  O   UNL     1     -36.148  26.196   3.223  0.00  0.00    -0.244 OA
ATOM      2  C   UNL     1     -35.173  25.461   3.433  0.00  0.00    +0.346 C 
ENDROOT
BRANCH   2   3
ATOM      3  C   UNL     1     -35.244  24.170   4.098  0.00  0.00    +0.079 C 
ATOM      4  C   UNL     1     -35.423  23.008   3.348  0.00  0.00    +0.046 C 
ATOM      5  C   UNL     1     -35.134  24.094   5.487  0.00  0.00    +0.010 C 
ATOM      6  C   UNL     1     -35.490  21.770   3.986  0.00  0.00    +0.168 C 
ATOM      7  C   UNL     1     -35.380  21.693   5.374  0.00  0.00    +0.167 C 
ATOM      8  C   UNL     1     -35.202  22.855   6.124  0.00  0.00    +0.040 C 
BRANCH   6   9
ATOM      9  O   UNL     1     -35.664  20.641   3.242  0.00  0.00    -0.503 OA
ATOM     10  H   UNL     1     -35.911  20.708   2.341  0.00  0.00    +0.292 HD
ENDBRANCH   6   9
BRANCH   7  11
ATOM     11  O   UNL     1     -35.445  20.490   6.009  0.00  0.00    -0.503 OA
ATOM     12  H   UNL     1     -34.684  19.948   6.065  0.00  0.00    +0.292 HD
ENDBRANCH   7  11
ENDBRANCH   2   3
BRANCH   2  13
ATOM     13  O   UNL     1     -33.861  25.765   3.073  0.00  0.00    -0.421 OA
BRANCH  13  14
ATOM     14  C   UNL     1     -33.299  26.819   3.799  0.00  0.00    +0.149 C 
ATOM     15  C   UNL     1     -32.901  27.985   3.143  0.00  0.00    +0.039 C 
ATOM     16  C   UNL     1     -33.135  26.705   5.180  0.00  0.00    +0.039 C 
ATOM     17  C   UNL     1     -32.176  28.922   5.249  0.00  0.00    +0.143 C 
ATOM     18  C   UNL     1     -32.339  29.035   3.868  0.00  0.00    +0.027 C 
ATOM     19  C   UNL     1     -32.574  27.756   5.905  0.00  0.00    +0.027 C 
BRANCH  17  22
ATOM     20  O   UNL     1     -31.242  29.788   7.171  0.00  0.00    -0.126 OA
ATOM     21  O   UNL     1     -31.474  31.110   5.433  0.00  0.00    -0.126 OA
ATOM     22  N   UNL     1     -31.604  29.991   5.987  0.00  0.00    +0.058 N 
ENDBRANCH  17  22
ENDBRANCH  13  14
ENDBRANCH   2  13
TORSDOF 6
ENDMDL
MODEL 8
REMARK VINA RESULT:      -5.8      2.528      3.717
REMARK  Name = 53800850
REMARK  6 active torsions:
REMARK  status: ('A' for Active; 'I' for Inactive)
REMARK    1  A    between atoms: C_2  and  C_3
REMARK    2  A    between atoms: C_2  and  O_13
REMARK    3  A    between atoms: C_6  and  O_9
REMARK    4  A    between atoms: C_7  and  O_11
REMARK    5  A    between atoms: O_13  and  C_14
REMARK    6  A    between atoms: C_17  and  N_22
REMARK                            x       y       z     vdW  Elec       q    Type
REMARK                         _______ _______ _______ _____ _____    ______ ____
ROOT
ATOM      1  O   UNL     1     -37.514  24.991   0.918  0.00  0.00    -0.244 OA
ATOM      2  C   UNL     1     -37.157  24.333   1.905  0.00  0.00    +0.346 C 
ENDROOT
BRANCH   2   3
ATOM      3  C   UNL     1     -36.440  23.070   1.834  0.00  0.00    +0.079 C 
ATOM      4  C   UNL     1     -37.018  21.910   2.351  0.00  0.00    +0.046 C 
ATOM      5  C   UNL     1     -35.174  23.018   1.250  0.00  0.00    +0.010 C 
ATOM      6  C   UNL     1     -36.330  20.698   2.283  0.00  0.00    +0.168 C 
ATOM      7  C   UNL     1     -35.065  20.646   1.699  0.00  0.00    +0.167 C 
ATOM      8  C   UNL     1     -34.487  21.805   1.183  0.00  0.00    +0.040 C 
BRANCH   6   9
ATOM      9  O   UNL     1     -36.906  19.572   2.791  0.00  0.00    -0.503 OA
ATOM     10  H   UNL     1     -36.373  18.836   3.020  0.00  0.00    +0.292 HD
ENDBRANCH   6   9
BRANCH   7  11
ATOM     11  O   UNL     1     -34.384  19.469   1.628  0.00  0.00    -0.503 OA
ATOM     12  H   UNL     1     -33.754  19.250   2.285  0.00  0.00    +0.292 HD
ENDBRANCH   7  11
ENDBRANCH   2   3
BRANCH   2  13
ATOM     13  O   UNL     1     -37.400  24.696   3.228  0.00  0.00    -0.421 OA
BRANCH  13  14
ATOM     14  C   UNL     1     -36.301  25.268   3.874  0.00  0.00    +0.149 C 
ATOM     15  C   UNL     1     -35.868  24.760   5.100  0.00  0.00    +0.039 C 
ATOM     16  C   UNL     1     -35.637  26.350   3.294  0.00  0.00    +0.039 C 
ATOM     17  C   UNL     1     -34.107  26.413   5.164  0.00  0.00    +0.143 C 
ATOM     18  C   UNL     1     -34.772  25.333   5.744  0.00  0.00    +0.027 C 
ATOM     19  C   UNL     1     -34.540  26.922   3.939  0.00  0.00    +0.027 C 
BRANCH  17  22
ATOM     20  O   UNL     1     -32.934  26.956   7.074  0.00  0.00    -0.126 OA
ATOM     21  O   UNL     1     -32.093  27.535   5.130  0.00  0.00    -0.126 OA
ATOM     22  N   UNL     1     -32.991  26.996   5.821  0.00  0.00    +0.058 N 
ENDBRANCH  17  22
ENDBRANCH  13  14
ENDBRANCH   2  13
TORSDOF 6
ENDMDL
MODEL 9
REMARK VINA RESULT:      -5.8      1.990      2.823
REMARK  Name = 53800850
REMARK  6 active torsions:
REMARK  status: ('A' for Active; 'I' for Inactive)
REMARK    1  A    between atoms: C_2  and  C_3
REMARK    2  A    between atoms: C_2  and  O_13
REMARK    3  A    between atoms: C_6  and  O_9
REMARK    4  A    between atoms: C_7  and  O_11
REMARK    5  A    between atoms: O_13  and  C_14
REMARK    6  A    between atoms: C_17  and  N_22
REMARK                            x       y       z     vdW  Elec       q    Type
REMARK                         _______ _______ _______ _____ _____    ______ ____
ROOT
ATOM      1  O   UNL     1     -37.380  24.501   4.292  0.00  0.00    -0.244 OA
ATOM      2  C   UNL     1     -36.528  23.613   4.147  0.00  0.00    +0.346 C 
ENDROOT
BRANCH   2   3
ATOM      3  C   UNL     1     -36.660  22.487   3.237  0.00  0.00    +0.079 C 
ATOM      4  C   UNL     1     -35.641  21.538   3.149  0.00  0.00    +0.046 C 
ATOM      5  C   UNL     1     -37.805  22.356   2.451  0.00  0.00    +0.010 C 
ATOM      6  C   UNL     1     -35.767  20.458   2.276  0.00  0.00    +0.168 C 
ATOM      7  C   UNL     1     -36.912  20.327   1.490  0.00  0.00    +0.167 C 
ATOM      8  C   UNL     1     -37.930  21.275   1.577  0.00  0.00    +0.040 C 
BRANCH   6   9
ATOM      9  O   UNL     1     -34.765  19.537   2.200  0.00  0.00    -0.503 OA
ATOM     10  H   UNL     1     -34.456  19.117   2.978  0.00  0.00    +0.292 HD
ENDBRANCH   6   9
BRANCH   7  11
ATOM     11  O   UNL     1     -37.046  19.276   0.634  0.00  0.00    -0.503 OA
ATOM     12  H   UNL     1     -37.729  19.277  -0.007  0.00  0.00    +0.292 HD
ENDBRANCH   7  11
ENDBRANCH   2   3
BRANCH   2  13
ATOM     13  O   UNL     1     -35.323  23.553   4.844  0.00  0.00    -0.421 OA
BRANCH  13  14
ATOM     14  C   UNL     1     -34.557  24.719   4.763  0.00  0.00    +0.149 C 
ATOM     15  C   UNL     1     -34.372  25.514   5.895  0.00  0.00    +0.039 C 
ATOM     16  C   UNL     1     -33.979  25.090   3.548  0.00  0.00    +0.039 C 
ATOM     17  C   UNL     1     -33.029  27.048   4.599  0.00  0.00    +0.143 C 
ATOM     18  C   UNL     1     -33.609  26.678   5.813  0.00  0.00    +0.027 C 
ATOM     19  C   UNL     1     -33.214  26.255   3.467  0.00  0.00    +0.027 C 
BRANCH  17  22
ATOM     20  O   UNL     1     -32.832  29.345   4.571  0.00  0.00    -0.126 OA
ATOM     21  O   UNL     1     -31.008  28.137   4.391  0.00  0.00    -0.126 OA
ATOM     22  N   UNL     1     -32.252  28.234   4.516  0.00  0.00    +0.058 N 
ENDBRANCH  17  22
ENDBRANCH  13  14
ENDBRANCH   2  13
TORSDOF 6
ENDMDL
