MODEL 1
REMARK VINA RESULT:      -6.8      0.000      0.000
REMARK  Name = 20055002
REMARK  10 active torsions:
REMARK  status: ('A' for Active; 'I' for Inactive)
REMARK    1  A    between atoms: C_5  and  N_12
REMARK    2  A    between atoms: C_7  and  C_27
REMARK    3  A    between atoms: C_13  and  C_15
REMARK    4  A    between atoms: C_15  and  C_16
REMARK    5  A    between atoms: C_15  and  N_22
REMARK    6  A    between atoms: C_27  and  O_28
REMARK    7  A    between atoms: O_28  and  C_29
REMARK    8  A    between atoms: C_29  and  O_30
REMARK    9  A    between atoms: O_30  and  C_32
REMARK   10  A    between atoms: C_32  and  C_33
REMARK                            x       y       z     vdW  Elec       q    Type
REMARK                         _______ _______ _______ _____ _____    ______ ____
ROOT
ATOM      1  S   UNL     1     -34.996  27.827   0.309  0.00  0.00    -0.114 S 
ATOM      2  O   UNL     1     -34.875  31.021   3.685  0.00  0.00    -0.273 OA
ATOM      3  N   UNL     1     -34.581  30.158   1.510  0.00  0.00    -0.242 N 
ATOM      4  C   UNL     1     -33.947  28.861   1.357  0.00  0.00    +0.155 C 
ATOM      5  C   UNL     1     -34.129  28.699   2.881  0.00  0.00    +0.178 C 
ATOM      6  C   UNL     1     -34.573  30.190   2.860  0.00  0.00    +0.251 C 
ATOM      7  C   UNL     1     -34.980  30.931   0.467  0.00  0.00    +0.124 C 
ATOM      8  C   UNL     1     -35.085  30.429  -0.787  0.00  0.00    -0.013 C 
ATOM      9  C   UNL     1     -34.870  28.954  -1.121  0.00  0.00    +0.083 C 
ATOM     10  C   UNL     1     -35.443  31.241  -2.008  0.00  0.00    +0.029 C 
ENDROOT
BRANCH   5  12
ATOM     11  O   UNL     1     -33.741  26.049   3.946  0.00  0.00    -0.277 OA
ATOM     12  N   UNL     1     -35.163  27.788   3.371  0.00  0.00    -0.298 N 
ATOM     13  C   UNL     1     -34.877  26.517   3.872  0.00  0.00    +0.206 C 
ATOM     14  H   UNL     1     -36.101  28.084   3.347  0.00  0.00    +0.150 HD
BRANCH  13  15
ATOM     15  C   UNL     1     -36.124  25.752   4.299  0.00  0.00    +0.036 C 
BRANCH  15  16
ATOM     16  C   UNL     1     -35.804  24.293   4.549  0.00  0.00    -0.034 C 
ATOM     17  C   UNL     1     -35.449  23.866   5.829  0.00  0.00    -0.006 C 
ATOM     18  C   UNL     1     -35.865  23.375   3.500  0.00  0.00    -0.006 C 
ATOM     19  C   UNL     1     -35.155  22.522   6.060  0.00  0.00    -0.000 C 
ATOM     20  C   UNL     1     -35.571  22.031   3.732  0.00  0.00    -0.000 C 
ATOM     21  C   UNL     1     -35.216  21.605   5.012  0.00  0.00    -0.000 C 
ENDBRANCH  15  16
BRANCH  15  22
ATOM     22  N   UNL     1     -36.670  26.415   5.487  0.00  0.00    +0.390 N 
ATOM     23  H   UNL     1     -37.108  25.721   6.093  0.00  0.00    -0.088 HD
ATOM     24  H   UNL     1     -37.366  27.104   5.203  0.00  0.00    -0.088 HD
ATOM     25  H   UNL     1     -35.917  26.881   5.993  0.00  0.00    -0.088 HD
ENDBRANCH  15  22
ENDBRANCH  13  15
ENDBRANCH   5  12
BRANCH   7  27
ATOM     26  O   UNL     1     -34.558  33.166   1.133  0.00  0.00    -0.243 OA
ATOM     27  C   UNL     1     -35.355  32.316   0.771  0.00  0.00    +0.357 C 
BRANCH  27  28
ATOM     28  O   UNL     1     -36.691  32.454   0.577  0.00  0.00    -0.404 OA
BRANCH  28  29
ATOM     29  C   UNL     1     -37.521  32.248   1.732  0.00  0.00    +0.433 C 
BRANCH  29  30
ATOM     30  O   UNL     1     -38.113  33.459   2.233  0.00  0.00    -0.408 OA
BRANCH  30  32
ATOM     31  O   UNL     1     -40.131  33.099   1.187  0.00  0.00    -0.250 OA
ATOM     32  C   UNL     1     -39.281  33.854   1.645  0.00  0.00    +0.319 C 
BRANCH  32  33
ATOM     33  C   UNL     1     -39.378  35.382   1.624  0.00  0.00    +0.090 C 
ATOM     34  C   UNL     1     -39.918  35.883   2.970  0.00  0.00    +0.011 C 
ATOM     35  C   UNL     1     -40.338  35.820   0.507  0.00  0.00    +0.011 C 
ATOM     36  C   UNL     1     -37.989  35.975   1.349  0.00  0.00    +0.011 C 
ENDBRANCH  32  33
ENDBRANCH  30  32
ENDBRANCH  29  30
ENDBRANCH  28  29
ENDBRANCH  27  28
ENDBRANCH   7  27
TORSDOF 10
ENDMDL
MODEL 2
REMARK VINA RESULT:      -6.7      0.950      1.499
REMARK  Name = 20055002
REMARK  10 active torsions:
REMARK  status: ('A' for Active; 'I' for Inactive)
REMARK    1  A    between atoms: C_5  and  N_12
REMARK    2  A    between atoms: C_7  and  C_27
REMARK    3  A    between atoms: C_13  and  C_15
REMARK    4  A    between atoms: C_15  and  C_16
REMARK    5  A    between atoms: C_15  and  N_22
REMARK    6  A    between atoms: C_27  and  O_28
REMARK    7  A    between atoms: O_28  and  C_29
REMARK    8  A    between atoms: C_29  and  O_30
REMARK    9  A    between atoms: O_30  and  C_32
REMARK   10  A    between atoms: C_32  and  C_33
REMARK                            x       y       z     vdW  Elec       q    Type
REMARK                         _______ _______ _______ _____ _____    ______ ____
ROOT
ATOM      1  S   UNL     1     -34.052  27.667   0.677  0.00  0.00    -0.114 S 
ATOM      2  O   UNL     1     -34.122  30.800   4.112  0.00  0.00    -0.273 OA
ATOM      3  N   UNL     1     -33.628  29.948   1.969  0.00  0.00    -0.242 N 
ATOM      4  C   UNL     1     -33.069  28.613   1.863  0.00  0.00    +0.155 C 
ATOM      5  C   UNL     1     -33.442  28.444   3.352  0.00  0.00    +0.178 C 
ATOM      6  C   UNL     1     -33.779  29.962   3.310  0.00  0.00    +0.251 C 
ATOM      7  C   UNL     1     -33.848  30.761   0.903  0.00  0.00    +0.124 C 
ATOM      8  C   UNL     1     -33.836  30.284  -0.365  0.00  0.00    -0.013 C 
ATOM      9  C   UNL     1     -33.682  28.803  -0.703  0.00  0.00    +0.083 C 
ATOM     10  C   UNL     1     -33.991  31.136  -1.602  0.00  0.00    +0.029 C 
ENDROOT
BRANCH   5  12
ATOM     11  O   UNL     1     -33.362  25.745   4.363  0.00  0.00    -0.277 OA
ATOM     12  N   UNL     1     -34.585  27.599   3.697  0.00  0.00    -0.298 N 
ATOM     13  C   UNL     1     -34.447  26.298   4.182  0.00  0.00    +0.206 C 
ATOM     14  H   UNL     1     -35.492  27.965   3.581  0.00  0.00    +0.150 HD
BRANCH  13  15
ATOM     15  C   UNL     1     -35.785  25.617   4.447  0.00  0.00    +0.036 C 
BRANCH  15  16
ATOM     16  C   UNL     1     -35.593  24.142   4.733  0.00  0.00    -0.034 C 
ATOM     17  C   UNL     1     -35.610  23.220   3.685  0.00  0.00    -0.006 C 
ATOM     18  C   UNL     1     -35.397  23.704   6.043  0.00  0.00    -0.006 C 
ATOM     19  C   UNL     1     -35.433  21.862   3.949  0.00  0.00    -0.000 C 
ATOM     20  C   UNL     1     -35.219  22.346   6.305  0.00  0.00    -0.000 C 
ATOM     21  C   UNL     1     -35.237  21.425   5.258  0.00  0.00    -0.000 C 
ENDBRANCH  15  16
BRANCH  15  22
ATOM     22  N   UNL     1     -36.433  26.321   5.557  0.00  0.00    +0.390 N 
ATOM     23  H   UNL     1     -37.416  26.051   5.603  0.00  0.00    -0.088 HD
ATOM     24  H   UNL     1     -36.364  27.327   5.409  0.00  0.00    -0.088 HD
ATOM     25  H   UNL     1     -35.972  26.073   6.432  0.00  0.00    -0.088 HD
ENDBRANCH  15  22
ENDBRANCH  13  15
ENDBRANCH   5  12
BRANCH   7  27
ATOM     26  O   UNL     1     -33.344  33.066   1.125  0.00  0.00    -0.243 OA
ATOM     27  C   UNL     1     -34.163  32.164   1.190  0.00  0.00    +0.357 C 
BRANCH  27  28
ATOM     28  O   UNL     1     -35.476  32.252   1.522  0.00  0.00    -0.404 OA
BRANCH  28  29
ATOM     29  C   UNL     1     -36.329  32.887   0.555  0.00  0.00    +0.433 C 
BRANCH  29  30
ATOM     30  O   UNL     1     -36.921  34.109   1.029  0.00  0.00    -0.408 OA
BRANCH  30  32
ATOM     31  O   UNL     1     -38.762  32.981   1.825  0.00  0.00    -0.250 OA
ATOM     32  C   UNL     1     -38.197  34.021   1.508  0.00  0.00    +0.319 C 
BRANCH  32  33
ATOM     33  C   UNL     1     -38.836  35.411   1.582  0.00  0.00    +0.090 C 
ATOM     34  C   UNL     1     -40.004  35.494   0.590  0.00  0.00    +0.011 C 
ATOM     35  C   UNL     1     -37.792  36.476   1.213  0.00  0.00    +0.011 C 
ATOM     36  C   UNL     1     -39.329  35.668   3.012  0.00  0.00    +0.011 C 
ENDBRANCH  32  33
ENDBRANCH  30  32
ENDBRANCH  29  30
ENDBRANCH  28  29
ENDBRANCH  27  28
ENDBRANCH   7  27
TORSDOF 10
ENDMDL
MODEL 3
REMARK VINA RESULT:      -6.5      5.489      7.060
REMARK  Name = 20055002
REMARK  10 active torsions:
REMARK  status: ('A' for Active; 'I' for Inactive)
REMARK    1  A    between atoms: C_5  and  N_12
REMARK    2  A    between atoms: C_7  and  C_27
REMARK    3  A    between atoms: C_13  and  C_15
REMARK    4  A    between atoms: C_15  and  C_16
REMARK    5  A    between atoms: C_15  and  N_22
REMARK    6  A    between atoms: C_27  and  O_28
REMARK    7  A    between atoms: O_28  and  C_29
REMARK    8  A    between atoms: C_29  and  O_30
REMARK    9  A    between atoms: O_30  and  C_32
REMARK   10  A    between atoms: C_32  and  C_33
REMARK                            x       y       z     vdW  Elec       q    Type
REMARK                         _______ _______ _______ _____ _____    ______ ____
ROOT
ATOM      1  S   UNL     1     -34.983  24.638   1.285  0.00  0.00    -0.114 S 
ATOM      2  O   UNL     1     -39.192  23.095   2.516  0.00  0.00    -0.273 OA
ATOM      3  N   UNL     1     -37.458  24.670   2.245  0.00  0.00    -0.242 N 
ATOM      4  C   UNL     1     -36.115  24.302   2.653  0.00  0.00    +0.155 C 
ATOM      5  C   UNL     1     -36.648  22.858   2.764  0.00  0.00    +0.178 C 
ATOM      6  C   UNL     1     -38.050  23.491   2.531  0.00  0.00    +0.251 C 
ATOM      7  C   UNL     1     -37.789  25.891   1.750  0.00  0.00    +0.124 C 
ATOM      8  C   UNL     1     -36.843  26.763   1.326  0.00  0.00    -0.013 C 
ATOM      9  C   UNL     1     -35.355  26.424   1.269  0.00  0.00    +0.083 C 
ATOM     10  C   UNL     1     -37.125  28.164   0.841  0.00  0.00    +0.029 C 
ENDROOT
BRANCH   5  12
ATOM     11  O   UNL     1     -35.249  20.370   3.166  0.00  0.00    -0.277 OA
ATOM     12  N   UNL     1     -36.265  21.889   1.739  0.00  0.00    -0.298 N 
ATOM     13  C   UNL     1     -35.586  20.705   2.031  0.00  0.00    +0.206 C 
ATOM     14  H   UNL     1     -36.496  22.079   0.801  0.00  0.00    +0.150 HD
BRANCH  13  15
ATOM     15  C   UNL     1     -35.281  19.873   0.790  0.00  0.00    +0.036 C 
BRANCH  15  16
ATOM     16  C   UNL     1     -33.802  19.559   0.700  0.00  0.00    -0.034 C 
ATOM     17  C   UNL     1     -33.309  18.363   1.223  0.00  0.00    -0.006 C 
ATOM     18  C   UNL     1     -32.932  20.465   0.093  0.00  0.00    -0.006 C 
ATOM     19  C   UNL     1     -31.947  18.073   1.139  0.00  0.00    -0.000 C 
ATOM     20  C   UNL     1     -31.570  20.175   0.010  0.00  0.00    -0.000 C 
ATOM     21  C   UNL     1     -31.078  18.980   0.532  0.00  0.00    -0.000 C 
ENDBRANCH  15  16
BRANCH  15  22
ATOM     22  N   UNL     1     -36.105  18.662   0.850  0.00  0.00    +0.390 N 
ATOM     23  H   UNL     1     -35.503  17.839   0.831  0.00  0.00    -0.088 HD
ATOM     24  H   UNL     1     -36.736  18.640   0.049  0.00  0.00    -0.088 HD
ATOM     25  H   UNL     1     -36.650  18.664   1.712  0.00  0.00    -0.088 HD
ENDBRANCH  15  22
ENDBRANCH  13  15
ENDBRANCH   5  12
BRANCH   7  27
ATOM     26  O   UNL     1     -39.866  26.022   0.615  0.00  0.00    -0.243 OA
ATOM     27  C   UNL     1     -39.218  26.197   1.635  0.00  0.00    +0.357 C 
BRANCH  27  28
ATOM     28  O   UNL     1     -39.653  26.684   2.824  0.00  0.00    -0.404 OA
BRANCH  28  29
ATOM     29  C   UNL     1     -40.908  26.165   3.298  0.00  0.00    +0.433 C 
BRANCH  29  30
ATOM     30  O   UNL     1     -42.041  26.951   2.889  0.00  0.00    -0.408 OA
BRANCH  30  32
ATOM     31  O   UNL     1     -41.810  28.554   4.524  0.00  0.00    -0.250 OA
ATOM     32  C   UNL     1     -42.508  27.861   3.794  0.00  0.00    +0.319 C 
BRANCH  32  33
ATOM     33  C   UNL     1     -44.040  27.887   3.782  0.00  0.00    +0.090 C 
ATOM     34  C   UNL     1     -44.555  28.508   5.087  0.00  0.00    +0.011 C 
ATOM     35  C   UNL     1     -44.576  26.452   3.667  0.00  0.00    +0.011 C 
ATOM     36  C   UNL     1     -44.524  28.700   2.574  0.00  0.00    +0.011 C 
ENDBRANCH  32  33
ENDBRANCH  30  32
ENDBRANCH  29  30
ENDBRANCH  28  29
ENDBRANCH  27  28
ENDBRANCH   7  27
TORSDOF 10
ENDMDL
MODEL 4
REMARK VINA RESULT:      -6.4      6.134     10.347
REMARK  Name = 20055002
REMARK  10 active torsions:
REMARK  status: ('A' for Active; 'I' for Inactive)
REMARK    1  A    between atoms: C_5  and  N_12
REMARK    2  A    between atoms: C_7  and  C_27
REMARK    3  A    between atoms: C_13  and  C_15
REMARK    4  A    between atoms: C_15  and  C_16
REMARK    5  A    between atoms: C_15  and  N_22
REMARK    6  A    between atoms: C_27  and  O_28
REMARK    7  A    between atoms: O_28  and  C_29
REMARK    8  A    between atoms: C_29  and  O_30
REMARK    9  A    between atoms: O_30  and  C_32
REMARK   10  A    between atoms: C_32  and  C_33
REMARK                            x       y       z     vdW  Elec       q    Type
REMARK                         _______ _______ _______ _____ _____    ______ ____
ROOT
ATOM      1  S   UNL     1     -42.735  29.828   1.240  0.00  0.00    -0.114 S 
ATOM      2  O   UNL     1     -41.963  26.228   4.079  0.00  0.00    -0.273 OA
ATOM      3  N   UNL     1     -42.133  27.362   2.019  0.00  0.00    -0.242 N 
ATOM      4  C   UNL     1     -43.297  28.196   1.778  0.00  0.00    +0.155 C 
ATOM      5  C   UNL     1     -43.602  28.037   3.283  0.00  0.00    +0.178 C 
ATOM      6  C   UNL     1     -42.449  26.993   3.278  0.00  0.00    +0.251 C 
ATOM      7  C   UNL     1     -41.149  27.159   1.106  0.00  0.00    +0.124 C 
ATOM      8  C   UNL     1     -41.025  27.946   0.010  0.00  0.00    -0.013 C 
ATOM      9  C   UNL     1     -41.898  29.173  -0.243  0.00  0.00    +0.083 C 
ATOM     10  C   UNL     1     -40.010  27.734  -1.087  0.00  0.00    +0.029 C 
ENDROOT
BRANCH   5  12
ATOM     11  O   UNL     1     -44.904  28.583   5.796  0.00  0.00    -0.277 OA
ATOM     12  N   UNL     1     -43.359  29.174   4.171  0.00  0.00    -0.298 N 
ATOM     13  C   UNL     1     -44.042  29.354   5.375  0.00  0.00    +0.206 C 
ATOM     14  H   UNL     1     -42.684  29.841   3.908  0.00  0.00    +0.150 HD
BRANCH  13  15
ATOM     15  C   UNL     1     -43.627  30.624   6.109  0.00  0.00    +0.036 C 
BRANCH  15  16
ATOM     16  C   UNL     1     -44.651  31.722   5.912  0.00  0.00    -0.034 C 
ATOM     17  C   UNL     1     -45.792  31.763   6.714  0.00  0.00    -0.006 C 
ATOM     18  C   UNL     1     -44.454  32.693   4.930  0.00  0.00    -0.006 C 
ATOM     19  C   UNL     1     -46.736  32.775   6.533  0.00  0.00    -0.000 C 
ATOM     20  C   UNL     1     -45.397  33.704   4.751  0.00  0.00    -0.000 C 
ATOM     21  C   UNL     1     -46.538  33.745   5.552  0.00  0.00    -0.000 C 
ENDBRANCH  15  16
BRANCH  15  22
ATOM     22  N   UNL     1     -43.440  30.282   7.523  0.00  0.00    +0.390 N 
ATOM     23  H   UNL     1     -42.445  30.287   7.745  0.00  0.00    -0.088 HD
ATOM     24  H   UNL     1     -43.824  29.354   7.702  0.00  0.00    -0.088 HD
ATOM     25  H   UNL     1     -43.923  30.967   8.105  0.00  0.00    -0.088 HD
ENDBRANCH  15  22
ENDBRANCH  13  15
ENDBRANCH   5  12
BRANCH   7  27
ATOM     26  O   UNL     1     -40.310  24.945   0.989  0.00  0.00    -0.243 OA
ATOM     27  C   UNL     1     -40.186  26.090   1.392  0.00  0.00    +0.357 C 
BRANCH  27  28
ATOM     28  O   UNL     1     -39.186  26.602   2.152  0.00  0.00    -0.404 OA
BRANCH  28  29
ATOM     29  C   UNL     1     -38.760  25.794   3.263  0.00  0.00    +0.433 C 
BRANCH  29  30
ATOM     30  O   UNL     1     -37.334  25.623   3.331  0.00  0.00    -0.408 OA
BRANCH  30  32
ATOM     31  O   UNL     1     -37.403  23.344   3.640  0.00  0.00    -0.250 OA
ATOM     32  C   UNL     1     -36.887  24.437   3.840  0.00  0.00    +0.319 C 
BRANCH  32  33
ATOM     33  C   UNL     1     -35.650  24.663   4.714  0.00  0.00    +0.090 C 
ATOM     34  C   UNL     1     -35.436  23.450   5.628  0.00  0.00    +0.011 C 
ATOM     35  C   UNL     1     -35.858  25.913   5.583  0.00  0.00    +0.011 C 
ATOM     36  C   UNL     1     -34.425  24.879   3.814  0.00  0.00    +0.011 C 
ENDBRANCH  32  33
ENDBRANCH  30  32
ENDBRANCH  29  30
ENDBRANCH  28  29
ENDBRANCH  27  28
ENDBRANCH   7  27
TORSDOF 10
ENDMDL
MODEL 5
REMARK VINA RESULT:      -6.3      6.342     11.006
REMARK  Name = 20055002
REMARK  10 active torsions:
REMARK  status: ('A' for Active; 'I' for Inactive)
REMARK    1  A    between atoms: C_5  and  N_12
REMARK    2  A    between atoms: C_7  and  C_27
REMARK    3  A    between atoms: C_13  and  C_15
REMARK    4  A    between atoms: C_15  and  C_16
REMARK    5  A    between atoms: C_15  and  N_22
REMARK    6  A    between atoms: C_27  and  O_28
REMARK    7  A    between atoms: O_28  and  C_29
REMARK    8  A    between atoms: C_29  and  O_30
REMARK    9  A    between atoms: O_30  and  C_32
REMARK   10  A    between atoms: C_32  and  C_33
REMARK                            x       y       z     vdW  Elec       q    Type
REMARK                         _______ _______ _______ _____ _____    ______ ____
ROOT
ATOM      1  S   UNL     1     -44.861  26.559   1.628  0.00  0.00    -0.114 S 
ATOM      2  O   UNL     1     -41.657  28.373   4.467  0.00  0.00    -0.273 OA
ATOM      3  N   UNL     1     -42.674  26.722   3.125  0.00  0.00    -0.242 N 
ATOM      4  C   UNL     1     -44.100  26.493   3.266  0.00  0.00    +0.155 C 
ATOM      5  C   UNL     1     -44.130  27.798   4.090  0.00  0.00    +0.178 C 
ATOM      6  C   UNL     1     -42.578  27.736   4.011  0.00  0.00    +0.251 C 
ATOM      7  C   UNL     1     -41.874  26.009   2.290  0.00  0.00    +0.124 C 
ATOM      8  C   UNL     1     -42.390  25.227   1.312  0.00  0.00    -0.013 C 
ATOM      9  C   UNL     1     -43.882  25.155   0.995  0.00  0.00    +0.083 C 
ATOM     10  C   UNL     1     -41.572  24.345   0.399  0.00  0.00    +0.029 C 
ENDROOT
BRANCH   5  12
ATOM     11  O   UNL     1     -46.510  29.200   4.916  0.00  0.00    -0.277 OA
ATOM     12  N   UNL     1     -44.701  28.999   3.480  0.00  0.00    -0.298 N 
ATOM     13  C   UNL     1     -45.863  29.610   3.953  0.00  0.00    +0.206 C 
ATOM     14  H   UNL     1     -44.244  29.393   2.702  0.00  0.00    +0.150 HD
BRANCH  13  15
ATOM     15  C   UNL     1     -46.266  30.832   3.136  0.00  0.00    +0.036 C 
BRANCH  15  16
ATOM     16  C   UNL     1     -45.319  31.987   3.388  0.00  0.00    -0.034 C 
ATOM     17  C   UNL     1     -45.068  32.410   4.694  0.00  0.00    -0.006 C 
ATOM     18  C   UNL     1     -44.697  32.627   2.316  0.00  0.00    -0.006 C 
ATOM     19  C   UNL     1     -44.195  33.474   4.926  0.00  0.00    -0.000 C 
ATOM     20  C   UNL     1     -43.825  33.690   2.549  0.00  0.00    -0.000 C 
ATOM     21  C   UNL     1     -43.574  34.113   3.854  0.00  0.00    -0.000 C 
ENDBRANCH  15  16
BRANCH  15  22
ATOM     22  N   UNL     1     -46.300  30.436   1.725  0.00  0.00    +0.390 N 
ATOM     23  H   UNL     1     -45.774  29.572   1.602  0.00  0.00    -0.088 HD
ATOM     24  H   UNL     1     -45.883  31.172   1.155  0.00  0.00    -0.088 HD
ATOM     25  H   UNL     1     -47.267  30.289   1.436  0.00  0.00    -0.088 HD
ENDBRANCH  15  22
ENDBRANCH  13  15
ENDBRANCH   5  12
BRANCH   7  27
ATOM     26  O   UNL     1     -39.769  27.003   1.844  0.00  0.00    -0.243 OA
ATOM     27  C   UNL     1     -40.426  26.175   2.453  0.00  0.00    +0.357 C 
BRANCH  27  28
ATOM     28  O   UNL     1     -39.989  25.274   3.369  0.00  0.00    -0.404 OA
BRANCH  28  29
ATOM     29  C   UNL     1     -38.758  24.602   3.054  0.00  0.00    +0.433 C 
BRANCH  29  30
ATOM     30  O   UNL     1     -37.780  24.679   4.106  0.00  0.00    -0.408 OA
BRANCH  30  32
ATOM     31  O   UNL     1     -36.913  22.612   3.586  0.00  0.00    -0.250 OA
ATOM     32  C   UNL     1     -36.812  23.715   4.110  0.00  0.00    +0.319 C 
BRANCH  32  33
ATOM     33  C   UNL     1     -35.579  24.200   4.877  0.00  0.00    +0.090 C 
ATOM     34  C   UNL     1     -35.885  25.546   5.547  0.00  0.00    +0.011 C 
ATOM     35  C   UNL     1     -34.407  24.385   3.900  0.00  0.00    +0.011 C 
ATOM     36  C   UNL     1     -35.191  23.153   5.930  0.00  0.00    +0.011 C 
ENDBRANCH  32  33
ENDBRANCH  30  32
ENDBRANCH  29  30
ENDBRANCH  28  29
ENDBRANCH  27  28
ENDBRANCH   7  27
TORSDOF 10
ENDMDL
MODEL 6
REMARK VINA RESULT:      -6.3      4.603      6.534
REMARK  Name = 20055002
REMARK  10 active torsions:
REMARK  status: ('A' for Active; 'I' for Inactive)
REMARK    1  A    between atoms: C_5  and  N_12
REMARK    2  A    between atoms: C_7  and  C_27
REMARK    3  A    between atoms: C_13  and  C_15
REMARK    4  A    between atoms: C_15  and  C_16
REMARK    5  A    between atoms: C_15  and  N_22
REMARK    6  A    between atoms: C_27  and  O_28
REMARK    7  A    between atoms: O_28  and  C_29
REMARK    8  A    between atoms: C_29  and  O_30
REMARK    9  A    between atoms: O_30  and  C_32
REMARK   10  A    between atoms: C_32  and  C_33
REMARK                            x       y       z     vdW  Elec       q    Type
REMARK                         _______ _______ _______ _____ _____    ______ ____
ROOT
ATOM      1  S   UNL     1     -34.476  29.210   2.403  0.00  0.00    -0.114 S 
ATOM      2  O   UNL     1     -31.557  25.664   1.681  0.00  0.00    -0.273 OA
ATOM      3  N   UNL     1     -32.371  27.869   1.496  0.00  0.00    -0.242 N 
ATOM      4  C   UNL     1     -33.776  28.068   1.189  0.00  0.00    +0.155 C 
ATOM      5  C   UNL     1     -33.954  26.563   1.482  0.00  0.00    +0.178 C 
ATOM      6  C   UNL     1     -32.400  26.521   1.548  0.00  0.00    +0.251 C 
ATOM      7  C   UNL     1     -31.480  28.884   1.643  0.00  0.00    +0.124 C 
ATOM      8  C   UNL     1     -31.887  30.166   1.803  0.00  0.00    -0.013 C 
ATOM      9  C   UNL     1     -33.353  30.571   1.936  0.00  0.00    +0.083 C 
ATOM     10  C   UNL     1     -30.959  31.354   1.891  0.00  0.00    +0.029 C 
ENDROOT
BRANCH   5  12
ATOM     11  O   UNL     1     -36.691  25.725   1.819  0.00  0.00    -0.277 OA
ATOM     12  N   UNL     1     -34.604  26.163   2.729  0.00  0.00    -0.298 N 
ATOM     13  C   UNL     1     -35.942  25.770   2.794  0.00  0.00    +0.206 C 
ATOM     14  H   UNL     1     -34.075  26.171   3.559  0.00  0.00    +0.150 HD
BRANCH  13  15
ATOM     15  C   UNL     1     -36.392  25.422   4.208  0.00  0.00    +0.036 C 
BRANCH  15  16
ATOM     16  C   UNL     1     -35.956  24.021   4.585  0.00  0.00    -0.034 C 
ATOM     17  C   UNL     1     -35.976  23.004   3.630  0.00  0.00    -0.006 C 
ATOM     18  C   UNL     1     -35.532  23.748   5.886  0.00  0.00    -0.006 C 
ATOM     19  C   UNL     1     -35.573  21.714   3.977  0.00  0.00    -0.000 C 
ATOM     20  C   UNL     1     -35.129  22.458   6.232  0.00  0.00    -0.000 C 
ATOM     21  C   UNL     1     -35.150  21.442   5.277  0.00  0.00    -0.000 C 
ENDBRANCH  15  16
BRANCH  15  22
ATOM     22  N   UNL     1     -35.847  26.439   5.114  0.00  0.00    +0.390 N 
ATOM     23  H   UNL     1     -36.566  27.132   5.317  0.00  0.00    -0.088 HD
ATOM     24  H   UNL     1     -35.049  26.895   4.672  0.00  0.00    -0.088 HD
ATOM     25  H   UNL     1     -35.547  25.995   5.982  0.00  0.00    -0.088 HD
ENDBRANCH  15  22
ENDBRANCH  13  15
ENDBRANCH   5  12
BRANCH   7  27
ATOM     26  O   UNL     1     -29.316  28.594   0.720  0.00  0.00    -0.243 OA
ATOM     27  C   UNL     1     -30.060  28.520   1.684  0.00  0.00    +0.357 C 
BRANCH  27  28
ATOM     28  O   UNL     1     -29.757  28.109   2.942  0.00  0.00    -0.404 OA
BRANCH  28  29
ATOM     29  C   UNL     1     -28.802  28.915   3.655  0.00  0.00    +0.433 C 
BRANCH  29  30
ATOM     30  O   UNL     1     -29.351  29.551   4.821  0.00  0.00    -0.408 OA
BRANCH  30  32
ATOM     31  O   UNL     1     -29.451  27.763   6.266  0.00  0.00    -0.250 OA
ATOM     32  C   UNL     1     -29.967  28.735   5.727  0.00  0.00    +0.319 C 
BRANCH  32  33
ATOM     33  C   UNL     1     -31.407  29.197   5.969  0.00  0.00    +0.090 C 
ATOM     34  C   UNL     1     -31.604  30.599   5.378  0.00  0.00    +0.011 C 
ATOM     35  C   UNL     1     -31.683  29.248   7.480  0.00  0.00    +0.011 C 
ATOM     36  C   UNL     1     -32.376  28.200   5.318  0.00  0.00    +0.011 C 
ENDBRANCH  32  33
ENDBRANCH  30  32
ENDBRANCH  29  30
ENDBRANCH  28  29
ENDBRANCH  27  28
ENDBRANCH   7  27
TORSDOF 10
ENDMDL
MODEL 7
REMARK VINA RESULT:      -6.3      3.382     10.065
REMARK  Name = 20055002
REMARK  10 active torsions:
REMARK  status: ('A' for Active; 'I' for Inactive)
REMARK    1  A    between atoms: C_5  and  N_12
REMARK    2  A    between atoms: C_7  and  C_27
REMARK    3  A    between atoms: C_13  and  C_15
REMARK    4  A    between atoms: C_15  and  C_16
REMARK    5  A    between atoms: C_15  and  N_22
REMARK    6  A    between atoms: C_27  and  O_28
REMARK    7  A    between atoms: O_28  and  C_29
REMARK    8  A    between atoms: C_29  and  O_30
REMARK    9  A    between atoms: O_30  and  C_32
REMARK   10  A    between atoms: C_32  and  C_33
REMARK                            x       y       z     vdW  Elec       q    Type
REMARK                         _______ _______ _______ _____ _____    ______ ____
ROOT
ATOM      1  S   UNL     1     -33.692  26.619   4.788  0.00  0.00    -0.114 S 
ATOM      2  O   UNL     1     -36.801  26.656   1.331  0.00  0.00    -0.273 OA
ATOM      3  N   UNL     1     -35.378  25.703   2.952  0.00  0.00    -0.242 N 
ATOM      4  C   UNL     1     -34.017  26.198   3.060  0.00  0.00    +0.155 C 
ATOM      5  C   UNL     1     -34.469  27.357   2.145  0.00  0.00    +0.178 C 
ATOM      6  C   UNL     1     -35.787  26.546   1.980  0.00  0.00    +0.251 C 
ATOM      7  C   UNL     1     -35.873  24.687   3.705  0.00  0.00    +0.124 C 
ATOM      8  C   UNL     1     -35.231  24.251   4.815  0.00  0.00    -0.013 C 
ATOM      9  C   UNL     1     -33.972  24.913   5.372  0.00  0.00    +0.083 C 
ATOM     10  C   UNL     1     -35.674  23.078   5.656  0.00  0.00    +0.029 C 
ENDROOT
BRANCH   5  12
ATOM     11  O   UNL     1     -32.952  29.745   1.593  0.00  0.00    -0.277 OA
ATOM     12  N   UNL     1     -34.666  28.680   2.736  0.00  0.00    -0.298 N 
ATOM     13  C   UNL     1     -33.877  29.783   2.404  0.00  0.00    +0.206 C 
ATOM     14  H   UNL     1     -35.387  28.799   3.396  0.00  0.00    +0.150 HD
BRANCH  13  15
ATOM     15  C   UNL     1     -34.265  31.043   3.169  0.00  0.00    +0.036 C 
BRANCH  15  16
ATOM     16  C   UNL     1     -34.311  32.243   2.246  0.00  0.00    -0.034 C 
ATOM     17  C   UNL     1     -35.356  32.380   1.332  0.00  0.00    -0.006 C 
ATOM     18  C   UNL     1     -33.310  33.213   2.311  0.00  0.00    -0.006 C 
ATOM     19  C   UNL     1     -35.400  33.485   0.483  0.00  0.00    -0.000 C 
ATOM     20  C   UNL     1     -33.355  34.318   1.462  0.00  0.00    -0.000 C 
ATOM     21  C   UNL     1     -34.399  34.454   0.548  0.00  0.00    -0.000 C 
ENDBRANCH  15  16
BRANCH  15  22
ATOM     22  N   UNL     1     -35.553  30.791   3.823  0.00  0.00    +0.390 N 
ATOM     23  H   UNL     1     -35.905  31.660   4.224  0.00  0.00    -0.088 HD
ATOM     24  H   UNL     1     -35.430  30.100   4.562  0.00  0.00    -0.088 HD
ATOM     25  H   UNL     1     -36.219  30.439   3.136  0.00  0.00    -0.088 HD
ENDBRANCH  15  22
ENDBRANCH  13  15
ENDBRANCH   5  12
BRANCH   7  27
ATOM     26  O   UNL     1     -38.231  24.461   3.793  0.00  0.00    -0.243 OA
ATOM     27  C   UNL     1     -37.166  24.127   3.299  0.00  0.00    +0.357 C 
BRANCH  27  28
ATOM     28  O   UNL     1     -36.952  23.217   2.315  0.00  0.00    -0.404 OA
BRANCH  28  29
ATOM     29  C   UNL     1     -37.621  21.954   2.470  0.00  0.00    +0.433 C 
BRANCH  29  30
ATOM     30  O   UNL     1     -36.953  20.869   1.804  0.00  0.00    -0.408 OA
BRANCH  30  32
ATOM     31  O   UNL     1     -35.366  20.511   3.432  0.00  0.00    -0.250 OA
ATOM     32  C   UNL     1     -35.701  20.556   2.254  0.00  0.00    +0.319 C 
BRANCH  32  33
ATOM     33  C   UNL     1     -34.763  20.282   1.075  0.00  0.00    +0.090 C 
ATOM     34  C   UNL     1     -34.080  21.588   0.647  0.00  0.00    +0.011 C 
ATOM     35  C   UNL     1     -35.574  19.731  -0.108  0.00  0.00    +0.011 C 
ATOM     36  C   UNL     1     -33.715  19.241   1.491  0.00  0.00    +0.011 C 
ENDBRANCH  32  33
ENDBRANCH  30  32
ENDBRANCH  29  30
ENDBRANCH  28  29
ENDBRANCH  27  28
ENDBRANCH   7  27
TORSDOF 10
ENDMDL
MODEL 8
REMARK VINA RESULT:      -6.3      5.862      7.756
REMARK  Name = 20055002
REMARK  10 active torsions:
REMARK  status: ('A' for Active; 'I' for Inactive)
REMARK    1  A    between atoms: C_5  and  N_12
REMARK    2  A    between atoms: C_7  and  C_27
REMARK    3  A    between atoms: C_13  and  C_15
REMARK    4  A    between atoms: C_15  and  C_16
REMARK    5  A    between atoms: C_15  and  N_22
REMARK    6  A    between atoms: C_27  and  O_28
REMARK    7  A    between atoms: O_28  and  C_29
REMARK    8  A    between atoms: C_29  and  O_30
REMARK    9  A    between atoms: O_30  and  C_32
REMARK   10  A    between atoms: C_32  and  C_33
REMARK                            x       y       z     vdW  Elec       q    Type
REMARK                         _______ _______ _______ _____ _____    ______ ____
ROOT
ATOM      1  S   UNL     1     -35.853  23.490   4.980  0.00  0.00    -0.114 S 
ATOM      2  O   UNL     1     -35.130  25.226   0.728  0.00  0.00    -0.273 OA
ATOM      3  N   UNL     1     -35.351  25.271   3.075  0.00  0.00    -0.242 N 
ATOM      4  C   UNL     1     -36.476  24.582   3.681  0.00  0.00    +0.155 C 
ATOM      5  C   UNL     1     -36.704  23.939   2.296  0.00  0.00    +0.178 C 
ATOM      6  C   UNL     1     -35.615  24.932   1.795  0.00  0.00    +0.251 C 
ATOM      7  C   UNL     1     -34.432  25.981   3.780  0.00  0.00    +0.124 C 
ATOM      8  C   UNL     1     -34.326  25.862   5.125  0.00  0.00    -0.013 C 
ATOM      9  C   UNL     1     -35.139  24.863   5.946  0.00  0.00    +0.083 C 
ATOM     10  C   UNL     1     -33.389  26.674   5.986  0.00  0.00    +0.029 C 
ENDROOT
BRANCH   5  12
ATOM     11  O   UNL     1     -37.232  22.312  -0.024  0.00  0.00    -0.277 OA
ATOM     12  N   UNL     1     -36.346  22.534   2.107  0.00  0.00    -0.298 N 
ATOM     13  C   UNL     1     -36.645  21.826   0.942  0.00  0.00    +0.206 C 
ATOM     14  H   UNL     1     -35.874  22.067   2.834  0.00  0.00    +0.150 HD
BRANCH  13  15
ATOM     15  C   UNL     1     -36.189  20.372   0.997  0.00  0.00    +0.036 C 
BRANCH  15  16
ATOM     16  C   UNL     1     -34.699  20.264   0.750  0.00  0.00    -0.034 C 
ATOM     17  C   UNL     1     -33.980  19.193   1.282  0.00  0.00    -0.006 C 
ATOM     18  C   UNL     1     -34.044  21.234  -0.010  0.00  0.00    -0.006 C 
ATOM     19  C   UNL     1     -32.607  19.092   1.054  0.00  0.00    -0.000 C 
ATOM     20  C   UNL     1     -32.672  21.132  -0.238  0.00  0.00    -0.000 C 
ATOM     21  C   UNL     1     -31.954  20.062   0.295  0.00  0.00    -0.000 C 
ENDBRANCH  15  16
BRANCH  15  22
ATOM     22  N   UNL     1     -36.580  19.829   2.301  0.00  0.00    +0.390 N 
ATOM     23  H   UNL     1     -36.603  18.811   2.252  0.00  0.00    -0.088 HD
ATOM     24  H   UNL     1     -37.504  20.179   2.552  0.00  0.00    -0.088 HD
ATOM     25  H   UNL     1     -35.903  20.120   3.007  0.00  0.00    -0.088 HD
ENDBRANCH  15  22
ENDBRANCH  13  15
ENDBRANCH   5  12
BRANCH   7  27
ATOM     26  O   UNL     1     -33.868  27.852   2.439  0.00  0.00    -0.243 OA
ATOM     27  C   UNL     1     -33.519  26.833   3.013  0.00  0.00    +0.357 C 
BRANCH  27  28
ATOM     28  O   UNL     1     -32.275  26.292   3.067  0.00  0.00    -0.404 OA
BRANCH  28  29
ATOM     29  C   UNL     1     -31.184  27.193   2.813  0.00  0.00    +0.433 C 
BRANCH  29  30
ATOM     30  O   UNL     1     -30.575  27.705   4.011  0.00  0.00    -0.408 OA
BRANCH  30  32
ATOM     31  O   UNL     1     -31.483  29.784   3.628  0.00  0.00    -0.250 OA
ATOM     32  C   UNL     1     -30.870  28.997   4.339  0.00  0.00    +0.319 C 
BRANCH  32  33
ATOM     33  C   UNL     1     -30.313  29.336   5.726  0.00  0.00    +0.090 C 
ATOM     34  C   UNL     1     -31.463  29.744   6.657  0.00  0.00    +0.011 C 
ATOM     35  C   UNL     1     -29.325  30.507   5.610  0.00  0.00    +0.011 C 
ATOM     36  C   UNL     1     -29.576  28.114   6.289  0.00  0.00    +0.011 C 
ENDBRANCH  32  33
ENDBRANCH  30  32
ENDBRANCH  29  30
ENDBRANCH  28  29
ENDBRANCH  27  28
ENDBRANCH   7  27
TORSDOF 10
ENDMDL
MODEL 9
REMARK VINA RESULT:      -6.2      6.865      8.230
REMARK  Name = 20055002
REMARK  10 active torsions:
REMARK  status: ('A' for Active; 'I' for Inactive)
REMARK    1  A    between atoms: C_5  and  N_12
REMARK    2  A    between atoms: C_7  and  C_27
REMARK    3  A    between atoms: C_13  and  C_15
REMARK    4  A    between atoms: C_15  and  C_16
REMARK    5  A    between atoms: C_15  and  N_22
REMARK    6  A    between atoms: C_27  and  O_28
REMARK    7  A    between atoms: O_28  and  C_29
REMARK    8  A    between atoms: C_29  and  O_30
REMARK    9  A    between atoms: O_30  and  C_32
REMARK   10  A    between atoms: C_32  and  C_33
REMARK                            x       y       z     vdW  Elec       q    Type
REMARK                         _______ _______ _______ _____ _____    ______ ____
ROOT
ATOM      1  S   UNL     1     -42.937  24.766   0.754  0.00  0.00    -0.114 S 
ATOM      2  O   UNL     1     -41.750  27.838   4.036  0.00  0.00    -0.273 OA
ATOM      3  N   UNL     1     -43.151  26.798   2.449  0.00  0.00    -0.242 N 
ATOM      4  C   UNL     1     -42.613  26.503   1.134  0.00  0.00    +0.155 C 
ATOM      5  C   UNL     1     -41.228  26.827   1.734  0.00  0.00    +0.178 C 
ATOM      6  C   UNL     1     -42.021  27.309   2.983  0.00  0.00    +0.251 C 
ATOM      7  C   UNL     1     -44.436  26.547   2.813  0.00  0.00    +0.124 C 
ATOM      8  C   UNL     1     -45.235  25.739   2.076  0.00  0.00    -0.013 C 
ATOM      9  C   UNL     1     -44.748  24.966   0.853  0.00  0.00    +0.083 C 
ATOM     10  C   UNL     1     -46.693  25.477   2.370  0.00  0.00    +0.029 C 
ENDROOT
BRANCH   5  12
ATOM     11  O   UNL     1     -38.350  26.953   1.844  0.00  0.00    -0.277 OA
ATOM     12  N   UNL     1     -40.310  25.724   2.014  0.00  0.00    -0.298 N 
ATOM     13  C   UNL     1     -38.924  25.883   2.046  0.00  0.00    +0.206 C 
ATOM     14  H   UNL     1     -40.686  24.831   2.187  0.00  0.00    +0.150 HD
BRANCH  13  15
ATOM     15  C   UNL     1     -38.183  24.582   2.337  0.00  0.00    +0.036 C 
BRANCH  15  16
ATOM     16  C   UNL     1     -36.942  24.840   3.166  0.00  0.00    -0.034 C 
ATOM     17  C   UNL     1     -37.062  25.292   4.480  0.00  0.00    -0.006 C 
ATOM     18  C   UNL     1     -35.678  24.626   2.615  0.00  0.00    -0.006 C 
ATOM     19  C   UNL     1     -35.919  25.529   5.244  0.00  0.00    -0.000 C 
ATOM     20  C   UNL     1     -34.535  24.863   3.379  0.00  0.00    -0.000 C 
ATOM     21  C   UNL     1     -34.656  25.314   4.693  0.00  0.00    -0.000 C 
ENDBRANCH  15  16
BRANCH  15  22
ATOM     22  N   UNL     1     -39.120  23.673   3.005  0.00  0.00    +0.390 N 
ATOM     23  H   UNL     1     -38.939  23.676   4.008  0.00  0.00    -0.088 HD
ATOM     24  H   UNL     1     -38.997  22.729   2.639  0.00  0.00    -0.088 HD
ATOM     25  H   UNL     1     -40.076  23.983   2.831  0.00  0.00    -0.088 HD
ENDBRANCH  15  22
ENDBRANCH  13  15
ENDBRANCH   5  12
BRANCH   7  27
ATOM     26  O   UNL     1     -44.704  26.636   5.166  0.00  0.00    -0.243 OA
ATOM     27  C   UNL     1     -44.898  27.140   4.072  0.00  0.00    +0.357 C 
BRANCH  27  28
ATOM     28  O   UNL     1     -45.547  28.298   3.791  0.00  0.00    -0.404 OA
BRANCH  28  29
ATOM     29  C   UNL     1     -44.798  29.508   4.004  0.00  0.00    +0.433 C 
BRANCH  29  30
ATOM     30  O   UNL     1     -45.122  30.169   5.239  0.00  0.00    -0.408 OA
BRANCH  30  32
ATOM     31  O   UNL     1     -42.948  30.127   5.992  0.00  0.00    -0.250 OA
ATOM     32  C   UNL     1     -44.154  30.166   6.203  0.00  0.00    +0.319 C 
BRANCH  32  33
ATOM     33  C   UNL     1     -44.788  30.204   7.597  0.00  0.00    +0.090 C 
ATOM     34  C   UNL     1     -45.905  31.256   7.625  0.00  0.00    +0.011 C 
ATOM     35  C   UNL     1     -43.721  30.580   8.636  0.00  0.00    +0.011 C 
ATOM     36  C   UNL     1     -45.350  28.817   7.937  0.00  0.00    +0.011 C 
ENDBRANCH  32  33
ENDBRANCH  30  32
ENDBRANCH  29  30
ENDBRANCH  28  29
ENDBRANCH  27  28
ENDBRANCH   7  27
TORSDOF 10
ENDMDL
