MODEL 1
REMARK VINA RESULT:      -6.1      0.000      0.000
REMARK  Name = 5492314
REMARK  10 active torsions:
REMARK  status: ('A' for Active; 'I' for Inactive)
REMARK    1  A    between atoms: C_1  and  N_5
REMARK    2  A    between atoms: C_1  and  C_22
REMARK    3  A    between atoms: C_6  and  C_10
REMARK    4  A    between atoms: C_14  and  O_15
REMARK    5  A    between atoms: O_15  and  C_16
REMARK    6  A    between atoms: N_21  and  C_24
REMARK    7  A    between atoms: C_24  and  C_28
REMARK    8  A    between atoms: N_27  and  C_30
REMARK    9  A    between atoms: C_30  and  C_34
REMARK   10  A    between atoms: C_34  and  O_35
REMARK                            x       y       z     vdW  Elec       q    Type
REMARK                         _______ _______ _______ _____ _____    ______ ____
ROOT
ATOM      1  C   UNL     1     -34.761  25.478   4.306  0.00  0.00    +0.126 C 
ATOM      2  C   UNL     1     -34.082  24.314   5.032  0.00  0.00    +0.029 C 
ATOM      3  C   UNL     1     -35.721  26.219   5.241  0.00  0.00    +0.029 C 
ENDROOT
BRANCH   1   5
ATOM      4  O   UNL     1     -37.214  23.926   4.381  0.00  0.00    -0.273 OA
ATOM      5  N   UNL     1     -35.505  24.956   3.181  0.00  0.00    -0.299 N 
ATOM      6  C   UNL     1     -36.671  24.223   3.319  0.00  0.00    +0.241 C 
ATOM      7  H   UNL     1     -35.166  25.130   2.274  0.00  0.00    +0.150 HD
BRANCH   6  10
ATOM      8  O   UNL     1     -36.713  20.234   1.777  0.00  0.00    -0.226 OA
ATOM      9  N   UNL     1     -37.500  22.392   2.051  0.00  0.00    -0.239 N 
ATOM     10  C   UNL     1     -37.252  23.826   1.996  0.00  0.00    +0.155 C 
ATOM     11  C   UNL     1     -38.627  24.445   1.772  0.00  0.00    +0.031 C 
ATOM     12  C   UNL     1     -39.580  23.445   2.425  0.00  0.00    +0.024 C 
ATOM     13  C   UNL     1     -38.927  22.101   2.139  0.00  0.00    +0.097 C 
ATOM     14  C   UNL     1     -36.506  21.442   1.877  0.00  0.00    +0.405 C 
BRANCH  14  15
ATOM     15  O   UNL     1     -35.260  22.007   1.828  0.00  0.00    -0.442 OA
BRANCH  15  16
ATOM     16  C   UNL     1     -34.578  21.912   0.572  0.00  0.00    +0.138 C 
ATOM     17  C   UNL     1     -35.617  21.733  -0.534  0.00  0.00    +0.044 C 
ATOM     18  C   UNL     1     -33.626  20.718   0.624  0.00  0.00    +0.044 C 
ATOM     19  C   UNL     1     -33.800  23.211   0.372  0.00  0.00    +0.044 C 
ENDBRANCH  15  16
ENDBRANCH  14  15
ENDBRANCH   6  10
ENDBRANCH   1   5
BRANCH   1  22
ATOM     20  O   UNL     1     -32.589  26.083   3.386  0.00  0.00    -0.273 OA
ATOM     21  N   UNL     1     -34.169  27.755   3.611  0.00  0.00    -0.297 N 
ATOM     22  C   UNL     1     -33.717  26.448   3.720  0.00  0.00    +0.239 C 
ATOM     23  H   UNL     1     -35.088  27.959   3.903  0.00  0.00    +0.150 HD
BRANCH  21  24
ATOM     24  C   UNL     1     -33.358  28.831   3.091  0.00  0.00    +0.149 C 
ATOM     25  C   UNL     1     -34.193  29.813   2.282  0.00  0.00    +0.031 C 
BRANCH  24  28
ATOM     26  O   UNL     1     -33.150  30.536   4.802  0.00  0.00    -0.273 OA
ATOM     27  N   UNL     1     -31.496  28.918   4.627  0.00  0.00    -0.297 N 
ATOM     28  C   UNL     1     -32.690  29.528   4.268  0.00  0.00    +0.241 C 
ATOM     29  H   UNL     1     -31.211  28.112   4.137  0.00  0.00    +0.150 HD
BRANCH  27  30
ATOM     30  C   UNL     1     -30.653  29.416   5.688  0.00  0.00    +0.147 C 
ATOM     31  C   UNL     1     -31.468  29.511   6.979  0.00  0.00    +0.031 C 
ATOM     32  C   UNL     1     -30.106  30.791   5.297  0.00  0.00    +0.031 C 
BRANCH  30  34
ATOM     33  O   UNL     1     -29.182  27.564   5.142  0.00  0.00    -0.248 OA
ATOM     34  C   UNL     1     -29.474  28.467   5.921  0.00  0.00    +0.333 C 
BRANCH  34  35
ATOM     35  O   UNL     1     -28.807  28.746   7.076  0.00  0.00    -0.443 OA
ATOM     36  C   UNL     1     -27.802  27.801   7.461  0.00  0.00    +0.256 C 
ENDBRANCH  34  35
ENDBRANCH  30  34
ENDBRANCH  27  30
ENDBRANCH  24  28
ENDBRANCH  21  24
ENDBRANCH   1  22
TORSDOF 10
ENDMDL
MODEL 2
REMARK VINA RESULT:      -6.1     10.537     14.064
REMARK  Name = 5492314
REMARK  10 active torsions:
REMARK  status: ('A' for Active; 'I' for Inactive)
REMARK    1  A    between atoms: C_1  and  N_5
REMARK    2  A    between atoms: C_1  and  C_22
REMARK    3  A    between atoms: C_6  and  C_10
REMARK    4  A    between atoms: C_14  and  O_15
REMARK    5  A    between atoms: O_15  and  C_16
REMARK    6  A    between atoms: N_21  and  C_24
REMARK    7  A    between atoms: C_24  and  C_28
REMARK    8  A    between atoms: N_27  and  C_30
REMARK    9  A    between atoms: C_30  and  C_34
REMARK   10  A    between atoms: C_34  and  O_35
REMARK                            x       y       z     vdW  Elec       q    Type
REMARK                         _______ _______ _______ _____ _____    ______ ____
ROOT
ATOM      1  C   UNL     1     -44.075  33.916   1.507  0.00  0.00    +0.126 C 
ATOM      2  C   UNL     1     -43.543  32.633   0.865  0.00  0.00    +0.029 C 
ATOM      3  C   UNL     1     -45.458  34.270   0.954  0.00  0.00    +0.029 C 
ENDROOT
BRANCH   1   5
ATOM      4  O   UNL     1     -43.497  35.093  -1.083  0.00  0.00    -0.273 OA
ATOM      5  N   UNL     1     -43.159  34.997   1.218  0.00  0.00    -0.299 N 
ATOM      6  C   UNL     1     -42.950  35.492  -0.057  0.00  0.00    +0.241 C 
ATOM      7  H   UNL     1     -42.659  35.400   1.965  0.00  0.00    +0.150 HD
BRANCH   6  10
ATOM      8  O   UNL     1     -38.853  35.154  -1.238  0.00  0.00    -0.226 OA
ATOM      9  N   UNL     1     -40.878  36.236  -0.953  0.00  0.00    -0.239 N 
ATOM     10  C   UNL     1     -41.970  36.626  -0.072  0.00  0.00    +0.155 C 
ATOM     11  C   UNL     1     -42.558  37.875  -0.721  0.00  0.00    +0.031 C 
ATOM     12  C   UNL     1     -42.265  37.677  -2.208  0.00  0.00    +0.024 C 
ATOM     13  C   UNL     1     -40.914  36.979  -2.208  0.00  0.00    +0.097 C 
ATOM     14  C   UNL     1     -39.856  35.384  -0.565  0.00  0.00    +0.405 C 
BRANCH  14  15
ATOM     15  O   UNL     1     -40.092  34.826   0.663  0.00  0.00    -0.442 OA
BRANCH  15  16
ATOM     16  C   UNL     1     -39.125  35.114   1.679  0.00  0.00    +0.138 C 
ATOM     17  C   UNL     1     -38.175  36.191   1.156  0.00  0.00    +0.044 C 
ATOM     18  C   UNL     1     -38.365  33.830   2.005  0.00  0.00    +0.044 C 
ATOM     19  C   UNL     1     -39.882  35.616   2.906  0.00  0.00    +0.044 C 
ENDBRANCH  15  16
ENDBRANCH  14  15
ENDBRANCH   6  10
ENDBRANCH   1   5
BRANCH   1  22
ATOM     20  O   UNL     1     -43.107  33.846   3.741  0.00  0.00    -0.273 OA
ATOM     21  N   UNL     1     -45.398  33.599   3.548  0.00  0.00    -0.297 N 
ATOM     22  C   UNL     1     -44.120  33.788   3.042  0.00  0.00    +0.239 C 
ATOM     23  H   UNL     1     -46.152  33.564   2.915  0.00  0.00    +0.150 HD
BRANCH  21  24
ATOM     24  C   UNL     1     -45.675  33.450   4.958  0.00  0.00    +0.149 C 
ATOM     25  C   UNL     1     -47.038  34.025   5.317  0.00  0.00    +0.031 C 
BRANCH  24  28
ATOM     26  O   UNL     1     -46.187  31.101   4.649  0.00  0.00    -0.273 OA
ATOM     27  N   UNL     1     -44.848  31.728   6.437  0.00  0.00    -0.297 N 
ATOM     28  C   UNL     1     -45.605  31.968   5.298  0.00  0.00    +0.241 C 
ATOM     29  H   UNL     1     -44.419  32.492   6.888  0.00  0.00    +0.150 HD
BRANCH  27  30
ATOM     30  C   UNL     1     -44.665  30.407   6.989  0.00  0.00    +0.147 C 
ATOM     31  C   UNL     1     -46.033  29.790   7.288  0.00  0.00    +0.031 C 
ATOM     32  C   UNL     1     -43.829  30.503   8.267  0.00  0.00    +0.031 C 
BRANCH  30  34
ATOM     33  O   UNL     1     -42.803  29.758   5.573  0.00  0.00    -0.248 OA
ATOM     34  C   UNL     1     -43.931  29.510   5.988  0.00  0.00    +0.333 C 
BRANCH  34  35
ATOM     35  O   UNL     1     -44.674  28.426   5.625  0.00  0.00    -0.443 OA
ATOM     36  C   UNL     1     -44.470  27.947   4.291  0.00  0.00    +0.256 C 
ENDBRANCH  34  35
ENDBRANCH  30  34
ENDBRANCH  27  30
ENDBRANCH  24  28
ENDBRANCH  21  24
ENDBRANCH   1  22
TORSDOF 10
ENDMDL
MODEL 3
REMARK VINA RESULT:      -6.1      4.619      8.560
REMARK  Name = 5492314
REMARK  10 active torsions:
REMARK  status: ('A' for Active; 'I' for Inactive)
REMARK    1  A    between atoms: C_1  and  N_5
REMARK    2  A    between atoms: C_1  and  C_22
REMARK    3  A    between atoms: C_6  and  C_10
REMARK    4  A    between atoms: C_14  and  O_15
REMARK    5  A    between atoms: O_15  and  C_16
REMARK    6  A    between atoms: N_21  and  C_24
REMARK    7  A    between atoms: C_24  and  C_28
REMARK    8  A    between atoms: N_27  and  C_30
REMARK    9  A    between atoms: C_30  and  C_34
REMARK   10  A    between atoms: C_34  and  O_35
REMARK                            x       y       z     vdW  Elec       q    Type
REMARK                         _______ _______ _______ _____ _____    ______ ____
ROOT
ATOM      1  C   UNL     1     -39.743  24.748   1.931  0.00  0.00    +0.126 C 
ATOM      2  C   UNL     1     -40.252  24.664   3.372  0.00  0.00    +0.029 C 
ATOM      3  C   UNL     1     -40.533  23.807   1.018  0.00  0.00    +0.029 C 
ENDROOT
BRANCH   1   5
ATOM      4  O   UNL     1     -38.625  22.099   2.331  0.00  0.00    -0.273 OA
ATOM      5  N   UNL     1     -38.348  24.371   1.906  0.00  0.00    -0.299 N 
ATOM      6  C   UNL     1     -37.910  23.074   2.109  0.00  0.00    +0.241 C 
ATOM      7  H   UNL     1     -37.676  25.070   1.737  0.00  0.00    +0.150 HD
BRANCH   6  10
ATOM      8  O   UNL     1     -35.273  22.543   5.435  0.00  0.00    -0.226 OA
ATOM      9  N   UNL     1     -35.955  22.327   3.234  0.00  0.00    -0.239 N 
ATOM     10  C   UNL     1     -36.420  22.955   2.005  0.00  0.00    +0.155 C 
ATOM     11  C   UNL     1     -36.003  21.990   0.901  0.00  0.00    +0.031 C 
ATOM     12  C   UNL     1     -36.007  20.628   1.595  0.00  0.00    +0.024 C 
ATOM     13  C   UNL     1     -35.526  20.952   3.001  0.00  0.00    +0.097 C 
ATOM     14  C   UNL     1     -35.797  23.015   4.427  0.00  0.00    +0.405 C 
BRANCH  14  15
ATOM     15  O   UNL     1     -36.292  24.289   4.353  0.00  0.00    -0.442 OA
BRANCH  15  16
ATOM     16  C   UNL     1     -35.325  25.343   4.415  0.00  0.00    +0.138 C 
ATOM     17  C   UNL     1     -35.695  26.406   3.383  0.00  0.00    +0.044 C 
ATOM     18  C   UNL     1     -33.946  24.754   4.121  0.00  0.00    +0.044 C 
ATOM     19  C   UNL     1     -35.369  25.926   5.826  0.00  0.00    +0.044 C 
ENDBRANCH  15  16
ENDBRANCH  14  15
ENDBRANCH   6  10
ENDBRANCH   1   5
BRANCH   1  22
ATOM     20  O   UNL     1     -38.817  26.924   1.347  0.00  0.00    -0.273 OA
ATOM     21  N   UNL     1     -41.081  26.590   1.017  0.00  0.00    -0.297 N 
ATOM     22  C   UNL     1     -39.808  26.196   1.406  0.00  0.00    +0.239 C 
ATOM     23  H   UNL     1     -41.818  25.942   1.099  0.00  0.00    +0.150 HD
BRANCH  21  24
ATOM     24  C   UNL     1     -41.375  27.906   0.497  0.00  0.00    +0.149 C 
ATOM     25  C   UNL     1     -42.073  27.823  -0.853  0.00  0.00    +0.031 C 
BRANCH  24  28
ATOM     26  O   UNL     1     -42.288  29.855   1.611  0.00  0.00    -0.273 OA
ATOM     27  N   UNL     1     -42.938  27.748   2.332  0.00  0.00    -0.297 N 
ATOM     28  C   UNL     1     -42.245  28.630   1.515  0.00  0.00    +0.241 C 
ATOM     29  H   UNL     1     -42.837  26.780   2.175  0.00  0.00    +0.150 HD
BRANCH  27  30
ATOM     30  C   UNL     1     -43.798  28.188   3.405  0.00  0.00    +0.147 C 
ATOM     31  C   UNL     1     -44.363  26.968   4.134  0.00  0.00    +0.031 C 
ATOM     32  C   UNL     1     -44.931  29.040   2.827  0.00  0.00    +0.031 C 
BRANCH  30  34
ATOM     33  O   UNL     1     -41.878  28.738   4.785  0.00  0.00    -0.248 OA
ATOM     34  C   UNL     1     -43.007  29.035   4.406  0.00  0.00    +0.333 C 
BRANCH  34  35
ATOM     35  O   UNL     1     -43.702  30.135   4.814  0.00  0.00    -0.443 OA
ATOM     36  C   UNL     1     -43.609  30.451   6.207  0.00  0.00    +0.256 C 
ENDBRANCH  34  35
ENDBRANCH  30  34
ENDBRANCH  27  30
ENDBRANCH  24  28
ENDBRANCH  21  24
ENDBRANCH   1  22
TORSDOF 10
ENDMDL
MODEL 4
REMARK VINA RESULT:      -6.0      1.879      3.234
REMARK  Name = 5492314
REMARK  10 active torsions:
REMARK  status: ('A' for Active; 'I' for Inactive)
REMARK    1  A    between atoms: C_1  and  N_5
REMARK    2  A    between atoms: C_1  and  C_22
REMARK    3  A    between atoms: C_6  and  C_10
REMARK    4  A    between atoms: C_14  and  O_15
REMARK    5  A    between atoms: O_15  and  C_16
REMARK    6  A    between atoms: N_21  and  C_24
REMARK    7  A    between atoms: C_24  and  C_28
REMARK    8  A    between atoms: N_27  and  C_30
REMARK    9  A    between atoms: C_30  and  C_34
REMARK   10  A    between atoms: C_34  and  O_35
REMARK                            x       y       z     vdW  Elec       q    Type
REMARK                         _______ _______ _______ _____ _____    ______ ____
ROOT
ATOM      1  C   UNL     1     -34.247  26.290   2.471  0.00  0.00    +0.126 C 
ATOM      2  C   UNL     1     -34.890  26.879   1.212  0.00  0.00    +0.029 C 
ATOM      3  C   UNL     1     -32.906  25.630   2.140  0.00  0.00    +0.029 C 
ENDROOT
BRANCH   1   5
ATOM      4  O   UNL     1     -33.676  24.409   4.607  0.00  0.00    -0.273 OA
ATOM      5  N   UNL     1     -35.138  25.297   3.028  0.00  0.00    -0.299 N 
ATOM      6  C   UNL     1     -34.772  24.440   4.052  0.00  0.00    +0.241 C 
ATOM      7  H   UNL     1     -36.049  25.226   2.662  0.00  0.00    +0.150 HD
BRANCH   6  10
ATOM      8  O   UNL     1     -35.840  20.838   2.008  0.00  0.00    -0.226 OA
ATOM      9  N   UNL     1     -35.633  22.236   3.840  0.00  0.00    -0.239 N 
ATOM     10  C   UNL     1     -35.891  23.529   4.457  0.00  0.00    +0.155 C 
ATOM     11  C   UNL     1     -35.879  23.249   5.956  0.00  0.00    +0.031 C 
ATOM     12  C   UNL     1     -34.935  22.055   6.089  0.00  0.00    +0.024 C 
ATOM     13  C   UNL     1     -35.211  21.249   4.829  0.00  0.00    +0.097 C 
ATOM     14  C   UNL     1     -35.914  21.957   2.512  0.00  0.00    +0.405 C 
BRANCH  14  15
ATOM     15  O   UNL     1     -36.289  23.079   1.822  0.00  0.00    -0.442 OA
BRANCH  15  16
ATOM     16  C   UNL     1     -37.638  23.098   1.341  0.00  0.00    +0.138 C 
ATOM     17  C   UNL     1     -38.474  22.150   2.200  0.00  0.00    +0.044 C 
ATOM     18  C   UNL     1     -37.639  22.653  -0.121  0.00  0.00    +0.044 C 
ATOM     19  C   UNL     1     -38.151  24.530   1.467  0.00  0.00    +0.044 C 
ENDBRANCH  15  16
ENDBRANCH  14  15
ENDBRANCH   6  10
ENDBRANCH   1   5
BRANCH   1  22
ATOM     20  O   UNL     1     -34.868  28.294   3.708  0.00  0.00    -0.273 OA
ATOM     21  N   UNL     1     -32.932  27.195   4.332  0.00  0.00    -0.297 N 
ATOM     22  C   UNL     1     -34.069  27.369   3.556  0.00  0.00    +0.239 C 
ATOM     23  H   UNL     1     -32.347  26.427   4.141  0.00  0.00    +0.150 HD
BRANCH  21  24
ATOM     24  C   UNL     1     -32.565  28.089   5.407  0.00  0.00    +0.149 C 
ATOM     25  C   UNL     1     -32.579  27.374   6.750  0.00  0.00    +0.031 C 
BRANCH  24  28
ATOM     26  O   UNL     1     -30.920  29.274   4.077  0.00  0.00    -0.273 OA
ATOM     27  N   UNL     1     -30.261  28.329   6.091  0.00  0.00    -0.297 N 
ATOM     28  C   UNL     1     -31.182  28.648   5.102  0.00  0.00    +0.241 C 
ATOM     29  H   UNL     1     -30.569  27.821   6.877  0.00  0.00    +0.150 HD
BRANCH  27  30
ATOM     30  C   UNL     1     -28.870  28.708   6.013  0.00  0.00    +0.147 C 
ATOM     31  C   UNL     1     -28.750  30.225   6.173  0.00  0.00    +0.031 C 
ATOM     32  C   UNL     1     -28.298  28.264   4.665  0.00  0.00    +0.031 C 
BRANCH  30  34
ATOM     33  O   UNL     1     -27.312  28.649   7.874  0.00  0.00    -0.248 OA
ATOM     34  C   UNL     1     -28.072  28.033   7.132  0.00  0.00    +0.333 C 
BRANCH  34  35
ATOM     35  O   UNL     1     -28.307  26.692   7.197  0.00  0.00    -0.443 OA
ATOM     36  C   UNL     1     -27.164  25.870   7.459  0.00  0.00    +0.256 C 
ENDBRANCH  34  35
ENDBRANCH  30  34
ENDBRANCH  27  30
ENDBRANCH  24  28
ENDBRANCH  21  24
ENDBRANCH   1  22
TORSDOF 10
ENDMDL
MODEL 5
REMARK VINA RESULT:      -6.0      1.777      3.588
REMARK  Name = 5492314
REMARK  10 active torsions:
REMARK  status: ('A' for Active; 'I' for Inactive)
REMARK    1  A    between atoms: C_1  and  N_5
REMARK    2  A    between atoms: C_1  and  C_22
REMARK    3  A    between atoms: C_6  and  C_10
REMARK    4  A    between atoms: C_14  and  O_15
REMARK    5  A    between atoms: O_15  and  C_16
REMARK    6  A    between atoms: N_21  and  C_24
REMARK    7  A    between atoms: C_24  and  C_28
REMARK    8  A    between atoms: N_27  and  C_30
REMARK    9  A    between atoms: C_30  and  C_34
REMARK   10  A    between atoms: C_34  and  O_35
REMARK                            x       y       z     vdW  Elec       q    Type
REMARK                         _______ _______ _______ _____ _____    ______ ____
ROOT
ATOM      1  C   UNL     1     -33.546  25.427   0.458  0.00  0.00    +0.126 C 
ATOM      2  C   UNL     1     -34.701  26.376   0.129  0.00  0.00    +0.029 C 
ATOM      3  C   UNL     1     -33.031  24.736  -0.808  0.00  0.00    +0.029 C 
ENDROOT
BRANCH   1   5
ATOM      4  O   UNL     1     -35.345  23.217  -0.095  0.00  0.00    -0.273 OA
ATOM      5  N   UNL     1     -34.015  24.423   1.386  0.00  0.00    -0.299 N 
ATOM      6  C   UNL     1     -34.878  23.402   1.026  0.00  0.00    +0.241 C 
ATOM      7  H   UNL     1     -33.708  24.469   2.320  0.00  0.00    +0.150 HD
BRANCH   6  10
ATOM      8  O   UNL     1     -38.050  23.997   3.833  0.00  0.00    -0.226 OA
ATOM      9  N   UNL     1     -36.559  22.753   2.575  0.00  0.00    -0.239 N 
ATOM     10  C   UNL     1     -35.185  22.488   2.173  0.00  0.00    +0.155 C 
ATOM     11  C   UNL     1     -35.186  21.024   1.746  0.00  0.00    +0.031 C 
ATOM     12  C   UNL     1     -36.615  20.796   1.256  0.00  0.00    +0.024 C 
ATOM     13  C   UNL     1     -37.448  21.663   2.189  0.00  0.00    +0.097 C 
ATOM     14  C   UNL     1     -36.925  23.833   3.364  0.00  0.00    +0.405 C 
BRANCH  14  15
ATOM     15  O   UNL     1     -35.883  24.698   3.564  0.00  0.00    -0.442 OA
BRANCH  15  16
ATOM     16  C   UNL     1     -35.350  24.742   4.892  0.00  0.00    +0.138 C 
ATOM     17  C   UNL     1     -33.840  24.954   4.805  0.00  0.00    +0.044 C 
ATOM     18  C   UNL     1     -35.675  23.421   5.590  0.00  0.00    +0.044 C 
ATOM     19  C   UNL     1     -36.016  25.909   5.617  0.00  0.00    +0.044 C 
ENDBRANCH  15  16
ENDBRANCH  14  15
ENDBRANCH   6  10
ENDBRANCH   1   5
BRANCH   1  22
ATOM     20  O   UNL     1     -31.326  25.640   1.437  0.00  0.00    -0.273 OA
ATOM     21  N   UNL     1     -32.709  27.492   1.482  0.00  0.00    -0.297 N 
ATOM     22  C   UNL     1     -32.403  26.175   1.172  0.00  0.00    +0.239 C 
ATOM     23  H   UNL     1     -33.597  27.839   1.233  0.00  0.00    +0.150 HD
BRANCH  21  24
ATOM     24  C   UNL     1     -31.788  28.379   2.155  0.00  0.00    +0.149 C 
ATOM     25  C   UNL     1     -31.752  29.747   1.489  0.00  0.00    +0.031 C 
BRANCH  24  28
ATOM     26  O   UNL     1     -33.401  28.491   3.961  0.00  0.00    -0.273 OA
ATOM     27  N   UNL     1     -31.141  28.643   4.468  0.00  0.00    -0.297 N 
ATOM     28  C   UNL     1     -32.222  28.494   3.610  0.00  0.00    +0.241 C 
ATOM     29  H   UNL     1     -30.232  28.632   4.088  0.00  0.00    +0.150 HD
BRANCH  27  30
ATOM     30  C   UNL     1     -31.294  28.814   5.893  0.00  0.00    +0.147 C 
ATOM     31  C   UNL     1     -32.243  27.741   6.432  0.00  0.00    +0.031 C 
ATOM     32  C   UNL     1     -31.847  30.212   6.179  0.00  0.00    +0.031 C 
BRANCH  30  34
ATOM     33  O   UNL     1     -29.423  29.575   7.240  0.00  0.00    -0.248 OA
ATOM     34  C   UNL     1     -29.940  28.668   6.594  0.00  0.00    +0.333 C 
BRANCH  34  35
ATOM     35  O   UNL     1     -29.396  27.431   6.413  0.00  0.00    -0.443 OA
ATOM     36  C   UNL     1     -27.998  27.403   6.109  0.00  0.00    +0.256 C 
ENDBRANCH  34  35
ENDBRANCH  30  34
ENDBRANCH  27  30
ENDBRANCH  24  28
ENDBRANCH  21  24
ENDBRANCH   1  22
TORSDOF 10
ENDMDL
MODEL 6
REMARK VINA RESULT:      -5.9      1.882      3.571
REMARK  Name = 5492314
REMARK  10 active torsions:
REMARK  status: ('A' for Active; 'I' for Inactive)
REMARK    1  A    between atoms: C_1  and  N_5
REMARK    2  A    between atoms: C_1  and  C_22
REMARK    3  A    between atoms: C_6  and  C_10
REMARK    4  A    between atoms: C_14  and  O_15
REMARK    5  A    between atoms: O_15  and  C_16
REMARK    6  A    between atoms: N_21  and  C_24
REMARK    7  A    between atoms: C_24  and  C_28
REMARK    8  A    between atoms: N_27  and  C_30
REMARK    9  A    between atoms: C_30  and  C_34
REMARK   10  A    between atoms: C_34  and  O_35
REMARK                            x       y       z     vdW  Elec       q    Type
REMARK                         _______ _______ _______ _____ _____    ______ ____
ROOT
ATOM      1  C   UNL     1     -33.915  26.682   2.552  0.00  0.00    +0.126 C 
ATOM      2  C   UNL     1     -34.529  27.381   1.337  0.00  0.00    +0.029 C 
ATOM      3  C   UNL     1     -32.646  25.920   2.158  0.00  0.00    +0.029 C 
ENDROOT
BRANCH   1   5
ATOM      4  O   UNL     1     -33.431  24.556   4.470  0.00  0.00    -0.273 OA
ATOM      5  N   UNL     1     -34.879  25.749   3.090  0.00  0.00    -0.299 N 
ATOM      6  C   UNL     1     -34.550  24.764   4.006  0.00  0.00    +0.241 C 
ATOM      7  H   UNL     1     -35.814  25.816   2.791  0.00  0.00    +0.150 HD
BRANCH   6  10
ATOM      8  O   UNL     1     -36.120  21.453   1.800  0.00  0.00    -0.226 OA
ATOM      9  N   UNL     1     -35.661  22.686   3.704  0.00  0.00    -0.239 N 
ATOM     10  C   UNL     1     -35.740  23.952   4.418  0.00  0.00    +0.155 C 
ATOM     11  C   UNL     1     -35.680  23.565   5.892  0.00  0.00    +0.031 C 
ATOM     12  C   UNL     1     -34.869  22.270   5.889  0.00  0.00    +0.024 C 
ATOM     13  C   UNL     1     -35.300  21.591   4.598  0.00  0.00    +0.097 C 
ATOM     14  C   UNL     1     -36.043  22.535   2.379  0.00  0.00    +0.405 C 
BRANCH  14  15
ATOM     15  O   UNL     1     -36.326  23.737   1.788  0.00  0.00    -0.442 OA
BRANCH  15  16
ATOM     16  C   UNL     1     -37.673  23.910   1.334  0.00  0.00    +0.138 C 
ATOM     17  C   UNL     1     -38.010  25.400   1.364  0.00  0.00    +0.044 C 
ATOM     18  C   UNL     1     -38.602  23.122   2.257  0.00  0.00    +0.044 C 
ATOM     19  C   UNL     1     -37.750  23.371  -0.093  0.00  0.00    +0.044 C 
ENDBRANCH  15  16
ENDBRANCH  14  15
ENDBRANCH   6  10
ENDBRANCH   1   5
BRANCH   1  22
ATOM     20  O   UNL     1     -34.236  28.748   3.800  0.00  0.00    -0.273 OA
ATOM     21  N   UNL     1     -32.589  27.295   4.522  0.00  0.00    -0.297 N 
ATOM     22  C   UNL     1     -33.616  27.691   3.677  0.00  0.00    +0.239 C 
ATOM     23  H   UNL     1     -32.146  26.433   4.349  0.00  0.00    +0.150 HD
BRANCH  21  24
ATOM     24  C   UNL     1     -32.138  28.088   5.643  0.00  0.00    +0.149 C 
ATOM     25  C   UNL     1     -32.544  27.455   6.966  0.00  0.00    +0.031 C 
BRANCH  24  28
ATOM     26  O   UNL     1     -29.982  27.877   4.557  0.00  0.00    -0.273 OA
ATOM     27  N   UNL     1     -30.071  28.736   6.711  0.00  0.00    -0.297 N 
ATOM     28  C   UNL     1     -30.625  28.223   5.546  0.00  0.00    +0.241 C 
ATOM     29  H   UNL     1     -30.673  28.985   7.450  0.00  0.00    +0.150 HD
BRANCH  27  30
ATOM     30  C   UNL     1     -28.649  28.920   6.883  0.00  0.00    +0.147 C 
ATOM     31  C   UNL     1     -27.948  27.564   6.782  0.00  0.00    +0.031 C 
ATOM     32  C   UNL     1     -28.383  29.560   8.248  0.00  0.00    +0.031 C 
BRANCH  30  34
ATOM     33  O   UNL     1     -27.232  29.487   4.996  0.00  0.00    -0.248 OA
ATOM     34  C   UNL     1     -28.096  29.841   5.792  0.00  0.00    +0.333 C 
BRANCH  34  35
ATOM     35  O   UNL     1     -28.673  31.076   5.817  0.00  0.00    -0.443 OA
ATOM     36  C   UNL     1     -29.177  31.555   4.566  0.00  0.00    +0.256 C 
ENDBRANCH  34  35
ENDBRANCH  30  34
ENDBRANCH  27  30
ENDBRANCH  24  28
ENDBRANCH  21  24
ENDBRANCH   1  22
TORSDOF 10
ENDMDL
MODEL 7
REMARK VINA RESULT:      -5.9      2.721      7.660
REMARK  Name = 5492314
REMARK  10 active torsions:
REMARK  status: ('A' for Active; 'I' for Inactive)
REMARK    1  A    between atoms: C_1  and  N_5
REMARK    2  A    between atoms: C_1  and  C_22
REMARK    3  A    between atoms: C_6  and  C_10
REMARK    4  A    between atoms: C_14  and  O_15
REMARK    5  A    between atoms: O_15  and  C_16
REMARK    6  A    between atoms: N_21  and  C_24
REMARK    7  A    between atoms: C_24  and  C_28
REMARK    8  A    between atoms: N_27  and  C_30
REMARK    9  A    between atoms: C_30  and  C_34
REMARK   10  A    between atoms: C_34  and  O_35
REMARK                            x       y       z     vdW  Elec       q    Type
REMARK                         _______ _______ _______ _____ _____    ______ ____
ROOT
ATOM      1  C   UNL     1     -34.619  26.164   5.349  0.00  0.00    +0.126 C 
ATOM      2  C   UNL     1     -36.030  26.161   5.943  0.00  0.00    +0.029 C 
ATOM      3  C   UNL     1     -33.597  26.663   6.375  0.00  0.00    +0.029 C 
ENDROOT
BRANCH   1   5
ATOM      4  O   UNL     1     -36.197  25.923   2.924  0.00  0.00    -0.273 OA
ATOM      5  N   UNL     1     -34.599  27.038   4.198  0.00  0.00    -0.299 N 
ATOM      6  C   UNL     1     -35.394  26.839   3.082  0.00  0.00    +0.241 C 
ATOM      7  H   UNL     1     -33.990  27.812   4.207  0.00  0.00    +0.150 HD
BRANCH   6  10
ATOM      8  O   UNL     1     -32.288  26.824   0.141  0.00  0.00    -0.226 OA
ATOM      9  N   UNL     1     -34.384  27.322   0.986  0.00  0.00    -0.239 N 
ATOM     10  C   UNL     1     -35.194  27.904   2.046  0.00  0.00    +0.155 C 
ATOM     11  C   UNL     1     -36.504  28.283   1.364  0.00  0.00    +0.031 C 
ATOM     12  C   UNL     1     -36.617  27.274   0.222  0.00  0.00    +0.024 C 
ATOM     13  C   UNL     1     -35.174  27.077  -0.216  0.00  0.00    +0.097 C 
ATOM     14  C   UNL     1     -33.007  27.178   1.073  0.00  0.00    +0.405 C 
BRANCH  14  15
ATOM     15  O   UNL     1     -32.539  27.478   2.324  0.00  0.00    -0.442 OA
BRANCH  15  16
ATOM     16  C   UNL     1     -31.633  28.584   2.405  0.00  0.00    +0.138 C 
ATOM     17  C   UNL     1     -30.210  28.063   2.212  0.00  0.00    +0.044 C 
ATOM     18  C   UNL     1     -31.791  29.243   3.775  0.00  0.00    +0.044 C 
ATOM     19  C   UNL     1     -32.002  29.564   1.293  0.00  0.00    +0.044 C 
ENDBRANCH  15  16
ENDBRANCH  14  15
ENDBRANCH   6  10
ENDBRANCH   1   5
BRANCH   1  22
ATOM     20  O   UNL     1     -33.194  24.552   4.209  0.00  0.00    -0.273 OA
ATOM     21  N   UNL     1     -35.164  23.782   5.142  0.00  0.00    -0.297 N 
ATOM     22  C   UNL     1     -34.233  24.764   4.835  0.00  0.00    +0.239 C 
ATOM     23  H   UNL     1     -35.969  24.041   5.647  0.00  0.00    +0.150 HD
BRANCH  21  24
ATOM     24  C   UNL     1     -35.009  22.398   4.757  0.00  0.00    +0.149 C 
ATOM     25  C   UNL     1     -35.562  21.462   5.821  0.00  0.00    +0.031 C 
BRANCH  24  28
ATOM     26  O   UNL     1     -35.203  21.656   2.457  0.00  0.00    -0.273 OA
ATOM     27  N   UNL     1     -37.009  22.727   3.443  0.00  0.00    -0.297 N 
ATOM     28  C   UNL     1     -35.727  22.196   3.429  0.00  0.00    +0.241 C 
ATOM     29  H   UNL     1     -37.340  23.141   4.274  0.00  0.00    +0.150 HD
BRANCH  27  30
ATOM     30  C   UNL     1     -37.878  22.700   2.290  0.00  0.00    +0.147 C 
ATOM     31  C   UNL     1     -38.151  21.247   1.897  0.00  0.00    +0.031 C 
ATOM     32  C   UNL     1     -37.211  23.452   1.136  0.00  0.00    +0.031 C 
BRANCH  30  34
ATOM     33  O   UNL     1     -40.283  22.997   2.153  0.00  0.00    -0.248 OA
ATOM     34  C   UNL     1     -39.212  23.380   2.614  0.00  0.00    +0.333 C 
BRANCH  34  35
ATOM     35  O   UNL     1     -39.060  24.439   3.458  0.00  0.00    -0.443 OA
ATOM     36  C   UNL     1     -39.754  25.635   3.090  0.00  0.00    +0.256 C 
ENDBRANCH  34  35
ENDBRANCH  30  34
ENDBRANCH  27  30
ENDBRANCH  24  28
ENDBRANCH  21  24
ENDBRANCH   1  22
TORSDOF 10
ENDMDL
MODEL 8
REMARK VINA RESULT:      -5.8      2.246      3.834
REMARK  Name = 5492314
REMARK  10 active torsions:
REMARK  status: ('A' for Active; 'I' for Inactive)
REMARK    1  A    between atoms: C_1  and  N_5
REMARK    2  A    between atoms: C_1  and  C_22
REMARK    3  A    between atoms: C_6  and  C_10
REMARK    4  A    between atoms: C_14  and  O_15
REMARK    5  A    between atoms: O_15  and  C_16
REMARK    6  A    between atoms: N_21  and  C_24
REMARK    7  A    between atoms: C_24  and  C_28
REMARK    8  A    between atoms: N_27  and  C_30
REMARK    9  A    between atoms: C_30  and  C_34
REMARK   10  A    between atoms: C_34  and  O_35
REMARK                            x       y       z     vdW  Elec       q    Type
REMARK                         _______ _______ _______ _____ _____    ______ ____
ROOT
ATOM      1  C   UNL     1     -35.352  28.240   1.705  0.00  0.00    +0.126 C 
ATOM      2  C   UNL     1     -36.300  29.308   1.153  0.00  0.00    +0.029 C 
ATOM      3  C   UNL     1     -34.841  27.332   0.583  0.00  0.00    +0.029 C 
ENDROOT
BRANCH   1   5
ATOM      4  O   UNL     1     -34.447  25.792   2.977  0.00  0.00    -0.273 OA
ATOM      5  N   UNL     1     -36.065  27.439   2.674  0.00  0.00    -0.299 N 
ATOM      6  C   UNL     1     -35.547  26.280   3.227  0.00  0.00    +0.241 C 
ATOM      7  H   UNL     1     -36.962  27.730   2.954  0.00  0.00    +0.150 HD
BRANCH   6  10
ATOM      8  O   UNL     1     -37.717  22.649   2.590  0.00  0.00    -0.226 OA
ATOM      9  N   UNL     1     -36.631  24.259   3.849  0.00  0.00    -0.239 N 
ATOM     10  C   UNL     1     -36.481  25.659   4.221  0.00  0.00    +0.155 C 
ATOM     11  C   UNL     1     -35.877  25.621   5.620  0.00  0.00    +0.031 C 
ATOM     12  C   UNL     1     -35.085  24.314   5.633  0.00  0.00    +0.024 C 
ATOM     13  C   UNL     1     -35.937  23.381   4.785  0.00  0.00    +0.097 C 
ATOM     14  C   UNL     1     -37.465  23.829   2.828  0.00  0.00    +0.405 C 
BRANCH  14  15
ATOM     15  O   UNL     1     -37.979  24.876   2.111  0.00  0.00    -0.442 OA
BRANCH  15  16
ATOM     16  C   UNL     1     -39.407  24.962   2.065  0.00  0.00    +0.138 C 
ATOM     17  C   UNL     1     -39.795  26.297   1.429  0.00  0.00    +0.044 C 
ATOM     18  C   UNL     1     -39.947  24.861   3.490  0.00  0.00    +0.044 C 
ATOM     19  C   UNL     1     -39.912  23.797   1.216  0.00  0.00    +0.044 C 
ENDBRANCH  15  16
ENDBRANCH  14  15
ENDBRANCH   6  10
ENDBRANCH   1   5
BRANCH   1  22
ATOM     20  O   UNL     1     -34.306  29.410   3.567  0.00  0.00    -0.273 OA
ATOM     21  N   UNL     1     -32.969  28.817   1.776  0.00  0.00    -0.297 N 
ATOM     22  C   UNL     1     -34.174  28.885   2.461  0.00  0.00    +0.239 C 
ATOM     23  H   UNL     1     -32.955  28.379   0.895  0.00  0.00    +0.150 HD
BRANCH  21  24
ATOM     24  C   UNL     1     -31.734  29.360   2.295  0.00  0.00    +0.149 C 
ATOM     25  C   UNL     1     -31.840  30.861   2.517  0.00  0.00    +0.031 C 
BRANCH  24  28
ATOM     26  O   UNL     1     -31.141  27.442   3.654  0.00  0.00    -0.273 OA
ATOM     27  N   UNL     1     -31.511  29.481   4.698  0.00  0.00    -0.297 N 
ATOM     28  C   UNL     1     -31.415  28.639   3.598  0.00  0.00    +0.241 C 
ATOM     29  H   UNL     1     -31.737  30.429   4.548  0.00  0.00    +0.150 HD
BRANCH  27  30
ATOM     30  C   UNL     1     -31.296  29.025   6.051  0.00  0.00    +0.147 C 
ATOM     31  C   UNL     1     -32.101  27.746   6.287  0.00  0.00    +0.031 C 
ATOM     32  C   UNL     1     -31.730  30.120   7.029  0.00  0.00    +0.031 C 
BRANCH  30  34
ATOM     33  O   UNL     1     -28.934  29.569   6.169  0.00  0.00    -0.248 OA
ATOM     34  C   UNL     1     -29.813  28.721   6.280  0.00  0.00    +0.333 C 
BRANCH  34  35
ATOM     35  O   UNL     1     -29.600  27.417   6.615  0.00  0.00    -0.443 OA
ATOM     36  C   UNL     1     -28.251  27.069   6.943  0.00  0.00    +0.256 C 
ENDBRANCH  34  35
ENDBRANCH  30  34
ENDBRANCH  27  30
ENDBRANCH  24  28
ENDBRANCH  21  24
ENDBRANCH   1  22
TORSDOF 10
ENDMDL
MODEL 9
REMARK VINA RESULT:      -5.8      1.843      3.526
REMARK  Name = 5492314
REMARK  10 active torsions:
REMARK  status: ('A' for Active; 'I' for Inactive)
REMARK    1  A    between atoms: C_1  and  N_5
REMARK    2  A    between atoms: C_1  and  C_22
REMARK    3  A    between atoms: C_6  and  C_10
REMARK    4  A    between atoms: C_14  and  O_15
REMARK    5  A    between atoms: O_15  and  C_16
REMARK    6  A    between atoms: N_21  and  C_24
REMARK    7  A    between atoms: C_24  and  C_28
REMARK    8  A    between atoms: N_27  and  C_30
REMARK    9  A    between atoms: C_30  and  C_34
REMARK   10  A    between atoms: C_34  and  O_35
REMARK                            x       y       z     vdW  Elec       q    Type
REMARK                         _______ _______ _______ _____ _____    ______ ____
ROOT
ATOM      1  C   UNL     1     -33.998  25.639   1.330  0.00  0.00    +0.126 C 
ATOM      2  C   UNL     1     -34.726  26.465   0.266  0.00  0.00    +0.029 C 
ATOM      3  C   UNL     1     -33.452  24.339   0.732  0.00  0.00    +0.029 C 
ENDROOT
BRANCH   1   5
ATOM      4  O   UNL     1     -35.552  27.494   2.934  0.00  0.00    -0.273 OA
ATOM      5  N   UNL     1     -34.927  25.318   2.390  0.00  0.00    -0.299 N 
ATOM      6  C   UNL     1     -35.625  26.279   3.101  0.00  0.00    +0.241 C 
ATOM      7  H   UNL     1     -35.070  24.371   2.617  0.00  0.00    +0.150 HD
BRANCH   6  10
ATOM      8  O   UNL     1     -37.587  22.500   2.687  0.00  0.00    -0.226 OA
ATOM      9  N   UNL     1     -36.608  24.247   3.846  0.00  0.00    -0.239 N 
ATOM     10  C   UNL     1     -36.538  25.675   4.125  0.00  0.00    +0.155 C 
ATOM     11  C   UNL     1     -35.952  25.763   5.530  0.00  0.00    +0.031 C 
ATOM     12  C   UNL     1     -35.092  24.505   5.638  0.00  0.00    +0.024 C 
ATOM     13  C   UNL     1     -35.880  23.473   4.846  0.00  0.00    +0.097 C 
ATOM     14  C   UNL     1     -37.402  23.705   2.847  0.00  0.00    +0.405 C 
BRANCH  14  15
ATOM     15  O   UNL     1     -37.962  24.673   2.057  0.00  0.00    -0.442 OA
BRANCH  15  16
ATOM     16  C   UNL     1     -39.392  24.676   1.989  0.00  0.00    +0.138 C 
ATOM     17  C   UNL     1     -39.948  24.768   3.409  0.00  0.00    +0.044 C 
ATOM     18  C   UNL     1     -39.850  23.388   1.307  0.00  0.00    +0.044 C 
ATOM     19  C   UNL     1     -39.811  25.895   1.169  0.00  0.00    +0.044 C 
ENDBRANCH  15  16
ENDBRANCH  14  15
ENDBRANCH   6  10
ENDBRANCH   1   5
BRANCH   1  22
ATOM     20  O   UNL     1     -32.022  25.944   2.720  0.00  0.00    -0.273 OA
ATOM     21  N   UNL     1     -32.893  27.804   1.658  0.00  0.00    -0.297 N 
ATOM     22  C   UNL     1     -32.865  26.454   1.981  0.00  0.00    +0.239 C 
ATOM     23  H   UNL     1     -33.605  28.127   1.059  0.00  0.00    +0.150 HD
BRANCH  21  24
ATOM     24  C   UNL     1     -31.928  28.756   2.158  0.00  0.00    +0.149 C 
ATOM     25  C   UNL     1     -31.955  30.046   1.352  0.00  0.00    +0.031 C 
BRANCH  24  28
ATOM     26  O   UNL     1     -33.255  29.622   3.992  0.00  0.00    -0.273 OA
ATOM     27  N   UNL     1     -31.252  28.552   4.468  0.00  0.00    -0.297 N 
ATOM     28  C   UNL     1     -32.247  29.024   3.623  0.00  0.00    +0.241 C 
ATOM     29  H   UNL     1     -30.480  28.084   4.074  0.00  0.00    +0.150 HD
BRANCH  27  30
ATOM     30  C   UNL     1     -31.301  28.722   5.901  0.00  0.00    +0.147 C 
ATOM     31  C   UNL     1     -32.299  27.725   6.495  0.00  0.00    +0.031 C 
ATOM     32  C   UNL     1     -31.720  30.158   6.228  0.00  0.00    +0.031 C 
BRANCH  30  34
ATOM     33  O   UNL     1     -29.335  27.389   6.401  0.00  0.00    -0.248 OA
ATOM     34  C   UNL     1     -29.923  28.460   6.515  0.00  0.00    +0.333 C 
BRANCH  34  35
ATOM     35  O   UNL     1     -29.443  29.544   7.188  0.00  0.00    -0.443 OA
ATOM     36  C   UNL     1     -28.234  29.336   7.925  0.00  0.00    +0.256 C 
ENDBRANCH  34  35
ENDBRANCH  30  34
ENDBRANCH  27  30
ENDBRANCH  24  28
ENDBRANCH  21  24
ENDBRANCH   1  22
TORSDOF 10
ENDMDL
