MODEL 1
REMARK VINA RESULT:      -5.8      0.000      0.000
REMARK  Name = 56842854
REMARK  7 active torsions:
REMARK  status: ('A' for Active; 'I' for Inactive)
REMARK    1  A    between atoms: N_1  and  C1*_12
REMARK    2  A    between atoms: C2*_11  and  O2*_15
REMARK    3  A    between atoms: C3*_13  and  O3*_17
REMARK    4  A    between atoms: C4*_14  and  C5*_19
REMARK    5  A    between atoms: C5*_19  and  O5*_20
REMARK    6  A    between atoms: N_22  and  C_24
REMARK    7  A    between atoms: C_24  and  C_26
REMARK                            x       y       z     vdW  Elec       q    Type
REMARK                         _______ _______ _______ _____ _____    ______ ____
ROOT
ATOM      1  N   UNL     1     -37.584  23.884   2.843  0.00  0.00    -0.247 N 
ATOM      2  N   UNL     1     -39.289  22.658   2.098  0.00  0.00    -0.242 NA
ATOM      3  N   UNL     1     -38.275  26.078   2.063  0.00  0.00    -0.228 NA
ATOM      4  N   UNL     1     -40.406  25.966   0.879  0.00  0.00    -0.228 NA
ATOM      5  C   UNL     1     -38.427  24.754   2.213  0.00  0.00    +0.152 C 
ATOM      6  C   UNL     1     -38.143  22.638   2.748  0.00  0.00    +0.223 C 
ATOM      7  C   UNL     1     -39.478  23.974   1.758  0.00  0.00    +0.140 C 
ATOM      8  C   UNL     1     -40.493  24.628   1.067  0.00  0.00    +0.146 C 
ATOM      9  C   UNL     1     -39.319  26.599   1.381  0.00  0.00    +0.253 C 
ATOM     10  N   UNL     1     -41.598  23.915   0.571  0.00  0.00    -0.313 N 
ATOM     11  H   UNL     1     -41.636  22.943   0.721  0.00  0.00    +0.149 HD
ENDROOT
BRANCH   1  14
ATOM     12  O4* UNL     1     -35.510  23.035   3.810  0.00  0.00    -0.333 OA
ATOM     13  C2* UNL     1     -36.466  24.927   4.860  0.00  0.00    +0.187 C 
ATOM     14  C1* UNL     1     -36.277  24.222   3.522  0.00  0.00    +0.225 C 
ATOM     15  C3* UNL     1     -35.178  24.583   5.582  0.00  0.00    +0.171 C 
ATOM     16  C4* UNL     1     -34.929  23.149   5.128  0.00  0.00    +0.175 C 
BRANCH  13  17
ATOM     17  O2* UNL     1     -36.669  26.319   4.728  0.00  0.00    -0.378 OA
ATOM     18  H2* UNL     1     -35.972  26.795   5.205  0.00  0.00    +0.211 HD
ENDBRANCH  13  17
BRANCH  15  19
ATOM     19  O3* UNL     1     -34.105  25.389   5.098  0.00  0.00    -0.379 OA
ATOM     20  H3* UNL     1     -34.442  26.268   4.863  0.00  0.00    +0.211 HD
ENDBRANCH  15  19
BRANCH  16  21
ATOM     21  C5* UNL     1     -35.588  22.115   6.031  0.00  0.00    +0.169 C 
BRANCH  21  22
ATOM     22  O5* UNL     1     -35.194  20.823   5.603  0.00  0.00    -0.379 OA
ATOM     23  H5* UNL     1     -35.639  20.609   4.769  0.00  0.00    +0.211 HD
ENDBRANCH  21  22
ENDBRANCH  16  21
ENDBRANCH   1  14
BRANCH  10  24
ATOM     24  C   UNL     1     -42.672  24.536  -0.146  0.00  0.00    +0.116 C 
BRANCH  24  26
ATOM     25 CL   UNL     1     -43.627  26.476   2.077  0.00  0.00    -0.087 Cl
ATOM     26  C   UNL     1     -43.950  24.291   0.593  0.00  0.00    +0.002 C 
ATOM     27  C   UNL     1     -44.482  25.049   1.566  0.00  0.00    +0.033 C 
ATOM     28  C   UNL     1     -45.757  24.813   2.310  0.00  0.00    +0.043 C 
ENDBRANCH  24  26
ENDBRANCH  10  24
TORSDOF 7
ENDMDL
MODEL 2
REMARK VINA RESULT:      -5.7      6.045      9.221
REMARK  Name = 56842854
REMARK  7 active torsions:
REMARK  status: ('A' for Active; 'I' for Inactive)
REMARK    1  A    between atoms: N_1  and  C1*_12
REMARK    2  A    between atoms: C2*_11  and  O2*_15
REMARK    3  A    between atoms: C3*_13  and  O3*_17
REMARK    4  A    between atoms: C4*_14  and  C5*_19
REMARK    5  A    between atoms: C5*_19  and  O5*_20
REMARK    6  A    between atoms: N_22  and  C_24
REMARK    7  A    between atoms: C_24  and  C_26
REMARK                            x       y       z     vdW  Elec       q    Type
REMARK                         _______ _______ _______ _____ _____    ______ ____
ROOT
ATOM      1  N   UNL     1     -34.533  25.957   4.798  0.00  0.00    -0.247 N 
ATOM      2  N   UNL     1     -32.998  27.099   5.942  0.00  0.00    -0.242 NA
ATOM      3  N   UNL     1     -34.406  27.111   2.665  0.00  0.00    -0.228 NA
ATOM      4  N   UNL     1     -32.749  28.903   2.724  0.00  0.00    -0.228 NA
ATOM      5  C   UNL     1     -34.046  26.900   3.939  0.00  0.00    +0.152 C 
ATOM      6  C   UNL     1     -33.874  26.116   5.988  0.00  0.00    +0.223 C 
ATOM      7  C   UNL     1     -33.095  27.597   4.668  0.00  0.00    +0.140 C 
ATOM      8  C   UNL     1     -32.436  28.633   4.014  0.00  0.00    +0.146 C 
ATOM      9  C   UNL     1     -33.701  28.136   2.137  0.00  0.00    +0.253 C 
ATOM     10  N   UNL     1     -31.457  29.393   4.676  0.00  0.00    -0.313 N 
ATOM     11  H   UNL     1     -31.249  29.176   5.614  0.00  0.00    +0.149 HD
ENDROOT
BRANCH   1  14
ATOM     12  O4* UNL     1     -35.985  24.212   5.693  0.00  0.00    -0.333 OA
ATOM     13  C2* UNL     1     -35.139  23.863   3.511  0.00  0.00    +0.187 C 
ATOM     14  C1* UNL     1     -35.598  24.927   4.502  0.00  0.00    +0.225 C 
ATOM     15  C3* UNL     1     -36.038  22.695   3.865  0.00  0.00    +0.171 C 
ATOM     16  C4* UNL     1     -36.130  22.808   5.382  0.00  0.00    +0.175 C 
BRANCH  13  17
ATOM     17  O2* UNL     1     -35.266  24.271   2.164  0.00  0.00    -0.378 OA
ATOM     18  H2* UNL     1     -34.638  24.987   1.982  0.00  0.00    +0.211 HD
ENDBRANCH  13  17
BRANCH  15  19
ATOM     19  O3* UNL     1     -37.345  22.894   3.329  0.00  0.00    -0.379 OA
ATOM     20  H3* UNL     1     -37.943  22.211   3.672  0.00  0.00    +0.211 HD
ENDBRANCH  15  19
BRANCH  16  21
ATOM     21  C5* UNL     1     -35.030  22.043   6.105  0.00  0.00    +0.169 C 
BRANCH  21  22
ATOM     22  O5* UNL     1     -35.183  20.662   5.831  0.00  0.00    -0.379 OA
ATOM     23  H5* UNL     1     -34.317  20.275   5.628  0.00  0.00    +0.211 HD
ENDBRANCH  21  22
ENDBRANCH  16  21
ENDBRANCH   1  14
BRANCH  10  24
ATOM     24  C   UNL     1     -30.747  30.470   4.052  0.00  0.00    +0.116 C 
BRANCH  24  26
ATOM     25 CL   UNL     1     -27.973  29.159   4.509  0.00  0.00    -0.087 Cl
ATOM     26  C   UNL     1     -29.777  31.043   5.037  0.00  0.00    +0.002 C 
ATOM     27  C   UNL     1     -28.548  30.584   5.327  0.00  0.00    +0.033 C 
ATOM     28  C   UNL     1     -27.573  31.149   6.308  0.00  0.00    +0.043 C 
ENDBRANCH  24  26
ENDBRANCH  10  24
TORSDOF 7
ENDMDL
MODEL 3
REMARK VINA RESULT:      -5.7      4.996      7.805
REMARK  Name = 56842854
REMARK  7 active torsions:
REMARK  status: ('A' for Active; 'I' for Inactive)
REMARK    1  A    between atoms: N_1  and  C1*_12
REMARK    2  A    between atoms: C2*_11  and  O2*_15
REMARK    3  A    between atoms: C3*_13  and  O3*_17
REMARK    4  A    between atoms: C4*_14  and  C5*_19
REMARK    5  A    between atoms: C5*_19  and  O5*_20
REMARK    6  A    between atoms: N_22  and  C_24
REMARK    7  A    between atoms: C_24  and  C_26
REMARK                            x       y       z     vdW  Elec       q    Type
REMARK                         _______ _______ _______ _____ _____    ______ ____
ROOT
ATOM      1  N   UNL     1     -35.710  22.651   4.001  0.00  0.00    -0.247 N 
ATOM      2  N   UNL     1     -35.077  20.516   4.109  0.00  0.00    -0.242 NA
ATOM      3  N   UNL     1     -35.491  23.030   1.611  0.00  0.00    -0.228 NA
ATOM      4  N   UNL     1     -34.720  21.019   0.463  0.00  0.00    -0.228 NA
ATOM      5  C   UNL     1     -35.418  22.278   2.720  0.00  0.00    +0.152 C 
ATOM      6  C   UNL     1     -35.490  21.560   4.799  0.00  0.00    +0.223 C 
ATOM      7  C   UNL     1     -35.028  20.952   2.809  0.00  0.00    +0.140 C 
ATOM      8  C   UNL     1     -34.670  20.320   1.622  0.00  0.00    +0.146 C 
ATOM      9  C   UNL     1     -35.122  22.311   0.528  0.00  0.00    +0.253 C 
ATOM     10  N   UNL     1     -34.262  18.975   1.619  0.00  0.00    -0.313 N 
ATOM     11  H   UNL     1     -34.234  18.491   2.475  0.00  0.00    +0.149 HD
ENDROOT
BRANCH   1  14
ATOM     12  O4* UNL     1     -37.480  24.329   3.909  0.00  0.00    -0.333 OA
ATOM     13  C2* UNL     1     -35.262  25.142   4.036  0.00  0.00    +0.187 C 
ATOM     14  C1* UNL     1     -36.187  24.008   4.462  0.00  0.00    +0.225 C 
ATOM     15  C3* UNL     1     -36.203  26.329   4.024  0.00  0.00    +0.171 C 
ATOM     16  C4* UNL     1     -37.492  25.713   3.493  0.00  0.00    +0.175 C 
BRANCH  13  17
ATOM     17  O2* UNL     1     -34.163  25.316   4.907  0.00  0.00    -0.378 OA
ATOM     18  H2* UNL     1     -33.976  24.481   5.362  0.00  0.00    +0.211 HD
ENDBRANCH  13  17
BRANCH  15  19
ATOM     19  O3* UNL     1     -36.448  26.783   5.355  0.00  0.00    -0.379 OA
ATOM     20  H3* UNL     1     -35.832  26.347   5.964  0.00  0.00    +0.211 HD
ENDBRANCH  15  19
BRANCH  16  21
ATOM     21  C5* UNL     1     -37.591  25.754   1.974  0.00  0.00    +0.169 C 
BRANCH  21  22
ATOM     22  O5* UNL     1     -38.057  24.497   1.517  0.00  0.00    -0.379 OA
ATOM     23  H5* UNL     1     -38.373  23.975   2.270  0.00  0.00    +0.211 HD
ENDBRANCH  21  22
ENDBRANCH  16  21
ENDBRANCH   1  14
BRANCH  10  24
ATOM     24  C   UNL     1     -33.883  18.276   0.427  0.00  0.00    +0.116 C 
BRANCH  24  26
ATOM     25 CL   UNL     1     -31.308  19.977   0.111  0.00  0.00    -0.087 Cl
ATOM     26  C   UNL     1     -32.529  17.671   0.634  0.00  0.00    +0.002 C 
ATOM     27  C   UNL     1     -31.341  18.290   0.537  0.00  0.00    +0.033 C 
ATOM     28  C   UNL     1     -29.985  17.694   0.741  0.00  0.00    +0.043 C 
ENDBRANCH  24  26
ENDBRANCH  10  24
TORSDOF 7
ENDMDL
MODEL 4
REMARK VINA RESULT:      -5.6      5.325      8.749
REMARK  Name = 56842854
REMARK  7 active torsions:
REMARK  status: ('A' for Active; 'I' for Inactive)
REMARK    1  A    between atoms: N_1  and  C1*_12
REMARK    2  A    between atoms: C2*_11  and  O2*_15
REMARK    3  A    between atoms: C3*_13  and  O3*_17
REMARK    4  A    between atoms: C4*_14  and  C5*_19
REMARK    5  A    between atoms: C5*_19  and  O5*_20
REMARK    6  A    between atoms: N_22  and  C_24
REMARK    7  A    between atoms: C_24  and  C_26
REMARK                            x       y       z     vdW  Elec       q    Type
REMARK                         _______ _______ _______ _____ _____    ______ ____
ROOT
ATOM      1  N   UNL     1     -35.483  25.117   3.810  0.00  0.00    -0.247 N 
ATOM      2  N   UNL     1     -33.796  25.427   5.233  0.00  0.00    -0.242 NA
ATOM      3  N   UNL     1     -35.537  27.299   2.746  0.00  0.00    -0.228 NA
ATOM      4  N   UNL     1     -33.818  28.772   3.657  0.00  0.00    -0.228 NA
ATOM      5  C   UNL     1     -35.054  26.398   3.613  0.00  0.00    +0.152 C 
ATOM      6  C   UNL     1     -34.698  24.574   4.792  0.00  0.00    +0.223 C 
ATOM      7  C   UNL     1     -34.007  26.570   4.504  0.00  0.00    +0.140 C 
ATOM      8  C   UNL     1     -33.382  27.813   4.508  0.00  0.00    +0.146 C 
ATOM      9  C   UNL     1     -34.853  28.460   2.840  0.00  0.00    +0.253 C 
ATOM     10  N   UNL     1     -32.311  28.075   5.380  0.00  0.00    -0.313 N 
ATOM     11  H   UNL     1     -32.014  27.360   5.988  0.00  0.00    +0.149 HD
ENDROOT
BRANCH   1  14
ATOM     12  O4* UNL     1     -36.930  23.154   3.703  0.00  0.00    -0.333 OA
ATOM     13  C2* UNL     1     -36.279  24.098   1.634  0.00  0.00    +0.187 C 
ATOM     14  C1* UNL     1     -36.611  24.418   3.087  0.00  0.00    +0.225 C 
ATOM     15  C3* UNL     1     -37.194  22.923   1.353  0.00  0.00    +0.171 C 
ATOM     16  C4* UNL     1     -37.159  22.165   2.675  0.00  0.00    +0.175 C 
BRANCH  13  17
ATOM     17  O2* UNL     1     -36.497  25.189   0.763  0.00  0.00    -0.378 OA
ATOM     18  H2* UNL     1     -35.647  25.593   0.532  0.00  0.00    +0.211 HD
ENDBRANCH  13  17
BRANCH  15  19
ATOM     19  O3* UNL     1     -38.532  23.374   1.141  0.00  0.00    -0.379 OA
ATOM     20  H3* UNL     1     -38.518  24.198   0.628  0.00  0.00    +0.211 HD
ENDBRANCH  15  19
BRANCH  16  21
ATOM     21  C5* UNL     1     -36.037  21.138   2.743  0.00  0.00    +0.169 C 
BRANCH  21  22
ATOM     22  O5* UNL     1     -36.605  19.841   2.691  0.00  0.00    -0.379 OA
ATOM     23  H5* UNL     1     -36.069  19.277   2.114  0.00  0.00    +0.211 HD
ENDBRANCH  21  22
ENDBRANCH  16  21
ENDBRANCH   1  14
BRANCH  10  24
ATOM     24  C   UNL     1     -31.631  29.336   5.425  0.00  0.00    +0.116 C 
BRANCH  24  26
ATOM     25 CL   UNL     1     -28.541  29.391   5.158  0.00  0.00    -0.087 Cl
ATOM     26  C   UNL     1     -30.753  29.365   6.638  0.00  0.00    +0.002 C 
ATOM     27  C   UNL     1     -29.411  29.399   6.666  0.00  0.00    +0.033 C 
ATOM     28  C   UNL     1     -28.526  29.429   7.871  0.00  0.00    +0.043 C 
ENDBRANCH  24  26
ENDBRANCH  10  24
TORSDOF 7
ENDMDL
MODEL 5
REMARK VINA RESULT:      -5.6      5.419      9.220
REMARK  Name = 56842854
REMARK  7 active torsions:
REMARK  status: ('A' for Active; 'I' for Inactive)
REMARK    1  A    between atoms: N_1  and  C1*_12
REMARK    2  A    between atoms: C2*_11  and  O2*_15
REMARK    3  A    between atoms: C3*_13  and  O3*_17
REMARK    4  A    between atoms: C4*_14  and  C5*_19
REMARK    5  A    between atoms: C5*_19  and  O5*_20
REMARK    6  A    between atoms: N_22  and  C_24
REMARK    7  A    between atoms: C_24  and  C_26
REMARK                            x       y       z     vdW  Elec       q    Type
REMARK                         _______ _______ _______ _____ _____    ______ ____
ROOT
ATOM      1  N   UNL     1     -34.856  25.376   4.090  0.00  0.00    -0.247 N 
ATOM      2  N   UNL     1     -34.230  26.417   5.959  0.00  0.00    -0.242 NA
ATOM      3  N   UNL     1     -33.450  26.528   2.479  0.00  0.00    -0.228 NA
ATOM      4  N   UNL     1     -32.059  28.214   3.564  0.00  0.00    -0.228 NA
ATOM      5  C   UNL     1     -33.914  26.290   3.715  0.00  0.00    +0.152 C 
ATOM      6  C   UNL     1     -35.012  25.489   5.446  0.00  0.00    +0.223 C 
ATOM      7  C   UNL     1     -33.539  26.926   4.888  0.00  0.00    +0.140 C 
ATOM      8  C   UNL     1     -32.573  27.922   4.783  0.00  0.00    +0.146 C 
ATOM      9  C   UNL     1     -32.522  27.509   2.504  0.00  0.00    +0.253 C 
ATOM     10  N   UNL     1     -32.132  28.618   5.921  0.00  0.00    -0.313 N 
ATOM     11  H   UNL     1     -32.523  28.385   6.794  0.00  0.00    +0.149 HD
ENDROOT
BRANCH   1  14
ATOM     12  O4* UNL     1     -36.633  25.081   2.443  0.00  0.00    -0.333 OA
ATOM     13  C2* UNL     1     -36.288  23.293   3.954  0.00  0.00    +0.187 C 
ATOM     14  C1* UNL     1     -35.594  24.414   3.188  0.00  0.00    +0.225 C 
ATOM     15  C3* UNL     1     -37.399  22.902   3.000  0.00  0.00    +0.171 C 
ATOM     16  C4* UNL     1     -37.814  24.249   2.420  0.00  0.00    +0.175 C 
BRANCH  13  17
ATOM     17  O2* UNL     1     -35.425  22.219   4.267  0.00  0.00    -0.378 OA
ATOM     18  H2* UNL     1     -35.681  21.438   3.753  0.00  0.00    +0.211 HD
ENDBRANCH  13  17
BRANCH  15  19
ATOM     19  O3* UNL     1     -36.883  22.105   1.935  0.00  0.00    -0.379 OA
ATOM     20  H3* UNL     1     -35.914  22.156   1.933  0.00  0.00    +0.211 HD
ENDBRANCH  15  19
BRANCH  16  21
ATOM     21  C5* UNL     1     -38.900  24.940   3.234  0.00  0.00    +0.169 C 
BRANCH  21  22
ATOM     22  O5* UNL     1     -38.541  26.300   3.406  0.00  0.00    -0.379 OA
ATOM     23  H5* UNL     1     -38.596  26.532   4.345  0.00  0.00    +0.211 HD
ENDBRANCH  21  22
ENDBRANCH  16  21
ENDBRANCH   1  14
BRANCH  10  24
ATOM     24  C   UNL     1     -31.141  29.651   5.871  0.00  0.00    +0.116 C 
BRANCH  24  26
ATOM     25 CL   UNL     1     -28.697  27.952   5.000  0.00  0.00    -0.087 Cl
ATOM     26  C   UNL     1     -30.049  29.319   6.840  0.00  0.00    +0.002 C 
ATOM     27  C   UNL     1     -28.939  28.604   6.596  0.00  0.00    +0.033 C 
ATOM     28  C   UNL     1     -27.844  28.268   7.557  0.00  0.00    +0.043 C 
ENDBRANCH  24  26
ENDBRANCH  10  24
TORSDOF 7
ENDMDL
MODEL 6
REMARK VINA RESULT:      -5.6      5.677      8.187
REMARK  Name = 56842854
REMARK  7 active torsions:
REMARK  status: ('A' for Active; 'I' for Inactive)
REMARK    1  A    between atoms: N_1  and  C1*_12
REMARK    2  A    between atoms: C2*_11  and  O2*_15
REMARK    3  A    between atoms: C3*_13  and  O3*_17
REMARK    4  A    between atoms: C4*_14  and  C5*_19
REMARK    5  A    between atoms: C5*_19  and  O5*_20
REMARK    6  A    between atoms: N_22  and  C_24
REMARK    7  A    between atoms: C_24  and  C_26
REMARK                            x       y       z     vdW  Elec       q    Type
REMARK                         _______ _______ _______ _____ _____    ______ ____
ROOT
ATOM      1  N   UNL     1     -34.619  25.884   4.586  0.00  0.00    -0.247 N 
ATOM      2  N   UNL     1     -33.093  27.142   5.614  0.00  0.00    -0.242 NA
ATOM      3  N   UNL     1     -34.531  26.857   2.362  0.00  0.00    -0.228 NA
ATOM      4  N   UNL     1     -32.904  28.673   2.253  0.00  0.00    -0.228 NA
ATOM      5  C   UNL     1     -34.156  26.759   3.646  0.00  0.00    +0.152 C 
ATOM      6  C   UNL     1     -33.953  26.152   5.751  0.00  0.00    +0.223 C 
ATOM      7  C   UNL     1     -33.210  27.530   4.303  0.00  0.00    +0.140 C 
ATOM      8  C   UNL     1     -32.574  28.518   3.558  0.00  0.00    +0.146 C 
ATOM      9  C   UNL     1     -33.847  27.845   1.744  0.00  0.00    +0.253 C 
ATOM     10  N   UNL     1     -31.602  29.345   4.144  0.00  0.00    -0.313 N 
ATOM     11  H   UNL     1     -31.381  29.211   5.095  0.00  0.00    +0.149 HD
ENDROOT
BRANCH   1  14
ATOM     12  O4* UNL     1     -35.966  24.133   5.623  0.00  0.00    -0.333 OA
ATOM     13  C2* UNL     1     -35.240  23.732   3.408  0.00  0.00    +0.187 C 
ATOM     14  C1* UNL     1     -35.670  24.816   4.388  0.00  0.00    +0.225 C 
ATOM     15  C3* UNL     1     -36.082  22.553   3.853  0.00  0.00    +0.171 C 
ATOM     16  C4* UNL     1     -36.089  22.716   5.368  0.00  0.00    +0.175 C 
BRANCH  13  17
ATOM     17  O2* UNL     1     -35.457  24.088   2.058  0.00  0.00    -0.378 OA
ATOM     18  H2* UNL     1     -36.254  24.636   1.992  0.00  0.00    +0.211 HD
ENDBRANCH  13  17
BRANCH  15  19
ATOM     19  O3* UNL     1     -37.424  22.698   3.389  0.00  0.00    -0.379 OA
ATOM     20  H3* UNL     1     -37.887  21.849   3.467  0.00  0.00    +0.211 HD
ENDBRANCH  15  19
BRANCH  16  21
ATOM     21  C5* UNL     1     -34.926  22.007   6.049  0.00  0.00    +0.169 C 
BRANCH  21  22
ATOM     22  O5* UNL     1     -35.092  20.609   5.889  0.00  0.00    -0.379 OA
ATOM     23  H5* UNL     1     -35.401  20.223   6.723  0.00  0.00    +0.211 HD
ENDBRANCH  21  22
ENDBRANCH  16  21
ENDBRANCH   1  14
BRANCH  10  24
ATOM     24  C   UNL     1     -30.915  30.377   3.425  0.00  0.00    +0.116 C 
BRANCH  24  26
ATOM     25 CL   UNL     1     -31.820  31.748   0.793  0.00  0.00    -0.087 Cl
ATOM     26  C   UNL     1     -31.750  31.619   3.450  0.00  0.00    +0.002 C 
ATOM     27  C   UNL     1     -32.214  32.307   2.394  0.00  0.00    +0.033 C 
ATOM     28  C   UNL     1     -33.048  33.547   2.410  0.00  0.00    +0.043 C 
ENDBRANCH  24  26
ENDBRANCH  10  24
TORSDOF 7
ENDMDL
MODEL 7
REMARK VINA RESULT:      -5.6      5.340      7.013
REMARK  Name = 56842854
REMARK  7 active torsions:
REMARK  status: ('A' for Active; 'I' for Inactive)
REMARK    1  A    between atoms: N_1  and  C1*_12
REMARK    2  A    between atoms: C2*_11  and  O2*_15
REMARK    3  A    between atoms: C3*_13  and  O3*_17
REMARK    4  A    between atoms: C4*_14  and  C5*_19
REMARK    5  A    between atoms: C5*_19  and  O5*_20
REMARK    6  A    between atoms: N_22  and  C_24
REMARK    7  A    between atoms: C_24  and  C_26
REMARK                            x       y       z     vdW  Elec       q    Type
REMARK                         _______ _______ _______ _____ _____    ______ ____
ROOT
ATOM      1  N   UNL     1     -35.499  27.687   2.307  0.00  0.00    -0.247 N 
ATOM      2  N   UNL     1     -36.994  28.836   1.118  0.00  0.00    -0.242 NA
ATOM      3  N   UNL     1     -34.184  29.520   3.207  0.00  0.00    -0.228 NA
ATOM      4  N   UNL     1     -35.038  31.677   2.452  0.00  0.00    -0.228 NA
ATOM      5  C   UNL     1     -35.185  29.004   2.478  0.00  0.00    +0.152 C 
ATOM      6  C   UNL     1     -36.592  27.636   1.483  0.00  0.00    +0.223 C 
ATOM      7  C   UNL     1     -36.123  29.700   1.733  0.00  0.00    +0.140 C 
ATOM      8  C   UNL     1     -36.026  31.088   1.736  0.00  0.00    +0.146 C 
ATOM      9  C   UNL     1     -34.192  30.868   3.134  0.00  0.00    +0.253 C 
ATOM     10  N   UNL     1     -36.936  31.873   1.008  0.00  0.00    -0.313 N 
ATOM     11  H   UNL     1     -37.644  31.420   0.496  0.00  0.00    +0.149 HD
ENDROOT
BRANCH   1  14
ATOM     12  O4* UNL     1     -35.194  25.265   2.286  0.00  0.00    -0.333 OA
ATOM     13  C2* UNL     1     -35.066  26.326   4.397  0.00  0.00    +0.187 C 
ATOM     14  C1* UNL     1     -34.784  26.500   2.909  0.00  0.00    +0.225 C 
ATOM     15  C3* UNL     1     -34.817  24.844   4.594  0.00  0.00    +0.171 C 
ATOM     16  C4* UNL     1     -35.365  24.251   3.301  0.00  0.00    +0.175 C 
BRANCH  13  17
ATOM     17  O2* UNL     1     -34.247  27.138   5.214  0.00  0.00    -0.378 OA
ATOM     18  H2* UNL     1     -34.689  27.292   6.062  0.00  0.00    +0.211 HD
ENDBRANCH  13  17
BRANCH  15  19
ATOM     19  O3* UNL     1     -33.415  24.577   4.640  0.00  0.00    -0.379 OA
ATOM     20  H3* UNL     1     -32.940  25.388   4.879  0.00  0.00    +0.211 HD
ENDBRANCH  15  19
BRANCH  16  21
ATOM     21  C5* UNL     1     -36.846  23.905   3.385  0.00  0.00    +0.169 C 
BRANCH  21  22
ATOM     22  O5* UNL     1     -36.975  22.581   3.873  0.00  0.00    -0.379 OA
ATOM     23  H5* UNL     1     -36.681  21.956   3.192  0.00  0.00    +0.211 HD
ENDBRANCH  21  22
ENDBRANCH  16  21
ENDBRANCH   1  14
BRANCH  10  24
ATOM     24  C   UNL     1     -36.882  33.305   0.976  0.00  0.00    +0.116 C 
BRANCH  24  26
ATOM     25 CL   UNL     1     -37.498  36.345   1.033  0.00  0.00    -0.087 Cl
ATOM     26  C   UNL     1     -38.007  33.848   1.801  0.00  0.00    +0.002 C 
ATOM     27  C   UNL     1     -38.386  35.132   1.911  0.00  0.00    +0.033 C 
ATOM     28  C   UNL     1     -39.506  35.683   2.733  0.00  0.00    +0.043 C 
ENDBRANCH  24  26
ENDBRANCH  10  24
TORSDOF 7
ENDMDL
MODEL 8
REMARK VINA RESULT:      -5.6      4.852      7.951
REMARK  Name = 56842854
REMARK  7 active torsions:
REMARK  status: ('A' for Active; 'I' for Inactive)
REMARK    1  A    between atoms: N_1  and  C1*_12
REMARK    2  A    between atoms: C2*_11  and  O2*_15
REMARK    3  A    between atoms: C3*_13  and  O3*_17
REMARK    4  A    between atoms: C4*_14  and  C5*_19
REMARK    5  A    between atoms: C5*_19  and  O5*_20
REMARK    6  A    between atoms: N_22  and  C_24
REMARK    7  A    between atoms: C_24  and  C_26
REMARK                            x       y       z     vdW  Elec       q    Type
REMARK                         _______ _______ _______ _____ _____    ______ ____
ROOT
ATOM      1  N   UNL     1     -38.809  22.959   2.077  0.00  0.00    -0.247 N 
ATOM      2  N   UNL     1     -37.965  21.439   0.681  0.00  0.00    -0.242 NA
ATOM      3  N   UNL     1     -37.072  22.977   3.774  0.00  0.00    -0.228 NA
ATOM      4  N   UNL     1     -35.281  21.413   3.225  0.00  0.00    -0.228 NA
ATOM      5  C   UNL     1     -37.627  22.556   2.628  0.00  0.00    +0.152 C 
ATOM      6  C   UNL     1     -38.970  22.261   0.910  0.00  0.00    +0.223 C 
ATOM      7  C   UNL     1     -37.119  21.614   1.748  0.00  0.00    +0.140 C 
ATOM      8  C   UNL     1     -35.899  21.035   2.081  0.00  0.00    +0.146 C 
ATOM      9  C   UNL     1     -35.896  22.348   3.989  0.00  0.00    +0.253 C 
ATOM     10  N   UNL     1     -35.310  20.070   1.245  0.00  0.00    -0.313 N 
ATOM     11  H   UNL     1     -35.781  19.813   0.420  0.00  0.00    +0.149 HD
ENDROOT
BRANCH   1  14
ATOM     12  O4* UNL     1     -40.994  24.029   1.880  0.00  0.00    -0.333 OA
ATOM     13  C2* UNL     1     -39.210  25.400   2.612  0.00  0.00    +0.187 C 
ATOM     14  C1* UNL     1     -39.769  23.982   2.639  0.00  0.00    +0.225 C 
ATOM     15  C3* UNL     1     -40.474  26.236   2.592  0.00  0.00    +0.171 C 
ATOM     16  C4* UNL     1     -41.393  25.407   1.702  0.00  0.00    +0.175 C 
BRANCH  13  17
ATOM     17  O2* UNL     1     -38.376  25.686   3.716  0.00  0.00    -0.378 OA
ATOM     18  H2* UNL     1     -38.900  26.099   4.419  0.00  0.00    +0.211 HD
ENDBRANCH  13  17
BRANCH  15  19
ATOM     19  O3* UNL     1     -41.055  26.291   3.894  0.00  0.00    -0.379 OA
ATOM     20  H3* UNL     1     -40.470  26.787   4.488  0.00  0.00    +0.211 HD
ENDBRANCH  15  19
BRANCH  16  21
ATOM     21  C5* UNL     1     -41.266  25.754   0.225  0.00  0.00    +0.169 C 
BRANCH  21  22
ATOM     22  O5* UNL     1     -41.300  24.553  -0.527  0.00  0.00    -0.379 OA
ATOM     23  H5* UNL     1     -42.181  24.155  -0.460  0.00  0.00    +0.211 HD
ENDBRANCH  21  22
ENDBRANCH  16  21
ENDBRANCH   1  14
BRANCH  10  24
ATOM     24  C   UNL     1     -34.056  19.442   1.539  0.00  0.00    +0.116 C 
BRANCH  24  26
ATOM     25 CL   UNL     1     -31.324  18.031   1.133  0.00  0.00    -0.087 Cl
ATOM     26  C   UNL     1     -32.999  20.045   0.666  0.00  0.00    +0.002 C 
ATOM     27  C   UNL     1     -31.783  19.541   0.399  0.00  0.00    +0.033 C 
ATOM     28  C   UNL     1     -30.723  20.135  -0.470  0.00  0.00    +0.043 C 
ENDBRANCH  24  26
ENDBRANCH  10  24
TORSDOF 7
ENDMDL
MODEL 9
REMARK VINA RESULT:      -5.5      6.055      8.480
REMARK  Name = 56842854
REMARK  7 active torsions:
REMARK  status: ('A' for Active; 'I' for Inactive)
REMARK    1  A    between atoms: N_1  and  C1*_12
REMARK    2  A    between atoms: C2*_11  and  O2*_15
REMARK    3  A    between atoms: C3*_13  and  O3*_17
REMARK    4  A    between atoms: C4*_14  and  C5*_19
REMARK    5  A    between atoms: C5*_19  and  O5*_20
REMARK    6  A    between atoms: N_22  and  C_24
REMARK    7  A    between atoms: C_24  and  C_26
REMARK                            x       y       z     vdW  Elec       q    Type
REMARK                         _______ _______ _______ _____ _____    ______ ____
ROOT
ATOM      1  N   UNL     1     -31.533  28.744   3.863  0.00  0.00    -0.247 N 
ATOM      2  N   UNL     1     -33.243  27.897   2.712  0.00  0.00    -0.242 NA
ATOM      3  N   UNL     1     -31.980  27.778   6.046  0.00  0.00    -0.228 NA
ATOM      4  N   UNL     1     -33.987  26.390   6.006  0.00  0.00    -0.228 NA
ATOM      5  C   UNL     1     -32.243  27.983   4.747  0.00  0.00    +0.152 C 
ATOM      6  C   UNL     1     -32.172  28.662   2.655  0.00  0.00    +0.223 C 
ATOM      7  C   UNL     1     -33.299  27.467   4.014  0.00  0.00    +0.140 C 
ATOM      8  C   UNL     1     -34.191  26.642   4.691  0.00  0.00    +0.146 C 
ATOM      9  C   UNL     1     -32.909  26.965   6.593  0.00  0.00    +0.253 C 
ATOM     10  N   UNL     1     -35.291  26.074   4.025  0.00  0.00    -0.313 N 
ATOM     11  H   UNL     1     -35.416  26.274   3.069  0.00  0.00    +0.149 HD
ENDROOT
BRANCH   1  14
ATOM     12  O4* UNL     1     -29.229  28.686   4.666  0.00  0.00    -0.333 OA
ATOM     13  C2* UNL     1     -30.484  30.619   5.201  0.00  0.00    +0.187 C 
ATOM     14  C1* UNL     1     -30.277  29.533   4.152  0.00  0.00    +0.225 C 
ATOM     15  C3* UNL     1     -29.083  30.793   5.754  0.00  0.00    +0.171 C 
ATOM     16  C4* UNL     1     -28.556  29.363   5.751  0.00  0.00    +0.175 C 
BRANCH  13  17
ATOM     17  O2* UNL     1     -31.018  31.812   4.665  0.00  0.00    -0.378 OA
ATOM     18  H2* UNL     1     -30.320  32.481   4.605  0.00  0.00    +0.211 HD
ENDBRANCH  13  17
BRANCH  15  19
ATOM     19  O3* UNL     1     -28.284  31.558   4.852  0.00  0.00    -0.379 OA
ATOM     20  H3* UNL     1     -27.456  31.085   4.673  0.00  0.00    +0.211 HD
ENDBRANCH  15  19
BRANCH  16  21
ATOM     21  C5* UNL     1     -28.858  28.613   7.041  0.00  0.00    +0.169 C 
BRANCH  21  22
ATOM     22  O5* UNL     1     -29.202  27.277   6.719  0.00  0.00    -0.379 OA
ATOM     23  H5* UNL     1     -28.431  26.827   6.342  0.00  0.00    +0.211 HD
ENDBRANCH  21  22
ENDBRANCH  16  21
ENDBRANCH   1  14
BRANCH  10  24
ATOM     24  C   UNL     1     -36.240  25.218   4.673  0.00  0.00    +0.116 C 
BRANCH  24  26
ATOM     25 CL   UNL     1     -34.918  22.760   6.025  0.00  0.00    -0.087 Cl
ATOM     26  C   UNL     1     -36.224  23.882   3.997  0.00  0.00    +0.002 C 
ATOM     27  C   UNL     1     -35.696  22.741   4.469  0.00  0.00    +0.033 C 
ATOM     28  C   UNL     1     -35.676  21.403   3.801  0.00  0.00    +0.043 C 
ENDBRANCH  24  26
ENDBRANCH  10  24
TORSDOF 7
ENDMDL
