MODEL 1
REMARK VINA RESULT:      -6.3      0.000      0.000
REMARK  Name = 195274
REMARK  12 active torsions:
REMARK  status: ('A' for Active; 'I' for Inactive)
REMARK    1  A    between atoms: C_2  and  C_28
REMARK    2  A    between atoms: C_3  and  O_7
REMARK    3  A    between atoms: C_4  and  O_9
REMARK    4  A    between atoms: C_6  and  C_12
REMARK    5  A    between atoms: C_12  and  O_13
REMARK    6  A    between atoms: O_13  and  C_14
REMARK    7  A    between atoms: C_14  and  C_15
REMARK    8  A    between atoms: C_19  and  S_25
REMARK    9  A    between atoms: S_25  and  S_26
REMARK   10  A    between atoms: C_28  and  O_29
REMARK   11  A    between atoms: C_28  and  C_31
REMARK   12  A    between atoms: C_31  and  N_32
REMARK                            x       y       z     vdW  Elec       q    Type
REMARK                         _______ _______ _______ _____ _____    ______ ____
ROOT
ATOM      1  O   UNL     1     -36.480  23.206   4.319  0.00  0.00    -0.343 OA
ATOM      2  C   UNL     1     -36.382  24.606   4.022  0.00  0.00    +0.169 C 
ATOM      3  C   UNL     1     -37.654  25.098   3.323  0.00  0.00    +0.167 C 
ATOM      4  C   UNL     1     -37.906  24.271   2.062  0.00  0.00    +0.143 C 
ATOM      5  C   UNL     1     -37.915  22.776   2.377  0.00  0.00    +0.073 C 
ATOM      6  C   UNL     1     -36.692  22.366   3.192  0.00  0.00    +0.216 C 
ENDROOT
BRANCH   3   7
ATOM      7  O   UNL     1     -38.773  24.995   4.206  0.00  0.00    -0.379 OA
ATOM      8  H   UNL     1     -38.518  24.493   4.994  0.00  0.00    +0.211 HD
ENDBRANCH   3   7
BRANCH   4   9
ATOM      9  O   UNL     1     -39.141  24.657   1.471  0.00  0.00    -0.382 OA
ATOM     10  H   UNL     1     -39.448  23.955   0.877  0.00  0.00    +0.210 HD
ENDBRANCH   4   9
BRANCH   6  12
ATOM     11  O   UNL     1     -34.657  23.208   2.211  0.00  0.00    -0.247 OA
ATOM     12  C   UNL     1     -35.446  22.285   2.356  0.00  0.00    +0.345 C 
BRANCH  12  13
ATOM     13  O   UNL     1     -35.349  21.043   1.803  0.00  0.00    -0.442 OA
BRANCH  13  14
ATOM     14  C   UNL     1     -34.759  20.993   0.500  0.00  0.00    +0.235 C 
BRANCH  14  15
ATOM     15  C   UNL     1     -33.506  20.170   0.559  0.00  0.00    +0.022 C 
ATOM     16  C   UNL     1     -32.268  20.505  -0.008  0.00  0.00    +0.006 C 
ATOM     17  C   UNL     1     -31.180  19.612   0.137  0.00  0.00    +0.000 C 
ATOM     18  C   UNL     1     -33.675  18.977   1.258  0.00  0.00    -0.001 C 
ATOM     19  C   UNL     1     -32.084  21.704  -0.715  0.00  0.00    +0.035 C 
ATOM     20  C   UNL     1     -31.364  18.413   0.845  0.00  0.00    -0.000 C 
ATOM     21  C   UNL     1     -32.605  18.099   1.401  0.00  0.00    -0.000 C 
ATOM     22  C   UNL     1     -29.939  19.945  -0.429  0.00  0.00    +0.000 C 
ATOM     23  C   UNL     1     -30.843  22.019  -1.271  0.00  0.00    +0.007 C 
ATOM     24  C   UNL     1     -29.773  21.141  -1.129  0.00  0.00    +0.001 C 
BRANCH  19  25
ATOM     25  S   UNL     1     -33.304  22.994  -1.035  0.00  0.00    -0.055 S 
BRANCH  25  26
ATOM     26  S   UNL     1     -32.109  24.659  -1.153  0.00  0.00    -0.077 S 
ATOM     27  C   UNL     1     -32.175  25.283   0.543  0.00  0.00    +0.081 C 
ENDBRANCH  25  26
ENDBRANCH  19  25
ENDBRANCH  14  15
ENDBRANCH  13  14
ENDBRANCH  12  13
ENDBRANCH   6  12
BRANCH   2  28
ATOM     28  C   UNL     1     -36.130  25.331   5.341  0.00  0.00    +0.118 C 
BRANCH  28  29
ATOM     29  O   UNL     1     -36.636  26.658   5.205  0.00  0.00    -0.384 OA
ATOM     30  H   UNL     1     -35.994  27.287   5.572  0.00  0.00    +0.210 HD
ENDBRANCH  28  29
BRANCH  28  31
ATOM     31  C   UNL     1     -34.646  25.404   5.709  0.00  0.00    -0.054 C 
BRANCH  31  32
ATOM     32  N   UNL     1     -33.810  24.680   4.761  0.00  0.00    +0.382 N 
ATOM     33  H   UNL     1     -34.354  24.462   3.926  0.00  0.00    -0.089 HD
ATOM     34  H   UNL     1     -33.482  23.814   5.189  0.00  0.00    -0.089 HD
ATOM     35  H   UNL     1     -33.009  25.257   4.504  0.00  0.00    -0.089 HD
ENDBRANCH  31  32
ENDBRANCH  28  31
ENDBRANCH   2  28
TORSDOF 12
ENDMDL
MODEL 2
REMARK VINA RESULT:      -6.2      2.100      3.372
REMARK  Name = 195274
REMARK  12 active torsions:
REMARK  status: ('A' for Active; 'I' for Inactive)
REMARK    1  A    between atoms: C_2  and  C_28
REMARK    2  A    between atoms: C_3  and  O_7
REMARK    3  A    between atoms: C_4  and  O_9
REMARK    4  A    between atoms: C_6  and  C_12
REMARK    5  A    between atoms: C_12  and  O_13
REMARK    6  A    between atoms: O_13  and  C_14
REMARK    7  A    between atoms: C_14  and  C_15
REMARK    8  A    between atoms: C_19  and  S_25
REMARK    9  A    between atoms: S_25  and  S_26
REMARK   10  A    between atoms: C_28  and  O_29
REMARK   11  A    between atoms: C_28  and  C_31
REMARK   12  A    between atoms: C_31  and  N_32
REMARK                            x       y       z     vdW  Elec       q    Type
REMARK                         _______ _______ _______ _____ _____    ______ ____
ROOT
ATOM      1  O   UNL     1     -35.546  23.919   2.924  0.00  0.00    -0.343 OA
ATOM      2  C   UNL     1     -35.430  25.130   3.685  0.00  0.00    +0.169 C 
ATOM      3  C   UNL     1     -36.783  25.846   3.765  0.00  0.00    +0.167 C 
ATOM      4  C   UNL     1     -37.312  26.113   2.356  0.00  0.00    +0.143 C 
ATOM      5  C   UNL     1     -37.343  24.831   1.527  0.00  0.00    +0.073 C 
ATOM      6  C   UNL     1     -36.011  24.088   1.592  0.00  0.00    +0.216 C 
ENDROOT
BRANCH   3   7
ATOM      7  O   UNL     1     -37.719  25.051   4.495  0.00  0.00    -0.379 OA
ATOM      8  H   UNL     1     -38.445  24.787   3.910  0.00  0.00    +0.211 HD
ENDBRANCH   3   7
BRANCH   4   9
ATOM      9  O   UNL     1     -38.613  26.683   2.431  0.00  0.00    -0.382 OA
ATOM     10  H   UNL     1     -38.617  27.542   1.980  0.00  0.00    +0.210 HD
ENDBRANCH   4   9
BRANCH   6  12
ATOM     11  O   UNL     1     -35.053  25.845   0.249  0.00  0.00    -0.247 OA
ATOM     12  C   UNL     1     -34.952  24.731   0.743  0.00  0.00    +0.345 C 
BRANCH  12  13
ATOM     13  O   UNL     1     -33.891  23.884   0.620  0.00  0.00    -0.442 OA
BRANCH  13  14
ATOM     14  C   UNL     1     -34.201  22.575   0.133  0.00  0.00    +0.235 C 
BRANCH  14  15
ATOM     15  C   UNL     1     -32.924  21.839  -0.147  0.00  0.00    +0.022 C 
ATOM     16  C   UNL     1     -32.603  20.544   0.284  0.00  0.00    +0.006 C 
ATOM     17  C   UNL     1     -31.348  19.993  -0.067  0.00  0.00    +0.000 C 
ATOM     18  C   UNL     1     -32.028  22.584  -0.911  0.00  0.00    -0.001 C 
ATOM     19  C   UNL     1     -33.497  19.783   1.054  0.00  0.00    +0.035 C 
ATOM     20  C   UNL     1     -30.454  20.754  -0.838  0.00  0.00    -0.000 C 
ATOM     21  C   UNL     1     -30.793  22.042  -1.256  0.00  0.00    -0.000 C 
ATOM     22  C   UNL     1     -31.023  18.696   0.362  0.00  0.00    +0.000 C 
ATOM     23  C   UNL     1     -33.158  18.495   1.472  0.00  0.00    +0.007 C 
ATOM     24  C   UNL     1     -31.923  17.954   1.127  0.00  0.00    +0.001 C 
BRANCH  19  25
ATOM     25  S   UNL     1     -35.141  20.258   1.625  0.00  0.00    -0.055 S 
BRANCH  25  26
ATOM     26  S   UNL     1     -36.336  19.305   0.254  0.00  0.00    -0.077 S 
ATOM     27  C   UNL     1     -37.799  20.368   0.237  0.00  0.00    +0.081 C 
ENDBRANCH  25  26
ENDBRANCH  19  25
ENDBRANCH  14  15
ENDBRANCH  13  14
ENDBRANCH  12  13
ENDBRANCH   6  12
BRANCH   2  28
ATOM     28  C   UNL     1     -34.895  24.749   5.062  0.00  0.00    +0.118 C 
BRANCH  28  29
ATOM     29  O   UNL     1     -33.568  25.264   5.164  0.00  0.00    -0.384 OA
ATOM     30  H   UNL     1     -33.110  24.832   5.902  0.00  0.00    +0.210 HD
ENDBRANCH  28  29
BRANCH  28  31
ATOM     31  C   UNL     1     -34.855  23.236   5.290  0.00  0.00    -0.054 C 
BRANCH  31  32
ATOM     32  N   UNL     1     -36.173  22.692   5.588  0.00  0.00    +0.382 N 
ATOM     33  H   UNL     1     -36.890  23.323   5.228  0.00  0.00    -0.089 HD
ATOM     34  H   UNL     1     -36.281  22.595   6.597  0.00  0.00    -0.089 HD
ATOM     35  H   UNL     1     -36.272  21.778   5.146  0.00  0.00    -0.089 HD
ENDBRANCH  31  32
ENDBRANCH  28  31
ENDBRANCH   2  28
TORSDOF 12
ENDMDL
MODEL 3
REMARK VINA RESULT:      -6.1      1.666      2.691
REMARK  Name = 195274
REMARK  12 active torsions:
REMARK  status: ('A' for Active; 'I' for Inactive)
REMARK    1  A    between atoms: C_2  and  C_28
REMARK    2  A    between atoms: C_3  and  O_7
REMARK    3  A    between atoms: C_4  and  O_9
REMARK    4  A    between atoms: C_6  and  C_12
REMARK    5  A    between atoms: C_12  and  O_13
REMARK    6  A    between atoms: O_13  and  C_14
REMARK    7  A    between atoms: C_14  and  C_15
REMARK    8  A    between atoms: C_19  and  S_25
REMARK    9  A    between atoms: S_25  and  S_26
REMARK   10  A    between atoms: C_28  and  O_29
REMARK   11  A    between atoms: C_28  and  C_31
REMARK   12  A    between atoms: C_31  and  N_32
REMARK                            x       y       z     vdW  Elec       q    Type
REMARK                         _______ _______ _______ _____ _____    ______ ____
ROOT
ATOM      1  O   UNL     1     -36.653  23.496   2.325  0.00  0.00    -0.343 OA
ATOM      2  C   UNL     1     -37.564  23.717   3.411  0.00  0.00    +0.169 C 
ATOM      3  C   UNL     1     -36.996  24.751   4.389  0.00  0.00    +0.167 C 
ATOM      4  C   UNL     1     -35.625  24.294   4.887  0.00  0.00    +0.143 C 
ATOM      5  C   UNL     1     -34.693  23.974   3.720  0.00  0.00    +0.073 C 
ATOM      6  C   UNL     1     -35.359  23.047   2.707  0.00  0.00    +0.216 C 
ENDROOT
BRANCH   3   7
ATOM      7  O   UNL     1     -36.883  26.024   3.749  0.00  0.00    -0.379 OA
ATOM      8  H   UNL     1     -36.338  26.612   4.294  0.00  0.00    +0.211 HD
ENDBRANCH   3   7
BRANCH   4   9
ATOM      9  O   UNL     1     -35.052  25.302   5.712  0.00  0.00    -0.382 OA
ATOM     10  H   UNL     1     -34.483  25.875   5.174  0.00  0.00    +0.210 HD
ENDBRANCH   4   9
BRANCH   6  12
ATOM     11  O   UNL     1     -35.270  21.284   4.348  0.00  0.00    -0.247 OA
ATOM     12  C   UNL     1     -35.418  21.623   3.183  0.00  0.00    +0.345 C 
BRANCH  12  13
ATOM     13  O   UNL     1     -35.655  20.798   2.124  0.00  0.00    -0.442 OA
BRANCH  13  14
ATOM     14  C   UNL     1     -34.977  21.142   0.912  0.00  0.00    +0.235 C 
BRANCH  14  15
ATOM     15  C   UNL     1     -33.725  20.323   0.801  0.00  0.00    +0.022 C 
ATOM     16  C   UNL     1     -32.548  20.694   0.134  0.00  0.00    +0.006 C 
ATOM     17  C   UNL     1     -31.452  19.801   0.121  0.00  0.00    +0.000 C 
ATOM     18  C   UNL     1     -33.825  19.092   1.446  0.00  0.00    -0.001 C 
ATOM     19  C   UNL     1     -32.435  21.932  -0.521  0.00  0.00    +0.035 C 
ATOM     20  C   UNL     1     -31.566  18.563   0.777  0.00  0.00    -0.000 C 
ATOM     21  C   UNL     1     -32.746  18.212   1.434  0.00  0.00    -0.000 C 
ATOM     22  C   UNL     1     -30.272  20.170  -0.545  0.00  0.00    +0.000 C 
ATOM     23  C   UNL     1     -31.255  22.282  -1.178  0.00  0.00    +0.007 C 
ATOM     24  C   UNL     1     -30.176  21.403  -1.190  0.00  0.00    +0.001 C 
BRANCH  19  25
ATOM     25  S   UNL     1     -33.679  23.231  -0.646  0.00  0.00    -0.055 S 
BRANCH  25  26
ATOM     26  S   UNL     1     -32.761  24.769   0.357  0.00  0.00    -0.077 S 
ATOM     27  C   UNL     1     -32.453  25.950  -0.978  0.00  0.00    +0.081 C 
ENDBRANCH  25  26
ENDBRANCH  19  25
ENDBRANCH  14  15
ENDBRANCH  13  14
ENDBRANCH  12  13
ENDBRANCH   6  12
BRANCH   2  28
ATOM     28  C   UNL     1     -38.891  24.162   2.803  0.00  0.00    +0.118 C 
BRANCH  28  29
ATOM     29  O   UNL     1     -39.650  24.782   3.840  0.00  0.00    -0.384 OA
ATOM     30  H   UNL     1     -40.279  25.409   3.449  0.00  0.00    +0.210 HD
ENDBRANCH  28  29
BRANCH  28  31
ATOM     31  C   UNL     1     -39.703  23.002   2.223  0.00  0.00    -0.054 C 
BRANCH  31  32
ATOM     32  N   UNL     1     -38.966  21.747   2.257  0.00  0.00    +0.382 N 
ATOM     33  H   UNL     1     -37.996  21.928   2.518  0.00  0.00    -0.089 HD
ATOM     34  H   UNL     1     -38.994  21.311   1.335  0.00  0.00    -0.089 HD
ATOM     35  H   UNL     1     -39.390  21.121   2.941  0.00  0.00    -0.089 HD
ENDBRANCH  31  32
ENDBRANCH  28  31
ENDBRANCH   2  28
TORSDOF 12
ENDMDL
MODEL 4
REMARK VINA RESULT:      -6.1      4.015      6.460
REMARK  Name = 195274
REMARK  12 active torsions:
REMARK  status: ('A' for Active; 'I' for Inactive)
REMARK    1  A    between atoms: C_2  and  C_28
REMARK    2  A    between atoms: C_3  and  O_7
REMARK    3  A    between atoms: C_4  and  O_9
REMARK    4  A    between atoms: C_6  and  C_12
REMARK    5  A    between atoms: C_12  and  O_13
REMARK    6  A    between atoms: O_13  and  C_14
REMARK    7  A    between atoms: C_14  and  C_15
REMARK    8  A    between atoms: C_19  and  S_25
REMARK    9  A    between atoms: S_25  and  S_26
REMARK   10  A    between atoms: C_28  and  O_29
REMARK   11  A    between atoms: C_28  and  C_31
REMARK   12  A    between atoms: C_31  and  N_32
REMARK                            x       y       z     vdW  Elec       q    Type
REMARK                         _______ _______ _______ _____ _____    ______ ____
ROOT
ATOM      1  O   UNL     1     -33.421  28.782   4.346  0.00  0.00    -0.343 OA
ATOM      2  C   UNL     1     -31.994  28.755   4.481  0.00  0.00    +0.169 C 
ATOM      3  C   UNL     1     -31.321  28.894   3.111  0.00  0.00    +0.167 C 
ATOM      4  C   UNL     1     -31.819  27.793   2.175  0.00  0.00    +0.143 C 
ATOM      5  C   UNL     1     -33.345  27.772   2.112  0.00  0.00    +0.073 C 
ATOM      6  C   UNL     1     -33.965  27.772   3.507  0.00  0.00    +0.216 C 
ENDROOT
BRANCH   3   7
ATOM      7  O   UNL     1     -31.605  30.177   2.550  0.00  0.00    -0.379 OA
ATOM      8  H   UNL     1     -32.255  30.081   1.838  0.00  0.00    +0.211 HD
ENDBRANCH   3   7
BRANCH   4   9
ATOM      9  O   UNL     1     -31.275  27.984   0.875  0.00  0.00    -0.382 OA
ATOM     10  H   UNL     1     -30.343  27.715   0.872  0.00  0.00    +0.210 HD
ENDBRANCH   4   9
BRANCH   6  12
ATOM     11  O   UNL     1     -33.046  25.576   3.889  0.00  0.00    -0.247 OA
ATOM     12  C   UNL     1     -33.874  26.429   4.175  0.00  0.00    +0.345 C 
BRANCH  12  13
ATOM     13  O   UNL     1     -34.845  26.327   5.126  0.00  0.00    -0.442 OA
BRANCH  13  14
ATOM     14  C   UNL     1     -36.024  25.621   4.729  0.00  0.00    +0.235 C 
BRANCH  14  15
ATOM     15  C   UNL     1     -35.752  24.146   4.774  0.00  0.00    +0.022 C 
ATOM     16  C   UNL     1     -35.820  23.257   3.691  0.00  0.00    +0.006 C 
ATOM     17  C   UNL     1     -35.534  21.888   3.904  0.00  0.00    +0.000 C 
ATOM     18  C   UNL     1     -35.409  23.698   6.048  0.00  0.00    -0.001 C 
ATOM     19  C   UNL     1     -36.165  23.696   2.402  0.00  0.00    +0.035 C 
ATOM     20  C   UNL     1     -35.189  21.451   5.194  0.00  0.00    -0.000 C 
ATOM     21  C   UNL     1     -35.128  22.351   6.258  0.00  0.00    -0.000 C 
ATOM     22  C   UNL     1     -35.600  20.997   2.822  0.00  0.00    +0.000 C 
ATOM     23  C   UNL     1     -36.226  22.795   1.338  0.00  0.00    +0.007 C 
ATOM     24  C   UNL     1     -35.944  21.449   1.548  0.00  0.00    +0.001 C 
BRANCH  19  25
ATOM     25  S   UNL     1     -36.570  25.374   1.879  0.00  0.00    -0.055 S 
BRANCH  25  26
ATOM     26  S   UNL     1     -38.576  25.200   1.480  0.00  0.00    -0.077 S 
ATOM     27  C   UNL     1     -39.230  24.693   3.088  0.00  0.00    +0.081 C 
ENDBRANCH  25  26
ENDBRANCH  19  25
ENDBRANCH  14  15
ENDBRANCH  13  14
ENDBRANCH  12  13
ENDBRANCH   6  12
BRANCH   2  28
ATOM     28  C   UNL     1     -31.609  29.885   5.432  0.00  0.00    +0.118 C 
BRANCH  28  29
ATOM     29  O   UNL     1     -30.294  30.311   5.081  0.00  0.00    -0.384 OA
ATOM     30  H   UNL     1     -29.903  29.676   4.459  0.00  0.00    +0.210 HD
ENDBRANCH  28  29
BRANCH  28  31
ATOM     31  C   UNL     1     -31.613  29.458   6.901  0.00  0.00    -0.054 C 
BRANCH  31  32
ATOM     32  N   UNL     1     -32.269  28.172   7.096  0.00  0.00    +0.382 N 
ATOM     33  H   UNL     1     -31.679  27.574   7.675  0.00  0.00    -0.089 HD
ATOM     34  H   UNL     1     -32.420  27.727   6.191  0.00  0.00    -0.089 HD
ATOM     35  H   UNL     1     -33.167  28.314   7.559  0.00  0.00    -0.089 HD
ENDBRANCH  31  32
ENDBRANCH  28  31
ENDBRANCH   2  28
TORSDOF 12
ENDMDL
MODEL 5
REMARK VINA RESULT:      -6.0      4.445      7.583
REMARK  Name = 195274
REMARK  12 active torsions:
REMARK  status: ('A' for Active; 'I' for Inactive)
REMARK    1  A    between atoms: C_2  and  C_28
REMARK    2  A    between atoms: C_3  and  O_7
REMARK    3  A    between atoms: C_4  and  O_9
REMARK    4  A    between atoms: C_6  and  C_12
REMARK    5  A    between atoms: C_12  and  O_13
REMARK    6  A    between atoms: O_13  and  C_14
REMARK    7  A    between atoms: C_14  and  C_15
REMARK    8  A    between atoms: C_19  and  S_25
REMARK    9  A    between atoms: S_25  and  S_26
REMARK   10  A    between atoms: C_28  and  O_29
REMARK   11  A    between atoms: C_28  and  C_31
REMARK   12  A    between atoms: C_31  and  N_32
REMARK                            x       y       z     vdW  Elec       q    Type
REMARK                         _______ _______ _______ _____ _____    ______ ____
ROOT
ATOM      1  O   UNL     1     -36.662  25.048   4.249  0.00  0.00    -0.343 OA
ATOM      2  C   UNL     1     -36.518  24.486   2.937  0.00  0.00    +0.169 C 
ATOM      3  C   UNL     1     -36.568  22.956   2.998  0.00  0.00    +0.167 C 
ATOM      4  C   UNL     1     -35.491  22.440   3.953  0.00  0.00    +0.143 C 
ATOM      5  C   UNL     1     -35.598  23.115   5.319  0.00  0.00    +0.073 C 
ATOM      6  C   UNL     1     -35.682  24.633   5.191  0.00  0.00    +0.216 C 
ENDROOT
BRANCH   3   7
ATOM      7  O   UNL     1     -37.857  22.522   3.436  0.00  0.00    -0.379 OA
ATOM      8  H   UNL     1     -38.367  22.204   2.676  0.00  0.00    +0.211 HD
ENDBRANCH   3   7
BRANCH   4   9
ATOM      9  O   UNL     1     -35.605  21.029   4.091  0.00  0.00    -0.382 OA
ATOM     10  H   UNL     1     -36.290  20.822   4.746  0.00  0.00    +0.210 HD
ENDBRANCH   4   9
BRANCH   6  12
ATOM     11  O   UNL     1     -33.325  24.621   4.683  0.00  0.00    -0.247 OA
ATOM     12  C   UNL     1     -34.352  25.257   4.875  0.00  0.00    +0.345 C 
BRANCH  12  13
ATOM     13  O   UNL     1     -34.482  26.614   4.841  0.00  0.00    -0.442 OA
BRANCH  13  14
ATOM     14  C   UNL     1     -33.553  27.300   3.996  0.00  0.00    +0.235 C 
BRANCH  14  15
ATOM     15  C   UNL     1     -32.757  28.265   4.824  0.00  0.00    +0.022 C 
ATOM     16  C   UNL     1     -32.274  29.514   4.405  0.00  0.00    +0.006 C 
ATOM     17  C   UNL     1     -31.534  30.306   5.314  0.00  0.00    +0.000 C 
ATOM     18  C   UNL     1     -32.516  27.800   6.115  0.00  0.00    -0.001 C 
ATOM     19  C   UNL     1     -32.510  29.994   3.107  0.00  0.00    +0.035 C 
ATOM     20  C   UNL     1     -31.299  29.825   6.613  0.00  0.00    -0.000 C 
ATOM     21  C   UNL     1     -31.787  28.579   7.009  0.00  0.00    -0.000 C 
ATOM     22  C   UNL     1     -31.051  31.557   4.898  0.00  0.00    +0.000 C 
ATOM     23  C   UNL     1     -32.022  31.241   2.711  0.00  0.00    +0.007 C 
ATOM     24  C   UNL     1     -31.294  32.020   3.605  0.00  0.00    +0.001 C 
BRANCH  19  25
ATOM     25  S   UNL     1     -33.418  29.181   1.777  0.00  0.00    -0.055 S 
BRANCH  25  26
ATOM     26  S   UNL     1     -34.687  30.679   1.179  0.00  0.00    -0.077 S 
ATOM     27  C   UNL     1     -35.659  30.961   2.678  0.00  0.00    +0.081 C 
ENDBRANCH  25  26
ENDBRANCH  19  25
ENDBRANCH  14  15
ENDBRANCH  13  14
ENDBRANCH  12  13
ENDBRANCH   6  12
BRANCH   2  28
ATOM     28  C   UNL     1     -37.633  25.067   2.073  0.00  0.00    +0.118 C 
BRANCH  28  29
ATOM     29  O   UNL     1     -37.027  25.937   1.118  0.00  0.00    -0.384 OA
ATOM     30  H   UNL     1     -37.702  26.526   0.743  0.00  0.00    +0.210 HD
ENDBRANCH  28  29
BRANCH  28  31
ATOM     31  C   UNL     1     -38.663  25.862   2.879  0.00  0.00    -0.054 C 
BRANCH  31  32
ATOM     32  N   UNL     1     -39.459  25.004   3.747  0.00  0.00    +0.382 N 
ATOM     33  H   UNL     1     -39.094  24.052   3.711  0.00  0.00    -0.089 HD
ATOM     34  H   UNL     1     -40.429  25.009   3.432  0.00  0.00    -0.089 HD
ATOM     35  H   UNL     1     -39.412  25.351   4.705  0.00  0.00    -0.089 HD
ENDBRANCH  31  32
ENDBRANCH  28  31
ENDBRANCH   2  28
TORSDOF 12
ENDMDL
MODEL 6
REMARK VINA RESULT:      -5.9      4.745      7.965
REMARK  Name = 195274
REMARK  12 active torsions:
REMARK  status: ('A' for Active; 'I' for Inactive)
REMARK    1  A    between atoms: C_2  and  C_28
REMARK    2  A    between atoms: C_3  and  O_7
REMARK    3  A    between atoms: C_4  and  O_9
REMARK    4  A    between atoms: C_6  and  C_12
REMARK    5  A    between atoms: C_12  and  O_13
REMARK    6  A    between atoms: O_13  and  C_14
REMARK    7  A    between atoms: C_14  and  C_15
REMARK    8  A    between atoms: C_19  and  S_25
REMARK    9  A    between atoms: S_25  and  S_26
REMARK   10  A    between atoms: C_28  and  O_29
REMARK   11  A    between atoms: C_28  and  C_31
REMARK   12  A    between atoms: C_31  and  N_32
REMARK                            x       y       z     vdW  Elec       q    Type
REMARK                         _______ _______ _______ _____ _____    ______ ____
ROOT
ATOM      1  O   UNL     1     -36.743  25.560   4.296  0.00  0.00    -0.343 OA
ATOM      2  C   UNL     1     -36.476  24.886   3.058  0.00  0.00    +0.169 C 
ATOM      3  C   UNL     1     -36.337  23.377   3.286  0.00  0.00    +0.167 C 
ATOM      4  C   UNL     1     -35.244  23.108   4.321  0.00  0.00    +0.143 C 
ATOM      5  C   UNL     1     -35.491  23.903   5.601  0.00  0.00    +0.073 C 
ATOM      6  C   UNL     1     -35.759  25.376   5.305  0.00  0.00    +0.216 C 
ENDROOT
BRANCH   3   7
ATOM      7  O   UNL     1     -37.578  22.829   3.733  0.00  0.00    -0.379 OA
ATOM      8  H   UNL     1     -38.296  23.448   3.532  0.00  0.00    +0.211 HD
ENDBRANCH   3   7
BRANCH   4   9
ATOM      9  O   UNL     1     -35.187  21.716   4.609  0.00  0.00    -0.382 OA
ATOM     10  H   UNL     1     -34.406  21.531   5.155  0.00  0.00    +0.210 HD
ENDBRANCH   4   9
BRANCH   6  12
ATOM     11  O   UNL     1     -33.377  25.736   5.215  0.00  0.00    -0.247 OA
ATOM     12  C   UNL     1     -34.506  26.130   4.959  0.00  0.00    +0.345 C 
BRANCH  12  13
ATOM     13  O   UNL     1     -34.833  27.294   4.330  0.00  0.00    -0.442 OA
BRANCH  13  14
ATOM     14  C   UNL     1     -34.002  27.649   3.220  0.00  0.00    +0.235 C 
BRANCH  14  15
ATOM     15  C   UNL     1     -34.339  29.043   2.781  0.00  0.00    +0.022 C 
ATOM     16  C   UNL     1     -33.514  30.171   2.900  0.00  0.00    +0.006 C 
ATOM     17  C   UNL     1     -33.985  31.421   2.435  0.00  0.00    +0.000 C 
ATOM     18  C   UNL     1     -35.608  29.140   2.214  0.00  0.00    -0.001 C 
ATOM     19  C   UNL     1     -32.233  30.087   3.469  0.00  0.00    +0.035 C 
ATOM     20  C   UNL     1     -35.266  31.505   1.865  0.00  0.00    -0.000 C 
ATOM     21  C   UNL     1     -36.072  30.370   1.757  0.00  0.00    -0.000 C 
ATOM     22  C   UNL     1     -33.161  32.552   2.551  0.00  0.00    +0.000 C 
ATOM     23  C   UNL     1     -31.427  31.222   3.577  0.00  0.00    +0.007 C 
ATOM     24  C   UNL     1     -31.891  32.452   3.120  0.00  0.00    +0.001 C 
BRANCH  19  25
ATOM     25  S   UNL     1     -31.413  28.622   4.129  0.00  0.00    -0.055 S 
BRANCH  25  26
ATOM     26  S   UNL     1     -31.704  28.870   6.146  0.00  0.00    -0.077 S 
ATOM     27  C   UNL     1     -30.053  29.358   6.701  0.00  0.00    +0.081 C 
ENDBRANCH  25  26
ENDBRANCH  19  25
ENDBRANCH  14  15
ENDBRANCH  13  14
ENDBRANCH  12  13
ENDBRANCH   6  12
BRANCH   2  28
ATOM     28  C   UNL     1     -37.619  25.224   2.105  0.00  0.00    +0.118 C 
BRANCH  28  29
ATOM     29  O   UNL     1     -37.097  26.094   1.102  0.00  0.00    -0.384 OA
ATOM     30  H   UNL     1     -37.423  26.995   1.254  0.00  0.00    +0.210 HD
ENDBRANCH  28  29
BRANCH  28  31
ATOM     31  C   UNL     1     -38.792  25.919   2.799  0.00  0.00    -0.054 C 
BRANCH  31  32
ATOM     32  N   UNL     1     -39.484  25.033   3.724  0.00  0.00    +0.382 N 
ATOM     33  H   UNL     1     -39.174  25.226   4.677  0.00  0.00    -0.089 HD
ATOM     34  H   UNL     1     -39.273  24.063   3.488  0.00  0.00    -0.089 HD
ATOM     35  H   UNL     1     -40.490  25.187   3.656  0.00  0.00    -0.089 HD
ENDBRANCH  31  32
ENDBRANCH  28  31
ENDBRANCH   2  28
TORSDOF 12
ENDMDL
MODEL 7
REMARK VINA RESULT:      -5.9      1.707      2.044
REMARK  Name = 195274
REMARK  12 active torsions:
REMARK  status: ('A' for Active; 'I' for Inactive)
REMARK    1  A    between atoms: C_2  and  C_28
REMARK    2  A    between atoms: C_3  and  O_7
REMARK    3  A    between atoms: C_4  and  O_9
REMARK    4  A    between atoms: C_6  and  C_12
REMARK    5  A    between atoms: C_12  and  O_13
REMARK    6  A    between atoms: O_13  and  C_14
REMARK    7  A    between atoms: C_14  and  C_15
REMARK    8  A    between atoms: C_19  and  S_25
REMARK    9  A    between atoms: S_25  and  S_26
REMARK   10  A    between atoms: C_28  and  O_29
REMARK   11  A    between atoms: C_28  and  C_31
REMARK   12  A    between atoms: C_31  and  N_32
REMARK                            x       y       z     vdW  Elec       q    Type
REMARK                         _______ _______ _______ _____ _____    ______ ____
ROOT
ATOM      1  O   UNL     1     -36.286  23.071   3.317  0.00  0.00    -0.343 OA
ATOM      2  C   UNL     1     -35.606  24.277   3.692  0.00  0.00    +0.169 C 
ATOM      3  C   UNL     1     -36.587  25.453   3.748  0.00  0.00    +0.167 C 
ATOM      4  C   UNL     1     -37.297  25.601   2.402  0.00  0.00    +0.143 C 
ATOM      5  C   UNL     1     -37.939  24.284   1.970  0.00  0.00    +0.073 C 
ATOM      6  C   UNL     1     -36.953  23.122   2.063  0.00  0.00    +0.216 C 
ENDROOT
BRANCH   3   7
ATOM      7  O   UNL     1     -37.547  25.244   4.785  0.00  0.00    -0.379 OA
ATOM      8  H   UNL     1     -37.091  25.159   5.636  0.00  0.00    +0.211 HD
ENDBRANCH   3   7
BRANCH   4   9
ATOM      9  O   UNL     1     -38.282  26.624   2.487  0.00  0.00    -0.382 OA
ATOM     10  H   UNL     1     -38.134  27.149   3.289  0.00  0.00    +0.210 HD
ENDBRANCH   4   9
BRANCH   6  12
ATOM     11  O   UNL     1     -35.980  23.911   0.004  0.00  0.00    -0.247 OA
ATOM     12  C   UNL     1     -35.957  23.122   0.937  0.00  0.00    +0.345 C 
BRANCH  12  13
ATOM     13  O   UNL     1     -35.053  22.121   1.130  0.00  0.00    -0.442 OA
BRANCH  13  14
ATOM     14  C   UNL     1     -34.100  21.942   0.078  0.00  0.00    +0.235 C 
BRANCH  14  15
ATOM     15  C   UNL     1     -33.268  20.728   0.369  0.00  0.00    +0.022 C 
ATOM     16  C   UNL     1     -31.943  20.514  -0.038  0.00  0.00    +0.006 C 
ATOM     17  C   UNL     1     -31.299  19.307   0.320  0.00  0.00    +0.000 C 
ATOM     18  C   UNL     1     -33.951  19.772   1.118  0.00  0.00    -0.001 C 
ATOM     19  C   UNL     1     -31.244  21.470  -0.793  0.00  0.00    +0.035 C 
ATOM     20  C   UNL     1     -31.999  18.352   1.076  0.00  0.00    -0.000 C 
ATOM     21  C   UNL     1     -33.317  18.584   1.470  0.00  0.00    -0.000 C 
ATOM     22  C   UNL     1     -29.972  19.090  -0.085  0.00  0.00    +0.000 C 
ATOM     23  C   UNL     1     -29.925  21.237  -1.188  0.00  0.00    +0.007 C 
ATOM     24  C   UNL     1     -29.291  20.050  -0.835  0.00  0.00    +0.001 C 
BRANCH  19  25
ATOM     25  S   UNL     1     -31.840  23.072  -1.369  0.00  0.00    -0.055 S 
BRANCH  25  26
ATOM     26  S   UNL     1     -31.724  22.837  -3.405  0.00  0.00    -0.077 S 
ATOM     27  C   UNL     1     -32.780  21.392  -3.672  0.00  0.00    +0.081 C 
ENDBRANCH  25  26
ENDBRANCH  19  25
ENDBRANCH  14  15
ENDBRANCH  13  14
ENDBRANCH  12  13
ENDBRANCH   6  12
BRANCH   2  28
ATOM     28  C   UNL     1     -34.936  24.018   5.037  0.00  0.00    +0.118 C 
BRANCH  28  29
ATOM     29  O   UNL     1     -33.599  24.511   4.953  0.00  0.00    -0.384 OA
ATOM     30  H   UNL     1     -33.517  25.315   5.490  0.00  0.00    +0.210 HD
ENDBRANCH  28  29
BRANCH  28  31
ATOM     31  C   UNL     1     -34.891  22.533   5.407  0.00  0.00    -0.054 C 
BRANCH  31  32
ATOM     32  N   UNL     1     -36.052  22.128   6.187  0.00  0.00    +0.382 N 
ATOM     33  H   UNL     1     -35.785  21.384   6.832  0.00  0.00    -0.089 HD
ATOM     34  H   UNL     1     -36.781  21.788   5.560  0.00  0.00    -0.089 HD
ATOM     35  H   UNL     1     -36.404  22.927   6.715  0.00  0.00    -0.089 HD
ENDBRANCH  31  32
ENDBRANCH  28  31
ENDBRANCH   2  28
TORSDOF 12
ENDMDL
MODEL 8
REMARK VINA RESULT:      -5.9      2.069      3.474
REMARK  Name = 195274
REMARK  12 active torsions:
REMARK  status: ('A' for Active; 'I' for Inactive)
REMARK    1  A    between atoms: C_2  and  C_28
REMARK    2  A    between atoms: C_3  and  O_7
REMARK    3  A    between atoms: C_4  and  O_9
REMARK    4  A    between atoms: C_6  and  C_12
REMARK    5  A    between atoms: C_12  and  O_13
REMARK    6  A    between atoms: O_13  and  C_14
REMARK    7  A    between atoms: C_14  and  C_15
REMARK    8  A    between atoms: C_19  and  S_25
REMARK    9  A    between atoms: S_25  and  S_26
REMARK   10  A    between atoms: C_28  and  O_29
REMARK   11  A    between atoms: C_28  and  C_31
REMARK   12  A    between atoms: C_31  and  N_32
REMARK                            x       y       z     vdW  Elec       q    Type
REMARK                         _______ _______ _______ _____ _____    ______ ____
ROOT
ATOM      1  O   UNL     1     -35.853  25.441   2.387  0.00  0.00    -0.343 OA
ATOM      2  C   UNL     1     -35.597  24.835   3.662  0.00  0.00    +0.169 C 
ATOM      3  C   UNL     1     -35.019  25.864   4.640  0.00  0.00    +0.167 C 
ATOM      4  C   UNL     1     -33.756  26.489   4.049  0.00  0.00    +0.143 C 
ATOM      5  C   UNL     1     -34.020  27.049   2.652  0.00  0.00    +0.073 C 
ATOM      6  C   UNL     1     -34.720  26.026   1.760  0.00  0.00    +0.216 C 
ENDROOT
BRANCH   3   7
ATOM      7  O   UNL     1     -35.985  26.881   4.913  0.00  0.00    -0.379 OA
ATOM      8  H   UNL     1     -35.648  27.737   4.609  0.00  0.00    +0.211 HD
ENDBRANCH   3   7
BRANCH   4   9
ATOM      9  O   UNL     1     -33.279  27.517   4.909  0.00  0.00    -0.382 OA
ATOM     10  H   UNL     1     -33.613  27.367   5.807  0.00  0.00    +0.210 HD
ENDBRANCH   4   9
BRANCH   6  12
ATOM     11  O   UNL     1     -32.566  25.070   1.252  0.00  0.00    -0.247 OA
ATOM     12  C   UNL     1     -33.784  24.960   1.266  0.00  0.00    +0.345 C 
BRANCH  12  13
ATOM     13  O   UNL     1     -34.504  23.881   0.847  0.00  0.00    -0.442 OA
BRANCH  13  14
ATOM     14  C   UNL     1     -33.874  23.070  -0.150  0.00  0.00    +0.235 C 
BRANCH  14  15
ATOM     15  C   UNL     1     -33.687  21.683   0.391  0.00  0.00    +0.022 C 
ATOM     16  C   UNL     1     -32.581  20.850   0.169  0.00  0.00    +0.006 C 
ATOM     17  C   UNL     1     -32.562  19.562   0.754  0.00  0.00    +0.000 C 
ATOM     18  C   UNL     1     -34.759  21.259   1.174  0.00  0.00    -0.001 C 
ATOM     19  C   UNL     1     -31.495  21.265  -0.618  0.00  0.00    +0.035 C 
ATOM     20  C   UNL     1     -33.648  19.147   1.542  0.00  0.00    -0.000 C 
ATOM     21  C   UNL     1     -34.740  19.992   1.749  0.00  0.00    -0.000 C 
ATOM     22  C   UNL     1     -31.455  18.725   0.535  0.00  0.00    +0.000 C 
ATOM     23  C   UNL     1     -30.404  20.420  -0.825  0.00  0.00    +0.007 C 
ATOM     24  C   UNL     1     -30.384  19.153  -0.250  0.00  0.00    +0.001 C 
BRANCH  19  25
ATOM     25  S   UNL     1     -31.285  22.845  -1.463  0.00  0.00    -0.055 S 
BRANCH  25  26
ATOM     26  S   UNL     1     -31.223  22.248  -3.426  0.00  0.00    -0.077 S 
ATOM     27  C   UNL     1     -32.832  21.446  -3.620  0.00  0.00    +0.081 C 
ENDBRANCH  25  26
ENDBRANCH  19  25
ENDBRANCH  14  15
ENDBRANCH  13  14
ENDBRANCH  12  13
ENDBRANCH   6  12
BRANCH   2  28
ATOM     28  C   UNL     1     -36.914  24.245   4.154  0.00  0.00    +0.118 C 
BRANCH  28  29
ATOM     29  O   UNL     1     -36.791  22.824   4.110  0.00  0.00    -0.384 OA
ATOM     30  H   UNL     1     -35.951  22.560   4.518  0.00  0.00    +0.210 HD
ENDBRANCH  28  29
BRANCH  28  31
ATOM     31  C   UNL     1     -38.113  24.662   3.300  0.00  0.00    -0.054 C 
BRANCH  31  32
ATOM     32  N   UNL     1     -38.527  26.033   3.569  0.00  0.00    +0.382 N 
ATOM     33  H   UNL     1     -37.721  26.653   3.485  0.00  0.00    -0.089 HD
ATOM     34  H   UNL     1     -38.907  26.094   4.514  0.00  0.00    -0.089 HD
ATOM     35  H   UNL     1     -39.242  26.311   2.897  0.00  0.00    -0.089 HD
ENDBRANCH  31  32
ENDBRANCH  28  31
ENDBRANCH   2  28
TORSDOF 12
ENDMDL
MODEL 9
REMARK VINA RESULT:      -5.8      6.012     10.359
REMARK  Name = 195274
REMARK  12 active torsions:
REMARK  status: ('A' for Active; 'I' for Inactive)
REMARK    1  A    between atoms: C_2  and  C_28
REMARK    2  A    between atoms: C_3  and  O_7
REMARK    3  A    between atoms: C_4  and  O_9
REMARK    4  A    between atoms: C_6  and  C_12
REMARK    5  A    between atoms: C_12  and  O_13
REMARK    6  A    between atoms: O_13  and  C_14
REMARK    7  A    between atoms: C_14  and  C_15
REMARK    8  A    between atoms: C_19  and  S_25
REMARK    9  A    between atoms: S_25  and  S_26
REMARK   10  A    between atoms: C_28  and  O_29
REMARK   11  A    between atoms: C_28  and  C_31
REMARK   12  A    between atoms: C_31  and  N_32
REMARK                            x       y       z     vdW  Elec       q    Type
REMARK                         _______ _______ _______ _____ _____    ______ ____
ROOT
ATOM      1  O   UNL     1     -37.849  24.875   1.802  0.00  0.00    -0.343 OA
ATOM      2  C   UNL     1     -38.063  23.979   2.902  0.00  0.00    +0.169 C 
ATOM      3  C   UNL     1     -38.617  22.639   2.405  0.00  0.00    +0.167 C 
ATOM      4  C   UNL     1     -39.902  22.872   1.610  0.00  0.00    +0.143 C 
ATOM      5  C   UNL     1     -39.684  23.898   0.499  0.00  0.00    +0.073 C 
ATOM      6  C   UNL     1     -39.005  25.160   1.025  0.00  0.00    +0.216 C 
ENDROOT
BRANCH   3   7
ATOM      7  O   UNL     1     -37.650  21.979   1.586  0.00  0.00    -0.379 OA
ATOM      8  H   UNL     1     -37.559  22.454   0.747  0.00  0.00    +0.211 HD
ENDBRANCH   3   7
BRANCH   4   9
ATOM      9  O   UNL     1     -40.358  21.642   1.061  0.00  0.00    -0.382 OA
ATOM     10  H   UNL     1     -40.320  20.951   1.741  0.00  0.00    +0.210 HD
ENDBRANCH   4   9
BRANCH   6  12
ATOM     11  O   UNL     1     -39.686  26.550   2.873  0.00  0.00    -0.247 OA
ATOM     12  C   UNL     1     -39.949  26.042   1.793  0.00  0.00    +0.345 C 
BRANCH  12  13
ATOM     13  O   UNL     1     -41.114  26.176   1.098  0.00  0.00    -0.442 OA
BRANCH  13  14
ATOM     14  C   UNL     1     -42.165  26.861   1.786  0.00  0.00    +0.235 C 
BRANCH  14  15
ATOM     15  C   UNL     1     -43.381  25.983   1.824  0.00  0.00    +0.022 C 
ATOM     16  C   UNL     1     -44.369  25.980   2.819  0.00  0.00    +0.006 C 
ATOM     17  C   UNL     1     -45.458  25.083   2.707  0.00  0.00    +0.000 C 
ATOM     18  C   UNL     1     -43.459  25.119   0.733  0.00  0.00    -0.001 C 
ATOM     19  C   UNL     1     -44.303  26.845   3.923  0.00  0.00    +0.035 C 
ATOM     20  C   UNL     1     -45.524  24.218   1.601  0.00  0.00    -0.000 C 
ATOM     21  C   UNL     1     -44.530  24.237   0.622  0.00  0.00    -0.000 C 
ATOM     22  C   UNL     1     -46.449  25.078   3.701  0.00  0.00    +0.000 C 
ATOM     23  C   UNL     1     -45.297  26.827   4.902  0.00  0.00    +0.007 C 
ATOM     24  C   UNL     1     -46.367  25.944   4.791  0.00  0.00    +0.001 C 
BRANCH  19  25
ATOM     25  S   UNL     1     -43.029  28.069   4.290  0.00  0.00    -0.055 S 
BRANCH  25  26
ATOM     26  S   UNL     1     -44.164  29.745   4.628  0.00  0.00    -0.077 S 
ATOM     27  C   UNL     1     -43.564  30.277   6.250  0.00  0.00    +0.081 C 
ENDBRANCH  25  26
ENDBRANCH  19  25
ENDBRANCH  14  15
ENDBRANCH  13  14
ENDBRANCH  12  13
ENDBRANCH   6  12
BRANCH   2  28
ATOM     28  C   UNL     1     -36.727  23.822   3.621  0.00  0.00    +0.118 C 
BRANCH  28  29
ATOM     29  O   UNL     1     -36.725  22.539   4.246  0.00  0.00    -0.384 OA
ATOM     30  H   UNL     1     -35.979  22.017   3.911  0.00  0.00    +0.210 HD
ENDBRANCH  28  29
BRANCH  28  31
ATOM     31  C   UNL     1     -36.494  24.891   4.691  0.00  0.00    -0.054 C 
BRANCH  31  32
ATOM     32  N   UNL     1     -37.229  26.116   4.410  0.00  0.00    +0.382 N 
ATOM     33  H   UNL     1     -36.576  26.848   4.130  0.00  0.00    -0.089 HD
ATOM     34  H   UNL     1     -37.732  26.411   5.247  0.00  0.00    -0.089 HD
ATOM     35  H   UNL     1     -37.895  25.949   3.655  0.00  0.00    -0.089 HD
ENDBRANCH  31  32
ENDBRANCH  28  31
ENDBRANCH   2  28
TORSDOF 12
ENDMDL
