MODEL 1
REMARK VINA RESULT:      -5.3      0.000      0.000
REMARK  Name = 5375469
REMARK  4 active torsions:
REMARK  status: ('A' for Active; 'I' for Inactive)
REMARK    1  A    between atoms: C_2  and  N_10
REMARK    2  A    between atoms: C_3  and  N_13
REMARK    3  A    between atoms: C_4  and  N_14
REMARK    4  A    between atoms: N_14  and  O_16
REMARK                            x       y       z     vdW  Elec       q    Type
REMARK                         _______ _______ _______ _____ _____    ______ ____
ROOT
ATOM      1  C   UNL     1     -35.719  25.173   3.804  0.00  0.00    +0.023 C 
ATOM      2  C   UNL     1     -34.529  25.133   4.530  0.00  0.00    +0.142 C 
ATOM      3  C   UNL     1     -36.580  24.076   3.814  0.00  0.00    +0.142 C 
ATOM      4  C   UNL     1     -35.061  22.897   5.278  0.00  0.00    +0.081 C 
ATOM      5  C   UNL     1     -34.200  23.995   5.267  0.00  0.00    +0.043 C 
ATOM      6  C   UNL     1     -36.251  22.937   4.552  0.00  0.00    +0.043 C 
ATOM      7  C   UNL     1     -36.073  26.395   3.011  0.00  0.00    +0.035 C 
ENDROOT
BRANCH   2  10
ATOM      8  O   UNL     1     -33.779  27.131   5.403  0.00  0.00    -0.126 OA
ATOM      9  O   UNL     1     -32.728  26.287   3.670  0.00  0.00    -0.126 OA
ATOM     10  N   UNL     1     -33.634  26.238   4.535  0.00  0.00    +0.057 N 
ENDBRANCH   2  10
BRANCH   3  13
ATOM     11  O   UNL     1     -37.799  23.685   1.896  0.00  0.00    -0.126 OA
ATOM     12  O   UNL     1     -38.839  24.510   3.644  0.00  0.00    -0.126 OA
ATOM     13  N   UNL     1     -37.800  24.091   3.081  0.00  0.00    +0.057 N 
ENDBRANCH   3  13
BRANCH   4  14
ATOM     14  N   UNL     1     -34.727  21.747   6.023  0.00  0.00    -0.267 N 
ATOM     15  H   UNL     1     -34.005  21.807   6.689  0.00  0.00    +0.194 HD
BRANCH  14  16
ATOM     16  O   UNL     1     -35.371  20.548   5.853  0.00  0.00    -0.289 OA
ATOM     17  H   UNL     1     -34.850  19.840   6.264  0.00  0.00    +0.244 HD
ENDBRANCH  14  16
ENDBRANCH   4  14
TORSDOF 4
ENDMDL
MODEL 2
REMARK VINA RESULT:      -5.3      0.077      3.860
REMARK  Name = 5375469
REMARK  4 active torsions:
REMARK  status: ('A' for Active; 'I' for Inactive)
REMARK    1  A    between atoms: C_2  and  N_10
REMARK    2  A    between atoms: C_3  and  N_13
REMARK    3  A    between atoms: C_4  and  N_14
REMARK    4  A    between atoms: N_14  and  O_16
REMARK                            x       y       z     vdW  Elec       q    Type
REMARK                         _______ _______ _______ _____ _____    ______ ____
ROOT
ATOM      1  C   UNL     1     -35.696  25.153   3.811  0.00  0.00    +0.023 C 
ATOM      2  C   UNL     1     -36.543  24.046   3.783  0.00  0.00    +0.142 C 
ATOM      3  C   UNL     1     -34.523  25.115   4.567  0.00  0.00    +0.142 C 
ATOM      4  C   UNL     1     -35.047  22.862   5.266  0.00  0.00    +0.081 C 
ATOM      5  C   UNL     1     -36.219  22.901   4.510  0.00  0.00    +0.043 C 
ATOM      6  C   UNL     1     -34.199  23.969   5.294  0.00  0.00    +0.043 C 
ATOM      7  C   UNL     1     -36.044  26.384   3.031  0.00  0.00    +0.035 C 
ENDROOT
BRANCH   2  10
ATOM      8  O   UNL     1     -38.809  24.419   3.577  0.00  0.00    -0.126 OA
ATOM      9  O   UNL     1     -37.702  23.712   1.818  0.00  0.00    -0.126 OA
ATOM     10  N   UNL     1     -37.744  24.060   3.022  0.00  0.00    +0.057 N 
ENDBRANCH   2  10
BRANCH   3  13
ATOM     11  O   UNL     1     -33.798  27.088   5.514  0.00  0.00    -0.126 OA
ATOM     12  O   UNL     1     -32.737  26.323   3.751  0.00  0.00    -0.126 OA
ATOM     13  N   UNL     1     -33.642  26.231   4.613  0.00  0.00    +0.057 N 
ENDBRANCH   3  13
BRANCH   4  14
ATOM     14  N   UNL     1     -34.719  21.704   6.000  0.00  0.00    -0.267 N 
ATOM     15  H   UNL     1     -33.946  21.730   6.608  0.00  0.00    +0.194 HD
BRANCH  14  16
ATOM     16  O   UNL     1     -35.439  20.540   5.899  0.00  0.00    -0.289 OA
ATOM     17  H   UNL     1     -36.185  20.567   6.520  0.00  0.00    +0.244 HD
ENDBRANCH  14  16
ENDBRANCH   4  14
TORSDOF 4
ENDMDL
MODEL 3
REMARK VINA RESULT:      -5.3      1.888      2.265
REMARK  Name = 5375469
REMARK  4 active torsions:
REMARK  status: ('A' for Active; 'I' for Inactive)
REMARK    1  A    between atoms: C_2  and  N_10
REMARK    2  A    between atoms: C_3  and  N_13
REMARK    3  A    between atoms: C_4  and  N_14
REMARK    4  A    between atoms: N_14  and  O_16
REMARK                            x       y       z     vdW  Elec       q    Type
REMARK                         _______ _______ _______ _____ _____    ______ ____
ROOT
ATOM      1  C   UNL     1     -34.641  24.545   2.987  0.00  0.00    +0.023 C 
ATOM      2  C   UNL     1     -34.619  24.939   4.325  0.00  0.00    +0.142 C 
ATOM      3  C   UNL     1     -35.093  23.271   2.642  0.00  0.00    +0.142 C 
ATOM      4  C   UNL     1     -35.503  22.786   4.973  0.00  0.00    +0.081 C 
ATOM      5  C   UNL     1     -35.050  24.060   5.317  0.00  0.00    +0.043 C 
ATOM      6  C   UNL     1     -35.524  22.391   3.636  0.00  0.00    +0.043 C 
ATOM      7  C   UNL     1     -34.176  25.489   1.919  0.00  0.00    +0.035 C 
ENDROOT
BRANCH   2  10
ATOM      8  O   UNL     1     -32.968  26.373   5.054  0.00  0.00    -0.126 OA
ATOM      9  O   UNL     1     -34.968  27.192   4.670  0.00  0.00    -0.126 OA
ATOM     10  N   UNL     1     -34.162  26.232   4.702  0.00  0.00    +0.057 N 
ENDBRANCH   2  10
BRANCH   3  13
ATOM     11  O   UNL     1     -36.157  23.052   0.608  0.00  0.00    -0.126 OA
ATOM     12  O   UNL     1     -34.114  22.273   0.808  0.00  0.00    -0.126 OA
ATOM     13  N   UNL     1     -35.123  22.844   1.285  0.00  0.00    +0.057 N 
ENDBRANCH   3  13
BRANCH   4  14
ATOM     14  N   UNL     1     -35.938  21.897   5.978  0.00  0.00    -0.267 N 
ATOM     15  H   UNL     1     -36.539  22.234   6.681  0.00  0.00    +0.194 HD
BRANCH  14  16
ATOM     16  O   UNL     1     -35.555  20.581   6.013  0.00  0.00    -0.289 OA
ATOM     17  H   UNL     1     -34.589  20.527   6.087  0.00  0.00    +0.244 HD
ENDBRANCH  14  16
ENDBRANCH   4  14
TORSDOF 4
ENDMDL
MODEL 4
REMARK VINA RESULT:      -5.3      1.894      3.808
REMARK  Name = 5375469
REMARK  4 active torsions:
REMARK  status: ('A' for Active; 'I' for Inactive)
REMARK    1  A    between atoms: C_2  and  N_10
REMARK    2  A    between atoms: C_3  and  N_13
REMARK    3  A    between atoms: C_4  and  N_14
REMARK    4  A    between atoms: N_14  and  O_16
REMARK                            x       y       z     vdW  Elec       q    Type
REMARK                         _______ _______ _______ _____ _____    ______ ____
ROOT
ATOM      1  C   UNL     1     -34.637  24.535   2.974  0.00  0.00    +0.023 C 
ATOM      2  C   UNL     1     -35.089  23.260   2.635  0.00  0.00    +0.142 C 
ATOM      3  C   UNL     1     -34.614  24.934   4.311  0.00  0.00    +0.142 C 
ATOM      4  C   UNL     1     -35.498  22.784   4.969  0.00  0.00    +0.081 C 
ATOM      5  C   UNL     1     -35.520  22.385   3.632  0.00  0.00    +0.043 C 
ATOM      6  C   UNL     1     -35.045  24.058   5.308  0.00  0.00    +0.043 C 
ATOM      7  C   UNL     1     -34.175  25.476   1.903  0.00  0.00    +0.035 C 
ENDROOT
BRANCH   2  10
ATOM      8  O   UNL     1     -34.118  22.251   0.804  0.00  0.00    -0.126 OA
ATOM      9  O   UNL     1     -36.156  23.041   0.603  0.00  0.00    -0.126 OA
ATOM     10  N   UNL     1     -35.123  22.829   1.280  0.00  0.00    +0.057 N 
ENDBRANCH   2  10
BRANCH   3  13
ATOM     11  O   UNL     1     -32.957  26.378   5.007  0.00  0.00    -0.126 OA
ATOM     12  O   UNL     1     -34.972  27.183   4.675  0.00  0.00    -0.126 OA
ATOM     13  N   UNL     1     -34.158  26.229   4.683  0.00  0.00    +0.057 N 
ENDBRANCH   3  13
BRANCH   4  14
ATOM     14  N   UNL     1     -35.933  21.898   5.976  0.00  0.00    -0.267 N 
ATOM     15  H   UNL     1     -36.531  22.237   6.680  0.00  0.00    +0.194 HD
BRANCH  14  16
ATOM     16  O   UNL     1     -35.553  20.580   6.012  0.00  0.00    -0.289 OA
ATOM     17  H   UNL     1     -35.250  20.307   5.131  0.00  0.00    +0.244 HD
ENDBRANCH  14  16
ENDBRANCH   4  14
TORSDOF 4
ENDMDL
MODEL 5
REMARK VINA RESULT:      -5.0      0.843      3.851
REMARK  Name = 5375469
REMARK  4 active torsions:
REMARK  status: ('A' for Active; 'I' for Inactive)
REMARK    1  A    between atoms: C_2  and  N_10
REMARK    2  A    between atoms: C_3  and  N_13
REMARK    3  A    between atoms: C_4  and  N_14
REMARK    4  A    between atoms: N_14  and  O_16
REMARK                            x       y       z     vdW  Elec       q    Type
REMARK                         _______ _______ _______ _____ _____    ______ ____
ROOT
ATOM      1  C   UNL     1     -35.574  25.503   3.710  0.00  0.00    +0.023 C 
ATOM      2  C   UNL     1     -36.560  24.576   3.375  0.00  0.00    +0.142 C 
ATOM      3  C   UNL     1     -34.686  25.232   4.752  0.00  0.00    +0.142 C 
ATOM      4  C   UNL     1     -35.770  23.105   5.122  0.00  0.00    +0.081 C 
ATOM      5  C   UNL     1     -36.658  23.377   4.080  0.00  0.00    +0.043 C 
ATOM      6  C   UNL     1     -34.784  24.032   5.457  0.00  0.00    +0.043 C 
ATOM      7  C   UNL     1     -35.468  26.793   2.953  0.00  0.00    +0.035 C 
ENDROOT
BRANCH   2  10
ATOM      8  O   UNL     1     -37.186  24.451   1.159  0.00  0.00    -0.126 OA
ATOM      9  O   UNL     1     -38.550  25.424   2.578  0.00  0.00    -0.126 OA
ATOM     10  N   UNL     1     -37.477  24.829   2.318  0.00  0.00    +0.057 N 
ENDBRANCH   2  10
BRANCH   3  13
ATOM     11  O   UNL     1     -32.707  26.340   4.334  0.00  0.00    -0.126 OA
ATOM     12  O   UNL     1     -33.775  26.776   6.202  0.00  0.00    -0.126 OA
ATOM     13  N   UNL     1     -33.672  26.162   5.114  0.00  0.00    +0.057 N 
ENDBRANCH   3  13
BRANCH   4  14
ATOM     14  N   UNL     1     -35.870  21.892   5.835  0.00  0.00    -0.267 N 
ATOM     15  H   UNL     1     -36.466  21.850   6.617  0.00  0.00    +0.194 HD
BRANCH  14  16
ATOM     16  O   UNL     1     -35.167  20.769   5.479  0.00  0.00    -0.289 OA
ATOM     17  H   UNL     1     -35.608  20.336   4.730  0.00  0.00    +0.244 HD
ENDBRANCH  14  16
ENDBRANCH   4  14
TORSDOF 4
ENDMDL
MODEL 6
REMARK VINA RESULT:      -5.0      1.448      4.172
REMARK  Name = 5375469
REMARK  4 active torsions:
REMARK  status: ('A' for Active; 'I' for Inactive)
REMARK    1  A    between atoms: C_2  and  N_10
REMARK    2  A    between atoms: C_3  and  N_13
REMARK    3  A    between atoms: C_4  and  N_14
REMARK    4  A    between atoms: N_14  and  O_16
REMARK                            x       y       z     vdW  Elec       q    Type
REMARK                         _______ _______ _______ _____ _____    ______ ____
ROOT
ATOM      1  C   UNL     1     -36.441  24.090   3.916  0.00  0.00    +0.023 C 
ATOM      2  C   UNL     1     -36.400  25.433   3.543  0.00  0.00    +0.142 C 
ATOM      3  C   UNL     1     -35.605  23.621   4.930  0.00  0.00    +0.142 C 
ATOM      4  C   UNL     1     -34.686  25.840   5.198  0.00  0.00    +0.081 C 
ATOM      5  C   UNL     1     -35.523  26.308   4.185  0.00  0.00    +0.043 C 
ATOM      6  C   UNL     1     -34.727  24.497   5.571  0.00  0.00    +0.043 C 
ATOM      7  C   UNL     1     -37.382  23.149   3.226  0.00  0.00    +0.035 C 
ENDROOT
BRANCH   2  10
ATOM      8  O   UNL     1     -36.834  25.900   1.328  0.00  0.00    -0.126 OA
ATOM      9  O   UNL     1     -38.365  26.398   2.820  0.00  0.00    -0.126 OA
ATOM     10  N   UNL     1     -37.241  25.935   2.513  0.00  0.00    +0.057 N 
ENDBRANCH   2  10
BRANCH   3  13
ATOM     11  O   UNL     1     -36.046  21.965   6.472  0.00  0.00    -0.126 OA
ATOM     12  O   UNL     1     -35.226  21.383   4.520  0.00  0.00    -0.126 OA
ATOM     13  N   UNL     1     -35.626  22.255   5.327  0.00  0.00    +0.057 N 
ENDBRANCH   3  13
BRANCH   4  14
ATOM     14  N   UNL     1     -33.800  26.725   5.846  0.00  0.00    -0.267 N 
ATOM     15  H   UNL     1     -34.060  27.104   6.716  0.00  0.00    +0.194 HD
BRANCH  14  16
ATOM     16  O   UNL     1     -32.589  27.079   5.307  0.00  0.00    -0.289 OA
ATOM     17  H   UNL     1     -31.874  26.701   5.843  0.00  0.00    +0.244 HD
ENDBRANCH  14  16
ENDBRANCH   4  14
TORSDOF 4
ENDMDL
MODEL 7
REMARK VINA RESULT:      -4.9      1.450      3.878
REMARK  Name = 5375469
REMARK  4 active torsions:
REMARK  status: ('A' for Active; 'I' for Inactive)
REMARK    1  A    between atoms: C_2  and  N_10
REMARK    2  A    between atoms: C_3  and  N_13
REMARK    3  A    between atoms: C_4  and  N_14
REMARK    4  A    between atoms: N_14  and  O_16
REMARK                            x       y       z     vdW  Elec       q    Type
REMARK                         _______ _______ _______ _____ _____    ______ ____
ROOT
ATOM      1  C   UNL     1     -36.442  24.095   3.914  0.00  0.00    +0.023 C 
ATOM      2  C   UNL     1     -35.604  23.630   4.928  0.00  0.00    +0.142 C 
ATOM      3  C   UNL     1     -36.403  25.438   3.538  0.00  0.00    +0.142 C 
ATOM      4  C   UNL     1     -34.688  25.851   5.190  0.00  0.00    +0.081 C 
ATOM      5  C   UNL     1     -34.728  24.508   5.565  0.00  0.00    +0.043 C 
ATOM      6  C   UNL     1     -35.526  26.316   4.176  0.00  0.00    +0.043 C 
ATOM      7  C   UNL     1     -37.385  23.152   3.230  0.00  0.00    +0.035 C 
ENDROOT
BRANCH   2  10
ATOM      8  O   UNL     1     -36.046  21.979   6.475  0.00  0.00    -0.126 OA
ATOM      9  O   UNL     1     -35.222  21.392   4.527  0.00  0.00    -0.126 OA
ATOM     10  N   UNL     1     -35.625  22.266   5.330  0.00  0.00    +0.057 N 
ENDBRANCH   2  10
BRANCH   3  13
ATOM     11  O   UNL     1     -38.371  26.398   2.817  0.00  0.00    -0.126 OA
ATOM     12  O   UNL     1     -36.842  25.902   1.322  0.00  0.00    -0.126 OA
ATOM     13  N   UNL     1     -37.248  25.937   2.508  0.00  0.00    +0.057 N 
ENDBRANCH   3  13
BRANCH   4  14
ATOM     14  N   UNL     1     -33.802  26.738   5.835  0.00  0.00    -0.267 N 
ATOM     15  H   UNL     1     -34.068  27.131   6.696  0.00  0.00    +0.194 HD
BRANCH  14  16
ATOM     16  O   UNL     1     -32.581  27.073   5.306  0.00  0.00    -0.289 OA
ATOM     17  H   UNL     1     -32.539  26.781   4.381  0.00  0.00    +0.244 HD
ENDBRANCH  14  16
ENDBRANCH   4  14
TORSDOF 4
ENDMDL
MODEL 8
REMARK VINA RESULT:      -4.8      1.887      4.200
REMARK  Name = 5375469
REMARK  4 active torsions:
REMARK  status: ('A' for Active; 'I' for Inactive)
REMARK    1  A    between atoms: C_2  and  N_10
REMARK    2  A    between atoms: C_3  and  N_13
REMARK    3  A    between atoms: C_4  and  N_14
REMARK    4  A    between atoms: N_14  and  O_16
REMARK                            x       y       z     vdW  Elec       q    Type
REMARK                         _______ _______ _______ _____ _____    ______ ____
ROOT
ATOM      1  C   UNL     1     -35.625  22.900   3.549  0.00  0.00    +0.023 C 
ATOM      2  C   UNL     1     -35.461  23.257   4.888  0.00  0.00    +0.142 C 
ATOM      3  C   UNL     1     -35.779  23.889   2.577  0.00  0.00    +0.142 C 
ATOM      4  C   UNL     1     -35.606  25.592   4.282  0.00  0.00    +0.081 C 
ATOM      5  C   UNL     1     -35.452  24.603   5.254  0.00  0.00    +0.043 C 
ATOM      6  C   UNL     1     -35.769  25.235   2.944  0.00  0.00    +0.043 C 
ATOM      7  C   UNL     1     -35.637  21.454   3.155  0.00  0.00    +0.035 C 
ENDROOT
BRANCH   2  10
ATOM      8  O   UNL     1     -34.202  21.679   6.001  0.00  0.00    -0.126 OA
ATOM      9  O   UNL     1     -36.271  22.015   6.654  0.00  0.00    -0.126 OA
ATOM     10  N   UNL     1     -35.303  22.268   5.897  0.00  0.00    +0.057 N 
ENDBRANCH   2  10
BRANCH   3  13
ATOM     11  O   UNL     1     -34.933  23.432   0.481  0.00  0.00    -0.126 OA
ATOM     12  O   UNL     1     -37.110  23.380   0.763  0.00  0.00    -0.126 OA
ATOM     13  N   UNL     1     -35.949  23.551   1.206  0.00  0.00    +0.057 N 
ENDBRANCH   3  13
BRANCH   4  14
ATOM     14  N   UNL     1     -35.596  26.952   4.653  0.00  0.00    -0.267 N 
ATOM     15  H   UNL     1     -35.784  27.190   5.589  0.00  0.00    +0.194 HD
BRANCH  14  16
ATOM     16  O   UNL     1     -35.334  27.958   3.757  0.00  0.00    -0.289 OA
ATOM     17  H   UNL     1     -34.459  27.819   3.362  0.00  0.00    +0.244 HD
ENDBRANCH  14  16
ENDBRANCH   4  14
TORSDOF 4
ENDMDL
MODEL 9
REMARK VINA RESULT:      -4.7      1.872      4.195
REMARK  Name = 5375469
REMARK  4 active torsions:
REMARK  status: ('A' for Active; 'I' for Inactive)
REMARK    1  A    between atoms: C_2  and  N_10
REMARK    2  A    between atoms: C_3  and  N_13
REMARK    3  A    between atoms: C_4  and  N_14
REMARK    4  A    between atoms: N_14  and  O_16
REMARK                            x       y       z     vdW  Elec       q    Type
REMARK                         _______ _______ _______ _____ _____    ______ ____
ROOT
ATOM      1  C   UNL     1     -37.036  23.490   3.110  0.00  0.00    +0.023 C 
ATOM      2  C   UNL     1     -37.454  24.694   3.677  0.00  0.00    +0.142 C 
ATOM      3  C   UNL     1     -35.785  22.964   3.432  0.00  0.00    +0.142 C 
ATOM      4  C   UNL     1     -35.368  24.846   4.890  0.00  0.00    +0.081 C 
ATOM      5  C   UNL     1     -36.620  25.372   4.567  0.00  0.00    +0.043 C 
ATOM      6  C   UNL     1     -34.951  23.642   4.322  0.00  0.00    +0.043 C 
ATOM      7  C   UNL     1     -37.931  22.762   2.153  0.00  0.00    +0.035 C 
ENDROOT
BRANCH   2  10
ATOM      8  O   UNL     1     -39.755  24.700   3.813  0.00  0.00    -0.126 OA
ATOM      9  O   UNL     1     -38.773  26.280   2.648  0.00  0.00    -0.126 OA
ATOM     10  N   UNL     1     -38.723  25.252   3.364  0.00  0.00    +0.057 N 
ENDBRANCH   2  10
BRANCH   3  13
ATOM     11  O   UNL     1     -34.823  21.751   1.723  0.00  0.00    -0.126 OA
ATOM     12  O   UNL     1     -35.466  20.682   3.530  0.00  0.00    -0.126 OA
ATOM     13  N   UNL     1     -35.336  21.738   2.867  0.00  0.00    +0.057 N 
ENDBRANCH   3  13
BRANCH   4  14
ATOM     14  N   UNL     1     -34.526  25.531   5.789  0.00  0.00    -0.267 N 
ATOM     15  H   UNL     1     -34.263  25.085   6.626  0.00  0.00    +0.194 HD
BRANCH  14  16
ATOM     16  O   UNL     1     -34.061  26.797   5.542  0.00  0.00    -0.289 OA
ATOM     17  H   UNL     1     -34.716  27.286   5.018  0.00  0.00    +0.244 HD
ENDBRANCH  14  16
ENDBRANCH   4  14
TORSDOF 4
ENDMDL
