MODEL 1
REMARK VINA RESULT:      -5.5      0.000      0.000
REMARK  Name = 5324459
REMARK  3 active torsions:
REMARK  status: ('A' for Active; 'I' for Inactive)
REMARK    1  A    between atoms: C_2  and  C_10
REMARK    2  A    between atoms: C_4  and  N_8
REMARK    3  A    between atoms: N_9  and  N_11
REMARK                            x       y       z     vdW  Elec       q    Type
REMARK                         _______ _______ _______ _____ _____    ______ ____
ROOT
ATOM      1  O   UNL     1     -34.451  24.464   5.770  0.00  0.00    -0.431 OA
ATOM      2  C   UNL     1     -34.568  25.809   5.616  0.00  0.00    +0.168 C 
ATOM      3  C   UNL     1     -35.791  26.130   5.076  0.00  0.00    +0.044 C 
ATOM      4  C   UNL     1     -35.614  23.920   5.325  0.00  0.00    +0.289 C 
ATOM      5  C   UNL     1     -36.471  24.903   4.888  0.00  0.00    +0.066 C 
ENDROOT
BRANCH   4   8
ATOM      6  O   UNL     1     -35.985  21.972   6.502  0.00  0.00    -0.123 OA
ATOM      7  O   UNL     1     -35.478  21.825   4.371  0.00  0.00    -0.123 OA
ATOM      8  N   UNL     1     -35.694  22.529   5.402  0.00  0.00    +0.093 N 
ENDBRANCH   4   8
BRANCH   2  10
ATOM      9  N   UNL     1     -33.039  27.626   5.287  0.00  0.00    -0.151 NA
ATOM     10  C   UNL     1     -33.469  26.623   6.013  0.00  0.00    +0.157 C 
BRANCH   9  11
ATOM     11  N   UNL     1     -31.952  28.361   5.697  0.00  0.00    -0.087 N 
ATOM     12  N   UNL     1     -30.850  27.755   6.111  0.00  0.00    -0.133 NA
ATOM     13  N   UNL     1     -30.682  30.035   6.175  0.00  0.00    -0.201 NA
ATOM     14  C   UNL     1     -31.871  29.699   5.729  0.00  0.00    +0.211 C 
ATOM     15  C   UNL     1     -30.098  28.821   6.395  0.00  0.00    +0.220 C 
ENDBRANCH   9  11
ENDBRANCH   2  10
TORSDOF 3
ENDMDL
MODEL 2
REMARK VINA RESULT:      -5.4      1.220      1.706
REMARK  Name = 5324459
REMARK  3 active torsions:
REMARK  status: ('A' for Active; 'I' for Inactive)
REMARK    1  A    between atoms: C_2  and  C_10
REMARK    2  A    between atoms: C_4  and  N_8
REMARK    3  A    between atoms: N_9  and  N_11
REMARK                            x       y       z     vdW  Elec       q    Type
REMARK                         _______ _______ _______ _____ _____    ______ ____
ROOT
ATOM      1  O   UNL     1     -34.654  24.219   5.565  0.00  0.00    -0.431 OA
ATOM      2  C   UNL     1     -34.389  25.217   4.682  0.00  0.00    +0.168 C 
ATOM      3  C   UNL     1     -34.618  24.796   3.393  0.00  0.00    +0.044 C 
ATOM      4  C   UNL     1     -35.058  23.149   4.832  0.00  0.00    +0.289 C 
ATOM      5  C   UNL     1     -35.053  23.452   3.491  0.00  0.00    +0.066 C 
ENDROOT
BRANCH   4   8
ATOM      6  O   UNL     1     -35.073  20.861   5.122  0.00  0.00    -0.123 OA
ATOM      7  O   UNL     1     -35.984  22.116   6.675  0.00  0.00    -0.123 OA
ATOM      8  N   UNL     1     -35.382  22.006   5.566  0.00  0.00    +0.093 N 
ENDBRANCH   4   8
BRANCH   2  10
ATOM      9  N   UNL     1     -32.779  26.980   4.887  0.00  0.00    -0.151 NA
ATOM     10  C   UNL     1     -33.941  26.465   5.201  0.00  0.00    +0.157 C 
BRANCH   9  11
ATOM     11  N   UNL     1     -32.378  28.172   5.442  0.00  0.00    -0.087 N 
ATOM     12  N   UNL     1     -32.544  29.309   4.783  0.00  0.00    -0.133 NA
ATOM     13  N   UNL     1     -31.565  29.608   6.829  0.00  0.00    -0.201 NA
ATOM     14  C   UNL     1     -31.804  28.330   6.644  0.00  0.00    +0.211 C 
ATOM     15  C   UNL     1     -32.031  30.163   5.672  0.00  0.00    +0.220 C 
ENDBRANCH   9  11
ENDBRANCH   2  10
TORSDOF 3
ENDMDL
MODEL 3
REMARK VINA RESULT:      -5.2      1.840      2.573
REMARK  Name = 5324459
REMARK  3 active torsions:
REMARK  status: ('A' for Active; 'I' for Inactive)
REMARK    1  A    between atoms: C_2  and  C_10
REMARK    2  A    between atoms: C_4  and  N_8
REMARK    3  A    between atoms: N_9  and  N_11
REMARK                            x       y       z     vdW  Elec       q    Type
REMARK                         _______ _______ _______ _____ _____    ______ ____
ROOT
ATOM      1  O   UNL     1     -35.087  23.383   4.079  0.00  0.00    -0.431 OA
ATOM      2  C   UNL     1     -34.863  23.868   5.329  0.00  0.00    +0.168 C 
ATOM      3  C   UNL     1     -35.128  22.906   6.275  0.00  0.00    +0.044 C 
ATOM      4  C   UNL     1     -35.499  22.097   4.230  0.00  0.00    +0.289 C 
ATOM      5  C   UNL     1     -35.541  21.755   5.561  0.00  0.00    +0.066 C 
ENDROOT
BRANCH   4   8
ATOM      6  O   UNL     1     -36.520  21.951   2.167  0.00  0.00    -0.123 OA
ATOM      7  O   UNL     1     -35.300  20.259   2.850  0.00  0.00    -0.123 OA
ATOM      8  N   UNL     1     -35.783  21.414   3.045  0.00  0.00    +0.093 N 
ENDBRANCH   4   8
BRANCH   2  10
ATOM      9  N   UNL     1     -33.385  25.675   4.788  0.00  0.00    -0.151 NA
ATOM     10  C   UNL     1     -34.417  25.214   5.451  0.00  0.00    +0.157 C 
BRANCH   9  11
ATOM     11  N   UNL     1     -32.973  26.975   4.967  0.00  0.00    -0.087 N 
ATOM     12  N   UNL     1     -32.367  27.339   6.087  0.00  0.00    -0.133 NA
ATOM     13  N   UNL     1     -32.602  29.067   4.608  0.00  0.00    -0.201 NA
ATOM     14  C   UNL     1     -33.119  27.977   4.088  0.00  0.00    +0.211 C 
ATOM     15  C   UNL     1     -32.159  28.630   5.822  0.00  0.00    +0.220 C 
ENDBRANCH   9  11
ENDBRANCH   2  10
TORSDOF 3
ENDMDL
MODEL 4
REMARK VINA RESULT:      -5.1      4.780      7.267
REMARK  Name = 5324459
REMARK  3 active torsions:
REMARK  status: ('A' for Active; 'I' for Inactive)
REMARK    1  A    between atoms: C_2  and  C_10
REMARK    2  A    between atoms: C_4  and  N_8
REMARK    3  A    between atoms: N_9  and  N_11
REMARK                            x       y       z     vdW  Elec       q    Type
REMARK                         _______ _______ _______ _____ _____    ______ ____
ROOT
ATOM      1  O   UNL     1     -36.816  23.324   4.214  0.00  0.00    -0.431 OA
ATOM      2  C   UNL     1     -37.106  24.649   4.135  0.00  0.00    +0.168 C 
ATOM      3  C   UNL     1     -36.225  25.384   4.894  0.00  0.00    +0.044 C 
ATOM      4  C   UNL     1     -35.737  23.211   5.031  0.00  0.00    +0.289 C 
ATOM      5  C   UNL     1     -35.335  24.449   5.476  0.00  0.00    +0.066 C 
ENDROOT
BRANCH   4   8
ATOM      6  O   UNL     1     -34.819  21.577   6.375  0.00  0.00    -0.123 OA
ATOM      7  O   UNL     1     -35.319  21.064   4.300  0.00  0.00    -0.123 OA
ATOM      8  N   UNL     1     -35.277  21.910   5.242  0.00  0.00    +0.093 N 
ENDBRANCH   4   8
BRANCH   2  10
ATOM      9  N   UNL     1     -39.359  24.411   3.353  0.00  0.00    -0.151 NA
ATOM     10  C   UNL     1     -38.211  25.043   3.328  0.00  0.00    +0.157 C 
BRANCH   9  11
ATOM     11  N   UNL     1     -40.385  24.809   2.528  0.00  0.00    -0.087 N 
ATOM     12  N   UNL     1     -40.831  24.004   1.575  0.00  0.00    -0.133 NA
ATOM     13  N   UNL     1     -41.943  26.001   1.638  0.00  0.00    -0.201 NA
ATOM     14  C   UNL     1     -41.027  25.985   2.579  0.00  0.00    +0.211 C 
ATOM     15  C   UNL     1     -41.786  24.777   1.055  0.00  0.00    +0.220 C 
ENDBRANCH   9  11
ENDBRANCH   2  10
TORSDOF 3
ENDMDL
MODEL 5
REMARK VINA RESULT:      -5.1      4.142      7.895
REMARK  Name = 5324459
REMARK  3 active torsions:
REMARK  status: ('A' for Active; 'I' for Inactive)
REMARK    1  A    between atoms: C_2  and  C_10
REMARK    2  A    between atoms: C_4  and  N_8
REMARK    3  A    between atoms: N_9  and  N_11
REMARK                            x       y       z     vdW  Elec       q    Type
REMARK                         _______ _______ _______ _____ _____    ______ ____
ROOT
ATOM      1  O   UNL     1     -35.523  23.489   4.162  0.00  0.00    -0.431 OA
ATOM      2  C   UNL     1     -35.531  22.131   4.190  0.00  0.00    +0.168 C 
ATOM      3  C   UNL     1     -35.327  21.673   5.470  0.00  0.00    +0.044 C 
ATOM      4  C   UNL     1     -35.313  23.903   5.438  0.00  0.00    +0.289 C 
ATOM      5  C   UNL     1     -35.186  22.824   6.282  0.00  0.00    +0.066 C 
ENDROOT
BRANCH   4   8
ATOM      6  O   UNL     1     -34.192  25.846   5.976  0.00  0.00    -0.123 OA
ATOM      7  O   UNL     1     -36.315  25.981   5.434  0.00  0.00    -0.123 OA
ATOM      8  N   UNL     1     -35.272  25.286   5.623  0.00  0.00    +0.093 N 
ENDBRANCH   4   8
BRANCH   2  10
ATOM      9  N   UNL     1     -35.143  20.304   2.689  0.00  0.00    -0.151 NA
ATOM     10  C   UNL     1     -35.735  21.440   2.962  0.00  0.00    +0.157 C 
BRANCH   9  11
ATOM     11  N   UNL     1     -35.347  19.692   1.474  0.00  0.00    -0.087 N 
ATOM     12  N   UNL     1     -34.348  19.082   0.854  0.00  0.00    -0.133 NA
ATOM     13  N   UNL     1     -36.312  18.971  -0.312  0.00  0.00    -0.201 NA
ATOM     14  C   UNL     1     -36.506  19.637   0.803  0.00  0.00    +0.211 C 
ATOM     15  C   UNL     1     -34.986  18.655  -0.238  0.00  0.00    +0.220 C 
ENDBRANCH   9  11
ENDBRANCH   2  10
TORSDOF 3
ENDMDL
MODEL 6
REMARK VINA RESULT:      -5.0      3.680      6.692
REMARK  Name = 5324459
REMARK  3 active torsions:
REMARK  status: ('A' for Active; 'I' for Inactive)
REMARK    1  A    between atoms: C_2  and  C_10
REMARK    2  A    between atoms: C_4  and  N_8
REMARK    3  A    between atoms: N_9  and  N_11
REMARK                            x       y       z     vdW  Elec       q    Type
REMARK                         _______ _______ _______ _____ _____    ______ ____
ROOT
ATOM      1  O   UNL     1     -30.180  27.572   6.344  0.00  0.00    -0.431 OA
ATOM      2  C   UNL     1     -31.059  28.489   5.861  0.00  0.00    +0.168 C 
ATOM      3  C   UNL     1     -30.520  29.752   5.918  0.00  0.00    +0.044 C 
ATOM      4  C   UNL     1     -29.067  28.258   6.713  0.00  0.00    +0.289 C 
ATOM      5  C   UNL     1     -29.225  29.602   6.471  0.00  0.00    +0.066 C 
ENDROOT
BRANCH   4   8
ATOM      6  O   UNL     1     -27.861  26.296   6.836  0.00  0.00    -0.123 OA
ATOM      7  O   UNL     1     -27.263  27.972   8.121  0.00  0.00    -0.123 OA
ATOM      8  N   UNL     1     -28.032  27.484   7.240  0.00  0.00    +0.093 N 
ENDBRANCH   4   8
BRANCH   2  10
ATOM      9  N   UNL     1     -32.810  26.856   5.748  0.00  0.00    -0.151 NA
ATOM     10  C   UNL     1     -32.324  28.022   5.402  0.00  0.00    +0.157 C 
BRANCH   9  11
ATOM     11  N   UNL     1     -34.021  26.436   5.250  0.00  0.00    -0.087 N 
ATOM     12  N   UNL     1     -34.647  27.144   4.321  0.00  0.00    -0.133 NA
ATOM     13  N   UNL     1     -35.797  25.260   4.922  0.00  0.00    -0.201 NA
ATOM     14  C   UNL     1     -34.682  25.328   5.614  0.00  0.00    +0.211 C 
ATOM     15  C   UNL     1     -35.731  26.385   4.151  0.00  0.00    +0.220 C 
ENDBRANCH   9  11
ENDBRANCH   2  10
TORSDOF 3
ENDMDL
MODEL 7
REMARK VINA RESULT:      -5.0      3.879      7.905
REMARK  Name = 5324459
REMARK  3 active torsions:
REMARK  status: ('A' for Active; 'I' for Inactive)
REMARK    1  A    between atoms: C_2  and  C_10
REMARK    2  A    between atoms: C_4  and  N_8
REMARK    3  A    between atoms: N_9  and  N_11
REMARK                            x       y       z     vdW  Elec       q    Type
REMARK                         _______ _______ _______ _____ _____    ______ ____
ROOT
ATOM      1  O   UNL     1     -35.827  24.468   4.009  0.00  0.00    -0.431 OA
ATOM      2  C   UNL     1     -36.164  23.152   4.039  0.00  0.00    +0.168 C 
ATOM      3  C   UNL     1     -35.522  22.511   5.072  0.00  0.00    +0.044 C 
ATOM      4  C   UNL     1     -34.959  24.670   5.035  0.00  0.00    +0.289 C 
ATOM      5  C   UNL     1     -34.739  23.498   5.719  0.00  0.00    +0.066 C 
ENDROOT
BRANCH   4   8
ATOM      6  O   UNL     1     -35.178  26.947   4.743  0.00  0.00    -0.123 OA
ATOM      7  O   UNL     1     -33.375  26.191   5.740  0.00  0.00    -0.123 OA
ATOM      8  N   UNL     1     -34.489  25.977   5.176  0.00  0.00    +0.093 N 
ENDBRANCH   4   8
BRANCH   2  10
ATOM      9  N   UNL     1     -38.280  23.169   2.914  0.00  0.00    -0.151 NA
ATOM     10  C   UNL     1     -37.075  22.675   3.054  0.00  0.00    +0.157 C 
BRANCH   9  11
ATOM     11  N   UNL     1     -39.135  22.651   1.970  0.00  0.00    -0.087 N 
ATOM     12  N   UNL     1     -39.530  23.390   0.944  0.00  0.00    -0.133 NA
ATOM     13  N   UNL     1     -40.415  21.281   0.908  0.00  0.00    -0.201 NA
ATOM     14  C   UNL     1     -39.645  21.411   1.963  0.00  0.00    +0.211 C 
ATOM     15  C   UNL     1     -40.315  22.509   0.320  0.00  0.00    +0.220 C 
ENDBRANCH   9  11
ENDBRANCH   2  10
TORSDOF 3
ENDMDL
MODEL 8
REMARK VINA RESULT:      -5.0      2.029      2.339
REMARK  Name = 5324459
REMARK  3 active torsions:
REMARK  status: ('A' for Active; 'I' for Inactive)
REMARK    1  A    between atoms: C_2  and  C_10
REMARK    2  A    between atoms: C_4  and  N_8
REMARK    3  A    between atoms: N_9  and  N_11
REMARK                            x       y       z     vdW  Elec       q    Type
REMARK                         _______ _______ _______ _____ _____    ______ ____
ROOT
ATOM      1  O   UNL     1     -35.702  26.031   4.698  0.00  0.00    -0.431 OA
ATOM      2  C   UNL     1     -34.658  25.545   5.420  0.00  0.00    +0.168 C 
ATOM      3  C   UNL     1     -34.782  24.188   5.598  0.00  0.00    +0.044 C 
ATOM      4  C   UNL     1     -36.502  24.971   4.412  0.00  0.00    +0.289 C 
ATOM      5  C   UNL     1     -35.980  23.814   4.942  0.00  0.00    +0.066 C 
ENDROOT
BRANCH   4   8
ATOM      6  O   UNL     1     -37.642  26.246   2.864  0.00  0.00    -0.123 OA
ATOM      7  O   UNL     1     -38.682  24.548   3.788  0.00  0.00    -0.123 OA
ATOM      8  N   UNL     1     -37.645  25.264   3.665  0.00  0.00    +0.093 N 
ENDBRANCH   4   8
BRANCH   2  10
ATOM      9  N   UNL     1     -33.064  27.292   5.028  0.00  0.00    -0.151 NA
ATOM     10  C   UNL     1     -33.661  26.466   5.852  0.00  0.00    +0.157 C 
BRANCH   9  11
ATOM     11  N   UNL     1     -32.083  28.138   5.488  0.00  0.00    -0.087 N 
ATOM     12  N   UNL     1     -31.069  27.667   6.200  0.00  0.00    -0.133 NA
ATOM     13  N   UNL     1     -30.948  29.928   5.875  0.00  0.00    -0.201 NA
ATOM     14  C   UNL     1     -32.026  29.463   5.289  0.00  0.00    +0.211 C 
ATOM     15  C   UNL     1     -30.399  28.801   6.416  0.00  0.00    +0.220 C 
ENDBRANCH   9  11
ENDBRANCH   2  10
TORSDOF 3
ENDMDL
MODEL 9
REMARK VINA RESULT:      -4.9      3.803      7.393
REMARK  Name = 5324459
REMARK  3 active torsions:
REMARK  status: ('A' for Active; 'I' for Inactive)
REMARK    1  A    between atoms: C_2  and  C_10
REMARK    2  A    between atoms: C_4  and  N_8
REMARK    3  A    between atoms: N_9  and  N_11
REMARK                            x       y       z     vdW  Elec       q    Type
REMARK                         _______ _______ _______ _____ _____    ______ ____
ROOT
ATOM      1  O   UNL     1     -35.558  26.154   4.513  0.00  0.00    -0.431 OA
ATOM      2  C   UNL     1     -36.345  25.062   4.329  0.00  0.00    +0.168 C 
ATOM      3  C   UNL     1     -35.828  23.975   4.994  0.00  0.00    +0.044 C 
ATOM      4  C   UNL     1     -34.528  25.761   5.306  0.00  0.00    +0.289 C 
ATOM      5  C   UNL     1     -34.647  24.430   5.629  0.00  0.00    +0.066 C 
ENDROOT
BRANCH   4   8
ATOM      6  O   UNL     1     -33.389  27.703   4.805  0.00  0.00    -0.123 OA
ATOM      7  O   UNL     1     -32.961  26.704   6.712  0.00  0.00    -0.123 OA
ATOM      8  N   UNL     1     -33.596  26.753   5.617  0.00  0.00    +0.093 N 
ENDBRANCH   4   8
BRANCH   2  10
ATOM      9  N   UNL     1     -38.578  24.469   3.692  0.00  0.00    -0.151 NA
ATOM     10  C   UNL     1     -37.510  25.208   3.523  0.00  0.00    +0.157 C 
BRANCH   9  11
ATOM     11  N   UNL     1     -39.666  24.625   2.865  0.00  0.00    -0.087 N 
ATOM     12  N   UNL     1     -40.372  25.746   2.890  0.00  0.00    -0.133 NA
ATOM     13  N   UNL     1     -41.172  24.228   1.377  0.00  0.00    -0.201 NA
ATOM     14  C   UNL     1     -40.122  23.724   1.984  0.00  0.00    +0.211 C 
ATOM     15  C   UNL     1     -41.286  25.457   1.961  0.00  0.00    +0.220 C 
ENDBRANCH   9  11
ENDBRANCH   2  10
TORSDOF 3
ENDMDL
