MODEL 1
REMARK VINA RESULT:      -5.6      0.000      0.000
REMARK  Name = 5637
REMARK  11 active torsions:
REMARK  status: ('A' for Active; 'I' for Inactive)
REMARK    1  A    between atoms: C_1  and  N_3
REMARK    2  A    between atoms: C_1  and  S_25
REMARK    3  A    between atoms: C_2  and  C_7
REMARK    4  A    between atoms: C_2  and  C_9
REMARK    5  A    between atoms: C_8  and  N_10
REMARK    6  A    between atoms: C_8  and  S_15
REMARK    7  A    between atoms: C_9  and  C_14
REMARK    8  A    between atoms: S_15  and  C_16
REMARK    9  A    between atoms: C_17  and  N_22
REMARK   10  A    between atoms: S_25  and  C_26
REMARK   11  A    between atoms: C_27  and  N_32
REMARK                            x       y       z     vdW  Elec       q    Type
REMARK                         _______ _______ _______ _____ _____    ______ ____
ROOT
ATOM      1  C   UNL     1     -35.269  26.273   4.385  0.00  0.00    +0.082 C 
ATOM      2  C   UNL     1     -34.811  26.656   3.160  0.00  0.00    +0.099 C 
ENDROOT
BRANCH   1   3
ATOM      3  N   UNL     1     -34.585  26.549   5.549  0.00  0.00    -0.352 N 
ATOM      4  H   UNL     1     -35.037  26.460   6.419  0.00  0.00    +0.143 HD
ATOM      5  H   UNL     1     -33.644  26.835   5.510  0.00  0.00    +0.143 HD
ENDBRANCH   1   3
BRANCH   2   7
ATOM      6  N   UNL     1     -36.163  26.099   1.016  0.00  0.00    -0.191 NA
ATOM      7  C   UNL     1     -35.559  26.346   1.975  0.00  0.00    +0.103 C 
ENDBRANCH   2   7
BRANCH   2   9
ATOM      8  C   UNL     1     -33.488  28.739   2.951  0.00  0.00    +0.082 C 
ATOM      9  C   UNL     1     -33.555  27.380   2.919  0.00  0.00    +0.099 C 
BRANCH   8  10
ATOM     10  N   UNL     1     -34.582  29.531   3.221  0.00  0.00    -0.352 N 
ATOM     11  H   UNL     1     -34.579  30.124   4.008  0.00  0.00    +0.143 HD
ATOM     12  H   UNL     1     -35.368  29.504   2.628  0.00  0.00    +0.143 HD
ENDBRANCH   8  10
BRANCH   9  14
ATOM     13  N   UNL     1     -31.503  25.871   2.419  0.00  0.00    -0.191 NA
ATOM     14  C   UNL     1     -32.422  26.546   2.638  0.00  0.00    +0.103 C 
ENDBRANCH   9  14
BRANCH   8  15
ATOM     15  S   UNL     1     -31.927  29.537   2.636  0.00  0.00    -0.071 S 
BRANCH  15  16
ATOM     16  C   UNL     1     -31.273  29.438   4.298  0.00  0.00    +0.043 C 
ATOM     17  C   UNL     1     -30.107  28.732   4.593  0.00  0.00    +0.048 C 
ATOM     18  C   UNL     1     -31.965  30.095   5.316  0.00  0.00    +0.008 C 
ATOM     19  C   UNL     1     -29.632  28.681   5.904  0.00  0.00    +0.015 C 
ATOM     20  C   UNL     1     -31.492  30.043   6.628  0.00  0.00    +0.001 C 
ATOM     21  C   UNL     1     -30.326  29.337   6.921  0.00  0.00    +0.001 C 
BRANCH  17  22
ATOM     22  N   UNL     1     -29.377  28.054   3.588  0.00  0.00    -0.357 N 
ATOM     23  H   UNL     1     -29.800  27.322   3.083  0.00  0.00    +0.142 HD
ATOM     24  H   UNL     1     -28.449  28.314   3.394  0.00  0.00    +0.142 HD
ENDBRANCH  17  22
ENDBRANCH  15  16
ENDBRANCH   8  15
ENDBRANCH   2   9
BRANCH   1  25
ATOM     25  S   UNL     1     -36.777  25.322   4.478  0.00  0.00    -0.071 S 
BRANCH  25  26
ATOM     26  C   UNL     1     -36.077  23.687   4.642  0.00  0.00    +0.043 C 
ATOM     27  C   UNL     1     -36.059  22.778   3.583  0.00  0.00    +0.048 C 
ATOM     28  C   UNL     1     -35.536  23.322   5.876  0.00  0.00    +0.008 C 
ATOM     29  C   UNL     1     -35.503  21.510   3.756  0.00  0.00    +0.015 C 
ATOM     30  C   UNL     1     -34.979  22.055   6.051  0.00  0.00    +0.001 C 
ATOM     31  C   UNL     1     -34.963  21.149   4.990  0.00  0.00    +0.001 C 
BRANCH  27  32
ATOM     32  N   UNL     1     -36.598  23.107   2.317  0.00  0.00    -0.357 N 
ATOM     33  H   UNL     1     -35.997  23.321   1.567  0.00  0.00    +0.142 HD
ATOM     34  H   UNL     1     -37.573  23.122   2.185  0.00  0.00    +0.142 HD
ENDBRANCH  27  32
ENDBRANCH  25  26
ENDBRANCH   1  25
TORSDOF 11
ENDMDL
MODEL 2
REMARK VINA RESULT:      -5.6      4.747      8.613
REMARK  Name = 5637
REMARK  11 active torsions:
REMARK  status: ('A' for Active; 'I' for Inactive)
REMARK    1  A    between atoms: C_1  and  N_3
REMARK    2  A    between atoms: C_1  and  S_25
REMARK    3  A    between atoms: C_2  and  C_7
REMARK    4  A    between atoms: C_2  and  C_9
REMARK    5  A    between atoms: C_8  and  N_10
REMARK    6  A    between atoms: C_8  and  S_15
REMARK    7  A    between atoms: C_9  and  C_14
REMARK    8  A    between atoms: S_15  and  C_16
REMARK    9  A    between atoms: C_17  and  N_22
REMARK   10  A    between atoms: S_25  and  C_26
REMARK   11  A    between atoms: C_27  and  N_32
REMARK                            x       y       z     vdW  Elec       q    Type
REMARK                         _______ _______ _______ _____ _____    ______ ____
ROOT
ATOM      1  C   UNL     1     -37.245  22.951   1.067  0.00  0.00    +0.082 C 
ATOM      2  C   UNL     1     -37.881  21.777   0.795  0.00  0.00    +0.099 C 
ENDROOT
BRANCH   1   3
ATOM      3  N   UNL     1     -36.009  23.260   0.543  0.00  0.00    -0.352 N 
ATOM      4  H   UNL     1     -35.669  24.183   0.594  0.00  0.00    +0.143 HD
ATOM      5  H   UNL     1     -35.465  22.557   0.118  0.00  0.00    +0.143 HD
ENDBRANCH   1   3
BRANCH   2   7
ATOM      6  N   UNL     1     -40.210  21.270   1.822  0.00  0.00    -0.191 NA
ATOM      7  C   UNL     1     -39.169  21.498   1.364  0.00  0.00    +0.103 C 
ENDBRANCH   2   7
BRANCH   2   9
ATOM      8  C   UNL     1     -36.718  19.614   0.468  0.00  0.00    +0.082 C 
ATOM      9  C   UNL     1     -37.343  20.705  -0.055  0.00  0.00    +0.099 C 
BRANCH   8  10
ATOM     10  N   UNL     1     -36.555  19.430   1.823  0.00  0.00    -0.352 N 
ATOM     11  H   UNL     1     -36.570  20.204   2.431  0.00  0.00    +0.143 HD
ATOM     12  H   UNL     1     -36.423  18.523   2.184  0.00  0.00    +0.143 HD
ENDBRANCH   8  10
BRANCH   9  14
ATOM     13  N   UNL     1     -37.655  21.078  -2.604  0.00  0.00    -0.191 NA
ATOM     14  C   UNL     1     -37.518  20.907  -1.464  0.00  0.00    +0.103 C 
ENDBRANCH   9  14
BRANCH   8  15
ATOM     15  S   UNL     1     -36.085  18.367  -0.636  0.00  0.00    -0.071 S 
BRANCH  15  16
ATOM     16  C   UNL     1     -34.386  18.401  -0.079  0.00  0.00    +0.043 C 
ATOM     17  C   UNL     1     -33.712  17.243   0.308  0.00  0.00    +0.048 C 
ATOM     18  C   UNL     1     -33.732  19.633  -0.041  0.00  0.00    +0.008 C 
ATOM     19  C   UNL     1     -32.386  17.315   0.736  0.00  0.00    +0.015 C 
ATOM     20  C   UNL     1     -32.406  19.706   0.388  0.00  0.00    +0.001 C 
ATOM     21  C   UNL     1     -31.733  18.547   0.775  0.00  0.00    +0.001 C 
BRANCH  17  22
ATOM     22  N   UNL     1     -34.341  15.976   0.283  0.00  0.00    -0.357 N 
ATOM     23  H   UNL     1     -35.323  15.915   0.297  0.00  0.00    +0.142 HD
ATOM     24  H   UNL     1     -33.797  15.157   0.249  0.00  0.00    +0.142 HD
ENDBRANCH  17  22
ENDBRANCH  15  16
ENDBRANCH   8  15
ENDBRANCH   2   9
BRANCH   1  25
ATOM     25  S   UNL     1     -38.014  24.101   2.194  0.00  0.00    -0.071 S 
BRANCH  25  26
ATOM     26  C   UNL     1     -36.916  23.915   3.590  0.00  0.00    +0.043 C 
ATOM     27  C   UNL     1     -36.598  24.983   4.432  0.00  0.00    +0.048 C 
ATOM     28  C   UNL     1     -36.366  22.655   3.834  0.00  0.00    +0.008 C 
ATOM     29  C   UNL     1     -35.735  24.792   5.511  0.00  0.00    +0.015 C 
ATOM     30  C   UNL     1     -35.503  22.463   4.913  0.00  0.00    +0.001 C 
ATOM     31  C   UNL     1     -35.187  23.532   5.751  0.00  0.00    +0.001 C 
BRANCH  27  32
ATOM     32  N   UNL     1     -37.132  26.275   4.220  0.00  0.00    -0.357 N 
ATOM     33  H   UNL     1     -36.735  26.867   3.541  0.00  0.00    +0.142 HD
ATOM     34  H   UNL     1     -37.903  26.582   4.750  0.00  0.00    +0.142 HD
ENDBRANCH  27  32
ENDBRANCH  25  26
ENDBRANCH   1  25
TORSDOF 11
ENDMDL
MODEL 3
REMARK VINA RESULT:      -5.6      4.321      8.397
REMARK  Name = 5637
REMARK  11 active torsions:
REMARK  status: ('A' for Active; 'I' for Inactive)
REMARK    1  A    between atoms: C_1  and  N_3
REMARK    2  A    between atoms: C_1  and  S_25
REMARK    3  A    between atoms: C_2  and  C_7
REMARK    4  A    between atoms: C_2  and  C_9
REMARK    5  A    between atoms: C_8  and  N_10
REMARK    6  A    between atoms: C_8  and  S_15
REMARK    7  A    between atoms: C_9  and  C_14
REMARK    8  A    between atoms: S_15  and  C_16
REMARK    9  A    between atoms: C_17  and  N_22
REMARK   10  A    between atoms: S_25  and  C_26
REMARK   11  A    between atoms: C_27  and  N_32
REMARK                            x       y       z     vdW  Elec       q    Type
REMARK                         _______ _______ _______ _____ _____    ______ ____
ROOT
ATOM      1  C   UNL     1     -37.303  23.121   1.691  0.00  0.00    +0.082 C 
ATOM      2  C   UNL     1     -37.914  22.009   1.195  0.00  0.00    +0.099 C 
ENDROOT
BRANCH   1   3
ATOM      3  N   UNL     1     -36.058  23.530   1.267  0.00  0.00    -0.352 N 
ATOM      4  H   UNL     1     -35.601  23.045   0.541  0.00  0.00    +0.143 HD
ATOM      5  H   UNL     1     -35.624  24.306   1.690  0.00  0.00    +0.143 HD
ENDBRANCH   1   3
BRANCH   2   7
ATOM      6  N   UNL     1     -40.264  21.308   2.046  0.00  0.00    -0.191 NA
ATOM      7  C   UNL     1     -39.213  21.621   1.668  0.00  0.00    +0.103 C 
ENDBRANCH   2   7
BRANCH   2   9
ATOM      8  C   UNL     1     -36.732  19.940   0.518  0.00  0.00    +0.082 C 
ATOM      9  C   UNL     1     -37.339  21.112   0.183  0.00  0.00    +0.099 C 
BRANCH   8  10
ATOM     10  N   UNL     1     -36.624  19.505   1.820  0.00  0.00    -0.352 N 
ATOM     11  H   UNL     1     -36.310  20.122   2.521  0.00  0.00    +0.143 HD
ATOM     12  H   UNL     1     -36.861  18.577   2.051  0.00  0.00    +0.143 HD
ENDBRANCH   8  10
BRANCH   9  14
ATOM     13  N   UNL     1     -37.546  21.954  -2.264  0.00  0.00    -0.191 NA
ATOM     14  C   UNL     1     -37.457  21.575  -1.170  0.00  0.00    +0.103 C 
ENDBRANCH   9  14
BRANCH   8  15
ATOM     15  S   UNL     1     -36.052  18.918  -0.772  0.00  0.00    -0.071 S 
BRANCH  15  16
ATOM     16  C   UNL     1     -34.382  18.823  -0.141  0.00  0.00    +0.043 C 
ATOM     17  C   UNL     1     -33.827  17.623   0.305  0.00  0.00    +0.048 C 
ATOM     18  C   UNL     1     -33.626  19.995  -0.102  0.00  0.00    +0.008 C 
ATOM     19  C   UNL     1     -32.519  17.594   0.791  0.00  0.00    +0.015 C 
ATOM     20  C   UNL     1     -32.318  19.967   0.385  0.00  0.00    +0.001 C 
ATOM     21  C   UNL     1     -31.766  18.767   0.830  0.00  0.00    +0.001 C 
BRANCH  17  22
ATOM     22  N   UNL     1     -34.561  16.414   0.281  0.00  0.00    -0.357 N 
ATOM     23  H   UNL     1     -34.645  15.906  -0.558  0.00  0.00    +0.142 HD
ATOM     24  H   UNL     1     -34.986  16.080   1.103  0.00  0.00    +0.142 HD
ENDBRANCH  17  22
ENDBRANCH  15  16
ENDBRANCH   8  15
ENDBRANCH   2   9
BRANCH   1  25
ATOM     25  S   UNL     1     -38.117  24.043   2.984  0.00  0.00    -0.071 S 
BRANCH  25  26
ATOM     26  C   UNL     1     -36.688  24.523   3.941  0.00  0.00    +0.043 C 
ATOM     27  C   UNL     1     -35.964  23.605   4.705  0.00  0.00    +0.048 C 
ATOM     28  C   UNL     1     -36.295  25.863   3.913  0.00  0.00    +0.008 C 
ATOM     29  C   UNL     1     -34.854  24.024   5.439  0.00  0.00    +0.015 C 
ATOM     30  C   UNL     1     -35.185  26.283   4.646  0.00  0.00    +0.001 C 
ATOM     31  C   UNL     1     -34.465  25.364   5.409  0.00  0.00    +0.001 C 
BRANCH  27  32
ATOM     32  N   UNL     1     -36.329  22.240   4.761  0.00  0.00    -0.357 N 
ATOM     33  H   UNL     1     -36.587  21.834   5.620  0.00  0.00    +0.142 HD
ATOM     34  H   UNL     1     -36.327  21.696   3.941  0.00  0.00    +0.142 HD
ENDBRANCH  27  32
ENDBRANCH  25  26
ENDBRANCH   1  25
TORSDOF 11
ENDMDL
MODEL 4
REMARK VINA RESULT:      -5.6      0.130      6.949
REMARK  Name = 5637
REMARK  11 active torsions:
REMARK  status: ('A' for Active; 'I' for Inactive)
REMARK    1  A    between atoms: C_1  and  N_3
REMARK    2  A    between atoms: C_1  and  S_25
REMARK    3  A    between atoms: C_2  and  C_7
REMARK    4  A    between atoms: C_2  and  C_9
REMARK    5  A    between atoms: C_8  and  N_10
REMARK    6  A    between atoms: C_8  and  S_15
REMARK    7  A    between atoms: C_9  and  C_14
REMARK    8  A    between atoms: S_15  and  C_16
REMARK    9  A    between atoms: C_17  and  N_22
REMARK   10  A    between atoms: S_25  and  C_26
REMARK   11  A    between atoms: C_27  and  N_32
REMARK                            x       y       z     vdW  Elec       q    Type
REMARK                         _______ _______ _______ _____ _____    ______ ____
ROOT
ATOM      1  C   UNL     1     -33.611  28.731   3.032  0.00  0.00    +0.082 C 
ATOM      2  C   UNL     1     -33.691  27.374   2.932  0.00  0.00    +0.099 C 
ENDROOT
BRANCH   1   3
ATOM      3  N   UNL     1     -34.710  29.517   3.300  0.00  0.00    -0.352 N 
ATOM      4  H   UNL     1     -34.854  29.870   4.208  0.00  0.00    +0.143 HD
ATOM      5  H   UNL     1     -35.351  29.727   2.583  0.00  0.00    +0.143 HD
ENDBRANCH   1   3
BRANCH   2   7
ATOM      6  N   UNL     1     -31.573  25.962   2.424  0.00  0.00    -0.191 NA
ATOM      7  C   UNL     1     -32.518  26.595   2.652  0.00  0.00    +0.103 C 
ENDBRANCH   2   7
BRANCH   2   9
ATOM      8  C   UNL     1     -35.394  26.197   4.293  0.00  0.00    +0.082 C 
ATOM      9  C   UNL     1     -34.926  26.590   3.076  0.00  0.00    +0.099 C 
BRANCH   8  10
ATOM     10  N   UNL     1     -34.756  26.514   5.472  0.00  0.00    -0.352 N 
ATOM     11  H   UNL     1     -35.114  27.226   6.050  0.00  0.00    +0.143 HD
ATOM     12  H   UNL     1     -33.941  26.027   5.736  0.00  0.00    +0.143 HD
ENDBRANCH   8  10
BRANCH   9  14
ATOM     13  N   UNL     1     -36.106  25.999   0.841  0.00  0.00    -0.191 NA
ATOM     14  C   UNL     1     -35.582  26.266   1.842  0.00  0.00    +0.103 C 
ENDBRANCH   9  14
BRANCH   8  15
ATOM     15  S   UNL     1     -36.893  25.239   4.376  0.00  0.00    -0.071 S 
BRANCH  15  16
ATOM     16  C   UNL     1     -36.135  23.634   4.591  0.00  0.00    +0.043 C 
ATOM     17  C   UNL     1     -36.061  22.706   3.552  0.00  0.00    +0.048 C 
ATOM     18  C   UNL     1     -35.605  23.320   5.843  0.00  0.00    +0.008 C 
ATOM     19  C   UNL     1     -35.460  21.464   3.764  0.00  0.00    +0.015 C 
ATOM     20  C   UNL     1     -35.005  22.078   6.057  0.00  0.00    +0.001 C 
ATOM     21  C   UNL     1     -34.933  21.152   5.017  0.00  0.00    +0.001 C 
BRANCH  17  22
ATOM     22  N   UNL     1     -36.586  22.987   2.269  0.00  0.00    -0.357 N 
ATOM     23  H   UNL     1     -36.154  23.663   1.699  0.00  0.00    +0.142 HD
ATOM     24  H   UNL     1     -37.381  22.506   1.947  0.00  0.00    +0.142 HD
ENDBRANCH  17  22
ENDBRANCH  15  16
ENDBRANCH   8  15
ENDBRANCH   2   9
BRANCH   1  25
ATOM     25  S   UNL     1     -32.038  29.520   2.741  0.00  0.00    -0.071 S 
BRANCH  25  26
ATOM     26  C   UNL     1     -31.342  29.392   4.380  0.00  0.00    +0.043 C 
ATOM     27  C   UNL     1     -30.142  28.720   4.627  0.00  0.00    +0.048 C 
ATOM     28  C   UNL     1     -32.032  29.987   5.438  0.00  0.00    +0.008 C 
ATOM     29  C   UNL     1     -29.636  28.644   5.924  0.00  0.00    +0.015 C 
ATOM     30  C   UNL     1     -31.526  29.911   6.736  0.00  0.00    +0.001 C 
ATOM     31  C   UNL     1     -30.328  29.239   6.979  0.00  0.00    +0.001 C 
BRANCH  27  32
ATOM     32  N   UNL     1     -29.413  28.103   3.584  0.00  0.00    -0.357 N 
ATOM     33  H   UNL     1     -29.106  28.637   2.816  0.00  0.00    +0.142 HD
ATOM     34  H   UNL     1     -29.211  27.141   3.626  0.00  0.00    +0.142 HD
ENDBRANCH  27  32
ENDBRANCH  25  26
ENDBRANCH   1  25
TORSDOF 11
ENDMDL
MODEL 5
REMARK VINA RESULT:      -5.6      4.706      7.598
REMARK  Name = 5637
REMARK  11 active torsions:
REMARK  status: ('A' for Active; 'I' for Inactive)
REMARK    1  A    between atoms: C_1  and  N_3
REMARK    2  A    between atoms: C_1  and  S_25
REMARK    3  A    between atoms: C_2  and  C_7
REMARK    4  A    between atoms: C_2  and  C_9
REMARK    5  A    between atoms: C_8  and  N_10
REMARK    6  A    between atoms: C_8  and  S_15
REMARK    7  A    between atoms: C_9  and  C_14
REMARK    8  A    between atoms: S_15  and  C_16
REMARK    9  A    between atoms: C_17  and  N_22
REMARK   10  A    between atoms: S_25  and  C_26
REMARK   11  A    between atoms: C_27  and  N_32
REMARK                            x       y       z     vdW  Elec       q    Type
REMARK                         _______ _______ _______ _____ _____    ______ ____
ROOT
ATOM      1  C   UNL     1     -36.691  19.695   0.438  0.00  0.00    +0.082 C 
ATOM      2  C   UNL     1     -37.383  20.792   0.019  0.00  0.00    +0.099 C 
ENDROOT
BRANCH   1   3
ATOM      3  N   UNL     1     -36.456  19.435   1.770  0.00  0.00    -0.352 N 
ATOM      4  H   UNL     1     -35.548  19.201   2.074  0.00  0.00    +0.143 HD
ATOM      5  H   UNL     1     -37.195  19.483   2.419  0.00  0.00    +0.143 HD
ENDBRANCH   1   3
BRANCH   2   7
ATOM      6  N   UNL     1     -37.782  21.203  -2.512  0.00  0.00    -0.191 NA
ATOM      7  C   UNL     1     -37.604  21.021  -1.380  0.00  0.00    +0.103 C 
ENDBRANCH   2   7
BRANCH   2   9
ATOM      8  C   UNL     1     -37.271  22.975   1.183  0.00  0.00    +0.082 C 
ATOM      9  C   UNL     1     -37.942  21.824   0.904  0.00  0.00    +0.099 C 
BRANCH   8  10
ATOM     10  N   UNL     1     -36.033  23.262   0.651  0.00  0.00    -0.352 N 
ATOM     11  H   UNL     1     -35.692  24.186   0.666  0.00  0.00    +0.143 HD
ATOM     12  H   UNL     1     -35.490  22.543   0.254  0.00  0.00    +0.143 HD
ENDBRANCH   8  10
BRANCH   9  14
ATOM     13  N   UNL     1     -40.270  21.258   1.902  0.00  0.00    -0.191 NA
ATOM     14  C   UNL     1     -39.230  21.515   1.453  0.00  0.00    +0.103 C 
ENDBRANCH   9  14
BRANCH   8  15
ATOM     15  S   UNL     1     -38.017  24.168   2.275  0.00  0.00    -0.071 S 
BRANCH  15  16
ATOM     16  C   UNL     1     -36.905  23.948   3.658  0.00  0.00    +0.043 C 
ATOM     17  C   UNL     1     -36.539  25.008   4.489  0.00  0.00    +0.048 C 
ATOM     18  C   UNL     1     -36.399  22.670   3.898  0.00  0.00    +0.008 C 
ATOM     19  C   UNL     1     -35.668  24.791   5.557  0.00  0.00    +0.015 C 
ATOM     20  C   UNL     1     -35.527  22.453   4.966  0.00  0.00    +0.001 C 
ATOM     21  C   UNL     1     -35.163  23.513   5.795  0.00  0.00    +0.001 C 
BRANCH  17  22
ATOM     22  N   UNL     1     -37.031  26.317   4.279  0.00  0.00    -0.357 N 
ATOM     23  H   UNL     1     -37.105  26.674   3.364  0.00  0.00    +0.142 HD
ATOM     24  H   UNL     1     -37.299  26.872   5.046  0.00  0.00    +0.142 HD
ENDBRANCH  17  22
ENDBRANCH  15  16
ENDBRANCH   8  15
ENDBRANCH   2   9
BRANCH   1  25
ATOM     25  S   UNL     1     -36.009  18.591  -0.787  0.00  0.00    -0.071 S 
BRANCH  25  26
ATOM     26  C   UNL     1     -34.324  18.516  -0.203  0.00  0.00    +0.043 C 
ATOM     27  C   UNL     1     -33.735  17.320   0.215  0.00  0.00    +0.048 C 
ATOM     28  C   UNL     1     -33.584  19.700  -0.168  0.00  0.00    +0.008 C 
ATOM     29  C   UNL     1     -32.415  17.308   0.665  0.00  0.00    +0.015 C 
ATOM     30  C   UNL     1     -32.263  19.689   0.282  0.00  0.00    +0.001 C 
ATOM     31  C   UNL     1     -31.679  18.492   0.699  0.00  0.00    +0.001 C 
BRANCH  27  32
ATOM     32  N   UNL     1     -34.450  16.100   0.196  0.00  0.00    -0.357 N 
ATOM     33  H   UNL     1     -34.158  15.368  -0.395  0.00  0.00    +0.142 HD
ATOM     34  H   UNL     1     -35.237  15.981   0.774  0.00  0.00    +0.142 HD
ENDBRANCH  27  32
ENDBRANCH  25  26
ENDBRANCH   1  25
TORSDOF 11
ENDMDL
MODEL 6
REMARK VINA RESULT:      -5.5      4.245      7.130
REMARK  Name = 5637
REMARK  11 active torsions:
REMARK  status: ('A' for Active; 'I' for Inactive)
REMARK    1  A    between atoms: C_1  and  N_3
REMARK    2  A    between atoms: C_1  and  S_25
REMARK    3  A    between atoms: C_2  and  C_7
REMARK    4  A    between atoms: C_2  and  C_9
REMARK    5  A    between atoms: C_8  and  N_10
REMARK    6  A    between atoms: C_8  and  S_15
REMARK    7  A    between atoms: C_9  and  C_14
REMARK    8  A    between atoms: S_15  and  C_16
REMARK    9  A    between atoms: C_17  and  N_22
REMARK   10  A    between atoms: S_25  and  C_26
REMARK   11  A    between atoms: C_27  and  N_32
REMARK                            x       y       z     vdW  Elec       q    Type
REMARK                         _______ _______ _______ _____ _____    ______ ____
ROOT
ATOM      1  C   UNL     1     -36.718  19.993   0.539  0.00  0.00    +0.082 C 
ATOM      2  C   UNL     1     -37.349  21.171   0.276  0.00  0.00    +0.099 C 
ENDROOT
BRANCH   1   3
ATOM      3  N   UNL     1     -36.590  19.494   1.817  0.00  0.00    -0.352 N 
ATOM      4  H   UNL     1     -37.368  19.478   2.420  0.00  0.00    +0.143 HD
ATOM      5  H   UNL     1     -35.720  19.152   2.127  0.00  0.00    +0.143 HD
ENDBRANCH   1   3
BRANCH   2   7
ATOM      6  N   UNL     1     -37.544  22.039  -2.163  0.00  0.00    -0.191 NA
ATOM      7  C   UNL     1     -37.459  21.652  -1.072  0.00  0.00    +0.103 C 
ENDBRANCH   2   7
BRANCH   2   9
ATOM      8  C   UNL     1     -37.298  23.149   1.767  0.00  0.00    +0.082 C 
ATOM      9  C   UNL     1     -37.948  22.052   1.289  0.00  0.00    +0.099 C 
BRANCH   8  10
ATOM     10  N   UNL     1     -36.045  23.519   1.329  0.00  0.00    -0.352 N 
ATOM     11  H   UNL     1     -35.534  22.922   0.735  0.00  0.00    +0.143 HD
ATOM     12  H   UNL     1     -35.661  24.382   1.609  0.00  0.00    +0.143 HD
ENDBRANCH   8  10
BRANCH   9  14
ATOM     13  N   UNL     1     -40.306  21.329   2.096  0.00  0.00    -0.191 NA
ATOM     14  C   UNL     1     -39.251  21.656   1.738  0.00  0.00    +0.103 C 
ENDBRANCH   9  14
BRANCH   8  15
ATOM     15  S   UNL     1     -38.092  24.155   3.003  0.00  0.00    -0.071 S 
BRANCH  15  16
ATOM     16  C   UNL     1     -36.619  24.631   3.899  0.00  0.00    +0.043 C 
ATOM     17  C   UNL     1     -35.924  23.733   4.710  0.00  0.00    +0.048 C 
ATOM     18  C   UNL     1     -36.167  25.945   3.769  0.00  0.00    +0.008 C 
ATOM     19  C   UNL     1     -34.779  24.148   5.391  0.00  0.00    +0.015 C 
ATOM     20  C   UNL     1     -35.022  26.360   4.451  0.00  0.00    +0.001 C 
ATOM     21  C   UNL     1     -34.329  25.461   5.261  0.00  0.00    +0.001 C 
BRANCH  17  22
ATOM     22  N   UNL     1     -36.351  22.394   4.867  0.00  0.00    -0.357 N 
ATOM     23  H   UNL     1     -37.312  22.183   4.884  0.00  0.00    +0.142 HD
ATOM     24  H   UNL     1     -35.687  21.673   4.957  0.00  0.00    +0.142 HD
ENDBRANCH  17  22
ENDBRANCH  15  16
ENDBRANCH   8  15
ENDBRANCH   2   9
BRANCH   1  25
ATOM     25  S   UNL     1     -35.973  19.098  -0.813  0.00  0.00    -0.071 S 
BRANCH  25  26
ATOM     26  C   UNL     1     -34.322  18.909  -0.160  0.00  0.00    +0.043 C 
ATOM     27  C   UNL     1     -33.833  17.677   0.279  0.00  0.00    +0.048 C 
ATOM     28  C   UNL     1     -33.506  20.041  -0.094  0.00  0.00    +0.008 C 
ATOM     29  C   UNL     1     -32.536  17.576   0.783  0.00  0.00    +0.015 C 
ATOM     30  C   UNL     1     -32.208  19.940   0.409  0.00  0.00    +0.001 C 
ATOM     31  C   UNL     1     -31.724  18.708   0.848  0.00  0.00    +0.001 C 
BRANCH  27  32
ATOM     32  N   UNL     1     -34.627  16.508   0.230  0.00  0.00    -0.357 N 
ATOM     33  H   UNL     1     -34.225  15.631   0.424  0.00  0.00    +0.142 HD
ATOM     34  H   UNL     1     -35.583  16.571   0.003  0.00  0.00    +0.142 HD
ENDBRANCH  27  32
ENDBRANCH  25  26
ENDBRANCH   1  25
TORSDOF 11
ENDMDL
MODEL 7
REMARK VINA RESULT:      -5.5      5.195     10.251
REMARK  Name = 5637
REMARK  11 active torsions:
REMARK  status: ('A' for Active; 'I' for Inactive)
REMARK    1  A    between atoms: C_1  and  N_3
REMARK    2  A    between atoms: C_1  and  S_25
REMARK    3  A    between atoms: C_2  and  C_7
REMARK    4  A    between atoms: C_2  and  C_9
REMARK    5  A    between atoms: C_8  and  N_10
REMARK    6  A    between atoms: C_8  and  S_15
REMARK    7  A    between atoms: C_9  and  C_14
REMARK    8  A    between atoms: S_15  and  C_16
REMARK    9  A    between atoms: C_17  and  N_22
REMARK   10  A    between atoms: S_25  and  C_26
REMARK   11  A    between atoms: C_27  and  N_32
REMARK                            x       y       z     vdW  Elec       q    Type
REMARK                         _______ _______ _______ _____ _____    ______ ____
ROOT
ATOM      1  C   UNL     1     -37.333  22.872   1.106  0.00  0.00    +0.082 C 
ATOM      2  C   UNL     1     -38.020  21.752   0.743  0.00  0.00    +0.099 C 
ENDROOT
BRANCH   1   3
ATOM      3  N   UNL     1     -36.090  23.174   0.596  0.00  0.00    -0.352 N 
ATOM      4  H   UNL     1     -35.974  23.304  -0.374  0.00  0.00    +0.143 HD
ATOM      5  H   UNL     1     -35.317  23.259   1.200  0.00  0.00    +0.143 HD
ENDBRANCH   1   3
BRANCH   2   7
ATOM      6  N   UNL     1     -40.359  21.254   1.751  0.00  0.00    -0.191 NA
ATOM      7  C   UNL     1     -39.314  21.479   1.301  0.00  0.00    +0.103 C 
ENDBRANCH   2   7
BRANCH   2   9
ATOM      8  C   UNL     1     -36.956  19.578   0.216  0.00  0.00    +0.082 C 
ATOM      9  C   UNL     1     -37.535  20.737  -0.204  0.00  0.00    +0.099 C 
BRANCH   8  10
ATOM     10  N   UNL     1     -36.793  19.269   1.548  0.00  0.00    -0.352 N 
ATOM     11  H   UNL     1     -37.428  18.662   1.994  0.00  0.00    +0.143 HD
ATOM     12  H   UNL     1     -36.042  19.654   2.055  0.00  0.00    +0.143 HD
ENDBRANCH   8  10
BRANCH   9  14
ATOM     13  N   UNL     1     -37.855  21.346  -2.706  0.00  0.00    -0.191 NA
ATOM     14  C   UNL     1     -37.710  21.070  -1.588  0.00  0.00    +0.103 C 
ENDBRANCH   9  14
BRANCH   8  15
ATOM     15  S   UNL     1     -36.386  18.407  -0.999  0.00  0.00    -0.071 S 
BRANCH  15  16
ATOM     16  C   UNL     1     -37.815  17.332  -0.977  0.00  0.00    +0.043 C 
ATOM     17  C   UNL     1     -37.817  16.117  -0.292  0.00  0.00    +0.048 C 
ATOM     18  C   UNL     1     -38.955  17.741  -1.672  0.00  0.00    +0.008 C 
ATOM     19  C   UNL     1     -38.954  15.309  -0.302  0.00  0.00    +0.015 C 
ATOM     20  C   UNL     1     -40.093  16.933  -1.683  0.00  0.00    +0.001 C 
ATOM     21  C   UNL     1     -40.092  15.718  -0.998  0.00  0.00    +0.001 C 
BRANCH  17  22
ATOM     22  N   UNL     1     -36.681  15.669   0.423  0.00  0.00    -0.357 N 
ATOM     23  H   UNL     1     -36.718  14.821   0.922  0.00  0.00    +0.142 HD
ATOM     24  H   UNL     1     -35.855  16.204   0.420  0.00  0.00    +0.142 HD
ENDBRANCH  17  22
ENDBRANCH  15  16
ENDBRANCH   8  15
ENDBRANCH   2   9
BRANCH   1  25
ATOM     25  S   UNL     1     -38.043  23.950   2.338  0.00  0.00    -0.071 S 
BRANCH  25  26
ATOM     26  C   UNL     1     -36.866  23.698   3.656  0.00  0.00    +0.043 C 
ATOM     27  C   UNL     1     -36.497  24.724   4.529  0.00  0.00    +0.048 C 
ATOM     28  C   UNL     1     -36.305  22.428   3.805  0.00  0.00    +0.008 C 
ATOM     29  C   UNL     1     -35.573  24.482   5.545  0.00  0.00    +0.015 C 
ATOM     30  C   UNL     1     -35.380  22.185   4.822  0.00  0.00    +0.001 C 
ATOM     31  C   UNL     1     -35.014  23.212   5.691  0.00  0.00    +0.001 C 
BRANCH  27  32
ATOM     32  N   UNL     1     -37.041  26.024   4.412  0.00  0.00    -0.357 N 
ATOM     33  H   UNL     1     -36.882  26.552   3.597  0.00  0.00    +0.142 HD
ATOM     34  H   UNL     1     -37.580  26.400   5.145  0.00  0.00    +0.142 HD
ENDBRANCH  27  32
ENDBRANCH  25  26
ENDBRANCH   1  25
TORSDOF 11
ENDMDL
MODEL 8
REMARK VINA RESULT:      -5.2      1.163      2.256
REMARK  Name = 5637
REMARK  11 active torsions:
REMARK  status: ('A' for Active; 'I' for Inactive)
REMARK    1  A    between atoms: C_1  and  N_3
REMARK    2  A    between atoms: C_1  and  S_25
REMARK    3  A    between atoms: C_2  and  C_7
REMARK    4  A    between atoms: C_2  and  C_9
REMARK    5  A    between atoms: C_8  and  N_10
REMARK    6  A    between atoms: C_8  and  S_15
REMARK    7  A    between atoms: C_9  and  C_14
REMARK    8  A    between atoms: S_15  and  C_16
REMARK    9  A    between atoms: C_17  and  N_22
REMARK   10  A    between atoms: S_25  and  C_26
REMARK   11  A    between atoms: C_27  and  N_32
REMARK                            x       y       z     vdW  Elec       q    Type
REMARK                         _______ _______ _______ _____ _____    ______ ____
ROOT
ATOM      1  C   UNL     1     -35.639  25.795   2.367  0.00  0.00    +0.082 C 
ATOM      2  C   UNL     1     -34.671  26.165   3.252  0.00  0.00    +0.099 C 
ENDROOT
BRANCH   1   3
ATOM      3  N   UNL     1     -35.657  26.242   1.064  0.00  0.00    -0.352 N 
ATOM      4  H   UNL     1     -34.812  26.445   0.601  0.00  0.00    +0.143 HD
ATOM      5  H   UNL     1     -36.515  26.359   0.596  0.00  0.00    +0.143 HD
ENDBRANCH   1   3
BRANCH   2   7
ATOM      6  N   UNL     1     -34.707  25.278   5.691  0.00  0.00    -0.191 NA
ATOM      7  C   UNL     1     -34.693  25.673   4.601  0.00  0.00    +0.103 C 
ENDBRANCH   2   7
BRANCH   2   9
ATOM      8  C   UNL     1     -33.692  28.430   3.030  0.00  0.00    +0.082 C 
ATOM      9  C   UNL     1     -33.558  27.077   2.952  0.00  0.00    +0.099 C 
BRANCH   8  10
ATOM     10  N   UNL     1     -34.869  29.039   3.406  0.00  0.00    -0.352 N 
ATOM     11  H   UNL     1     -35.295  28.802   4.261  0.00  0.00    +0.143 HD
ATOM     12  H   UNL     1     -35.284  29.712   2.819  0.00  0.00    +0.143 HD
ENDBRANCH   8  10
BRANCH   9  14
ATOM     13  N   UNL     1     -31.347  25.913   2.250  0.00  0.00    -0.191 NA
ATOM     14  C   UNL     1     -32.338  26.432   2.561  0.00  0.00    +0.103 C 
ENDBRANCH   9  14
BRANCH   8  15
ATOM     15  S   UNL     1     -32.295  29.462   2.637  0.00  0.00    -0.071 S 
BRANCH  15  16
ATOM     16  C   UNL     1     -31.505  29.407   4.240  0.00  0.00    +0.043 C 
ATOM     17  C   UNL     1     -30.240  28.847   4.423  0.00  0.00    +0.048 C 
ATOM     18  C   UNL     1     -32.189  29.949   5.329  0.00  0.00    +0.008 C 
ATOM     19  C   UNL     1     -29.661  28.825   5.692  0.00  0.00    +0.015 C 
ATOM     20  C   UNL     1     -31.611  29.927   6.599  0.00  0.00    +0.001 C 
ATOM     21  C   UNL     1     -30.347  29.366   6.779  0.00  0.00    +0.001 C 
BRANCH  17  22
ATOM     22  N   UNL     1     -29.515  28.289   3.344  0.00  0.00    -0.357 N 
ATOM     23  H   UNL     1     -29.994  27.865   2.596  0.00  0.00    +0.142 HD
ATOM     24  H   UNL     1     -28.532  28.325   3.341  0.00  0.00    +0.142 HD
ENDBRANCH  17  22
ENDBRANCH  15  16
ENDBRANCH   8  15
ENDBRANCH   2   9
BRANCH   1  25
ATOM     25  S   UNL     1     -36.965  24.746   2.935  0.00  0.00    -0.071 S 
BRANCH  25  26
ATOM     26  C   UNL     1     -36.233  23.151   2.606  0.00  0.00    +0.043 C 
ATOM     27  C   UNL     1     -35.958  22.235   3.625  0.00  0.00    +0.048 C 
ATOM     28  C   UNL     1     -35.932  22.824   1.282  0.00  0.00    +0.008 C 
ATOM     29  C   UNL     1     -35.385  21.001   3.321  0.00  0.00    +0.015 C 
ATOM     30  C   UNL     1     -35.358  21.588   0.978  0.00  0.00    +0.001 C 
ATOM     31  C   UNL     1     -35.084  20.677   1.998  0.00  0.00    +0.001 C 
BRANCH  27  32
ATOM     32  N   UNL     1     -36.247  22.528   4.978  0.00  0.00    -0.357 N 
ATOM     33  H   UNL     1     -36.736  21.875   5.529  0.00  0.00    +0.142 HD
ATOM     34  H   UNL     1     -35.959  23.384   5.369  0.00  0.00    +0.142 HD
ENDBRANCH  27  32
ENDBRANCH  25  26
ENDBRANCH   1  25
TORSDOF 11
ENDMDL
MODEL 9
REMARK VINA RESULT:      -5.2      1.294      2.133
REMARK  Name = 5637
REMARK  11 active torsions:
REMARK  status: ('A' for Active; 'I' for Inactive)
REMARK    1  A    between atoms: C_1  and  N_3
REMARK    2  A    between atoms: C_1  and  S_25
REMARK    3  A    between atoms: C_2  and  C_7
REMARK    4  A    between atoms: C_2  and  C_9
REMARK    5  A    between atoms: C_8  and  N_10
REMARK    6  A    between atoms: C_8  and  S_15
REMARK    7  A    between atoms: C_9  and  C_14
REMARK    8  A    between atoms: S_15  and  C_16
REMARK    9  A    between atoms: C_17  and  N_22
REMARK   10  A    between atoms: S_25  and  C_26
REMARK   11  A    between atoms: C_27  and  N_32
REMARK                            x       y       z     vdW  Elec       q    Type
REMARK                         _______ _______ _______ _____ _____    ______ ____
ROOT
ATOM      1  C   UNL     1     -36.114  26.254   3.823  0.00  0.00    +0.082 C 
ATOM      2  C   UNL     1     -35.564  26.605   2.626  0.00  0.00    +0.099 C 
ENDROOT
BRANCH   1   3
ATOM      3  N   UNL     1     -35.678  26.782   5.018  0.00  0.00    -0.352 N 
ATOM      4  H   UNL     1     -34.744  26.651   5.303  0.00  0.00    +0.143 HD
ATOM      5  H   UNL     1     -36.300  27.290   5.588  0.00  0.00    +0.143 HD
ENDBRANCH   1   3
BRANCH   2   7
ATOM      6  N   UNL     1     -36.449  25.562   0.421  0.00  0.00    -0.191 NA
ATOM      7  C   UNL     1     -36.052  26.029   1.406  0.00  0.00    +0.103 C 
ENDBRANCH   2   7
BRANCH   2   9
ATOM      8  C   UNL     1     -33.152  27.160   2.522  0.00  0.00    +0.082 C 
ATOM      9  C   UNL     1     -34.454  27.553   2.455  0.00  0.00    +0.099 C 
BRANCH   8  10
ATOM     10  N   UNL     1     -32.782  25.852   2.742  0.00  0.00    -0.352 N 
ATOM     11  H   UNL     1     -32.827  25.197   2.007  0.00  0.00    +0.143 HD
ATOM     12  H   UNL     1     -32.472  25.571   3.633  0.00  0.00    +0.143 HD
ENDBRANCH   8  10
BRANCH   9  14
ATOM     13  N   UNL     1     -35.180  30.010   2.038  0.00  0.00    -0.191 NA
ATOM     14  C   UNL     1     -34.852  28.912   2.227  0.00  0.00    +0.103 C 
ENDBRANCH   9  14
BRANCH   8  15
ATOM     15  S   UNL     1     -31.869  28.377   2.313  0.00  0.00    -0.071 S 
BRANCH  15  16
ATOM     16  C   UNL     1     -31.862  29.001   3.989  0.00  0.00    +0.043 C 
ATOM     17  C   UNL     1     -32.106  30.343   4.280  0.00  0.00    +0.048 C 
ATOM     18  C   UNL     1     -31.605  28.101   5.025  0.00  0.00    +0.008 C 
ATOM     19  C   UNL     1     -32.091  30.787   5.603  0.00  0.00    +0.015 C 
ATOM     20  C   UNL     1     -31.589  28.544   6.348  0.00  0.00    +0.001 C 
ATOM     21  C   UNL     1     -31.832  29.887   6.636  0.00  0.00    +0.001 C 
BRANCH  17  22
ATOM     22  N   UNL     1     -32.371  31.285   3.259  0.00  0.00    -0.357 N 
ATOM     23  H   UNL     1     -31.914  31.210   2.390  0.00  0.00    +0.142 HD
ATOM     24  H   UNL     1     -33.012  32.015   3.416  0.00  0.00    +0.142 HD
ENDBRANCH  17  22
ENDBRANCH  15  16
ENDBRANCH   8  15
ENDBRANCH   2   9
BRANCH   1  25
ATOM     25  S   UNL     1     -37.400  25.018   3.846  0.00  0.00    -0.071 S 
BRANCH  25  26
ATOM     26  C   UNL     1     -36.424  23.594   4.301  0.00  0.00    +0.043 C 
ATOM     27  C   UNL     1     -36.158  22.558   3.402  0.00  0.00    +0.048 C 
ATOM     28  C   UNL     1     -35.918  23.529   5.601  0.00  0.00    +0.008 C 
ATOM     29  C   UNL     1     -35.391  21.464   3.801  0.00  0.00    +0.015 C 
ATOM     30  C   UNL     1     -35.150  22.434   6.000  0.00  0.00    +0.001 C 
ATOM     31  C   UNL     1     -34.887  21.401   5.100  0.00  0.00    +0.001 C 
BRANCH  27  32
ATOM     32  N   UNL     1     -36.652  22.585   2.078  0.00  0.00    -0.357 N 
ATOM     33  H   UNL     1     -37.232  21.858   1.754  0.00  0.00    +0.142 HD
ATOM     34  H   UNL     1     -36.418  23.331   1.480  0.00  0.00    +0.142 HD
ENDBRANCH  27  32
ENDBRANCH  25  26
ENDBRANCH   1  25
TORSDOF 11
ENDMDL
