MODEL 1
REMARK VINA RESULT:      -6.1      0.000      0.000
REMARK  Name = 193232
REMARK  9 active torsions:
REMARK  status: ('A' for Active; 'I' for Inactive)
REMARK    1  A    between atoms: C_7  and  C_18
REMARK    2  A    between atoms: C_18  and  C_19
REMARK    3  A    between atoms: C_19  and  O_20
REMARK    4  A    between atoms: C_19  and  C_23
REMARK    5  A    between atoms: O_20  and  O_21
REMARK    6  A    between atoms: C_23  and  N_25
REMARK    7  A    between atoms: C_23  and  C_31
REMARK    8  A    between atoms: C_26  and  O_28
REMARK    9  A    between atoms: C_31  and  O_32
REMARK                            x       y       z     vdW  Elec       q    Type
REMARK                         _______ _______ _______ _____ _____    ______ ____
ROOT
ATOM      1  O   UNL     1     -32.918  27.180   5.998  0.00  0.00    -0.268 OA
ATOM      2  N   UNL     1     -32.870  27.259   3.728  0.00  0.00    -0.212 N 
ATOM      3  N   UNL     1     -32.051  29.190   2.575  0.00  0.00    -0.236 N 
ATOM      4  N   UNL     1     -32.890  27.148   1.497  0.00  0.00    -0.380 NA
ATOM      5  N   UNL     1     -31.674  29.994   5.941  0.00  0.00    -0.311 N 
ATOM      6  N   UNL     1     -31.225  31.016   4.001  0.00  0.00    -0.304 N 
ATOM      7  C   UNL     1     -33.389  26.033   3.410  0.00  0.00    +0.134 C 
ATOM      8  C   UNL     1     -32.581  27.917   2.524  0.00  0.00    +0.252 C 
ATOM      9  C   UNL     1     -33.389  25.989   2.036  0.00  0.00    +0.109 C 
ATOM     10  C   UNL     1     -32.634  27.820   4.996  0.00  0.00    +0.271 C 
ATOM     11  C   UNL     1     -32.060  29.135   4.957  0.00  0.00    +0.128 C 
ATOM     12  C   UNL     1     -31.777  29.786   3.775  0.00  0.00    +0.122 C 
ATOM     13  C   UNL     1     -33.839  24.898   1.157  0.00  0.00    +0.063 C 
ATOM     14  C   UNL     1     -31.698  29.853   1.329  0.00  0.00    +0.122 C 
ATOM     15  C   UNL     1     -31.177  31.112   5.315  0.00  0.00    +0.183 C 
ATOM     16  H   UNL     1     -31.738  29.844   6.912  0.00  0.00    +0.149 HD
ATOM     17  H   UNL     1     -30.930  31.678   3.335  0.00  0.00    +0.150 HD
ENDROOT
BRANCH   7  18
ATOM     18  C   UNL     1     -33.827  25.029   4.399  0.00  0.00    +0.062 C 
BRANCH  18  19
ATOM     19  C   UNL     1     -35.350  25.083   4.688  0.00  0.00    +0.183 C 
BRANCH  19  20
ATOM     20  O   UNL     1     -35.802  26.417   4.445  0.00  0.00    -0.224 OA
BRANCH  20  21
ATOM     21  O   UNL     1     -36.676  26.722   5.563  0.00  0.00    -0.249 OA
ATOM     22  H   UNL     1     -37.108  27.577   5.412  0.00  0.00    +0.253 HD
ENDBRANCH  20  21
ENDBRANCH  19  20
BRANCH  19  23
ATOM     23  C   UNL     1     -36.166  24.095   3.844  0.00  0.00    +0.205 C 
BRANCH  23  25
ATOM     24  O   UNL     1     -38.237  23.801   1.827  0.00  0.00    -0.226 OA
ATOM     25  N   UNL     1     -37.584  24.321   3.992  0.00  0.00    -0.260 N 
ATOM     26  C   UNL     1     -38.498  24.157   2.972  0.00  0.00    +0.402 C 
ATOM     27  H   UNL     1     -37.918  24.611   4.871  0.00  0.00    +0.153 HD
BRANCH  26  28
ATOM     28  O   UNL     1     -39.753  24.447   3.426  0.00  0.00    -0.431 OA
ATOM     29  C   UNL     1     -40.263  25.739   3.070  0.00  0.00    +0.257 C 
ENDBRANCH  26  28
ENDBRANCH  23  25
BRANCH  23  31
ATOM     30  O   UNL     1     -35.606  21.762   3.431  0.00  0.00    -0.248 OA
ATOM     31  C   UNL     1     -35.922  22.644   4.219  0.00  0.00    +0.338 C 
BRANCH  31  32
ATOM     32  O   UNL     1     -36.146  22.477   5.555  0.00  0.00    -0.443 OA
ATOM     33  C   UNL     1     -35.101  21.818   6.278  0.00  0.00    +0.256 C 
ENDBRANCH  31  32
ENDBRANCH  23  31
ENDBRANCH  19  23
ENDBRANCH  18  19
ENDBRANCH   7  18
TORSDOF 9
ENDMDL
MODEL 2
REMARK VINA RESULT:      -6.0      2.614      6.686
REMARK  Name = 193232
REMARK  9 active torsions:
REMARK  status: ('A' for Active; 'I' for Inactive)
REMARK    1  A    between atoms: C_7  and  C_18
REMARK    2  A    between atoms: C_18  and  C_19
REMARK    3  A    between atoms: C_19  and  O_20
REMARK    4  A    between atoms: C_19  and  C_23
REMARK    5  A    between atoms: O_20  and  O_21
REMARK    6  A    between atoms: C_23  and  N_25
REMARK    7  A    between atoms: C_23  and  C_31
REMARK    8  A    between atoms: C_26  and  O_28
REMARK    9  A    between atoms: C_31  and  O_32
REMARK                            x       y       z     vdW  Elec       q    Type
REMARK                         _______ _______ _______ _____ _____    ______ ____
ROOT
ATOM      1  O   UNL     1     -35.478  25.944   5.332  0.00  0.00    -0.268 OA
ATOM      2  N   UNL     1     -35.375  25.130   3.213  0.00  0.00    -0.212 N 
ATOM      3  N   UNL     1     -35.316  22.774   2.795  0.00  0.00    -0.236 N 
ATOM      4  N   UNL     1     -35.287  24.519   1.067  0.00  0.00    -0.380 NA
ATOM      5  N   UNL     1     -35.522  23.012   6.263  0.00  0.00    -0.311 N 
ATOM      6  N   UNL     1     -35.437  21.333   4.785  0.00  0.00    -0.304 N 
ATOM      7  C   UNL     1     -35.360  26.289   2.485  0.00  0.00    +0.134 C 
ATOM      8  C   UNL     1     -35.323  24.064   2.305  0.00  0.00    +0.252 C 
ATOM      9  C   UNL     1     -35.307  25.886   1.172  0.00  0.00    +0.109 C 
ATOM     10  C   UNL     1     -35.438  24.960   4.608  0.00  0.00    +0.271 C 
ATOM     11  C   UNL     1     -35.452  23.588   5.031  0.00  0.00    +0.128 C 
ATOM     12  C   UNL     1     -35.397  22.538   4.141  0.00  0.00    +0.122 C 
ATOM     13  C   UNL     1     -35.273  26.722  -0.039  0.00  0.00    +0.063 C 
ATOM     14  C   UNL     1     -35.319  21.665   1.854  0.00  0.00    +0.122 C 
ATOM     15  C   UNL     1     -35.511  21.652   6.063  0.00  0.00    +0.183 C 
ATOM     16  H   UNL     1     -35.571  23.478   7.128  0.00  0.00    +0.149 HD
ATOM     17  H   UNL     1     -35.416  20.432   4.387  0.00  0.00    +0.150 HD
ENDROOT
BRANCH   7  18
ATOM     18  C   UNL     1     -35.399  27.643   3.070  0.00  0.00    +0.062 C 
BRANCH  18  19
ATOM     19  C   UNL     1     -34.040  28.386   2.977  0.00  0.00    +0.183 C 
BRANCH  19  20
ATOM     20  O   UNL     1     -34.244  29.739   3.391  0.00  0.00    -0.224 OA
BRANCH  20  21
ATOM     21  O   UNL     1     -33.128  30.473   2.823  0.00  0.00    -0.249 OA
ATOM     22  H   UNL     1     -32.319  30.263   3.316  0.00  0.00    +0.253 HD
ENDBRANCH  20  21
ENDBRANCH  19  20
BRANCH  19  23
ATOM     23  C   UNL     1     -32.934  27.743   3.825  0.00  0.00    +0.205 C 
BRANCH  23  25
ATOM     24  O   UNL     1     -32.168  26.979   6.521  0.00  0.00    -0.226 OA
ATOM     25  N   UNL     1     -32.532  28.607   4.909  0.00  0.00    -0.260 N 
ATOM     26  C   UNL     1     -32.184  28.152   6.164  0.00  0.00    +0.402 C 
ATOM     27  H   UNL     1     -32.505  29.577   4.743  0.00  0.00    +0.153 HD
BRANCH  26  28
ATOM     28  O   UNL     1     -31.854  29.210   6.963  0.00  0.00    -0.431 OA
ATOM     29  C   UNL     1     -31.779  30.485   6.312  0.00  0.00    +0.257 C 
ENDBRANCH  26  28
ENDBRANCH  23  25
BRANCH  23  31
ATOM     30  O   UNL     1     -30.810  28.252   2.751  0.00  0.00    -0.248 OA
ATOM     31  C   UNL     1     -31.677  27.435   3.032  0.00  0.00    +0.338 C 
BRANCH  31  32
ATOM     32  O   UNL     1     -31.688  26.123   2.655  0.00  0.00    -0.443 OA
ATOM     33  C   UNL     1     -31.723  25.888   1.244  0.00  0.00    +0.256 C 
ENDBRANCH  31  32
ENDBRANCH  23  31
ENDBRANCH  19  23
ENDBRANCH  18  19
ENDBRANCH   7  18
TORSDOF 9
ENDMDL
MODEL 3
REMARK VINA RESULT:      -5.9      3.967      6.488
REMARK  Name = 193232
REMARK  9 active torsions:
REMARK  status: ('A' for Active; 'I' for Inactive)
REMARK    1  A    between atoms: C_7  and  C_18
REMARK    2  A    between atoms: C_18  and  C_19
REMARK    3  A    between atoms: C_19  and  O_20
REMARK    4  A    between atoms: C_19  and  C_23
REMARK    5  A    between atoms: O_20  and  O_21
REMARK    6  A    between atoms: C_23  and  N_25
REMARK    7  A    between atoms: C_23  and  C_31
REMARK    8  A    between atoms: C_26  and  O_28
REMARK    9  A    between atoms: C_31  and  O_32
REMARK                            x       y       z     vdW  Elec       q    Type
REMARK                         _______ _______ _______ _____ _____    ______ ____
ROOT
ATOM      1  O   UNL     1     -36.172  22.257   2.137  0.00  0.00    -0.268 OA
ATOM      2  N   UNL     1     -34.645  23.181   0.729  0.00  0.00    -0.212 N 
ATOM      3  N   UNL     1     -32.834  21.888  -0.150  0.00  0.00    -0.236 N 
ATOM      4  N   UNL     1     -33.253  24.256  -0.647  0.00  0.00    -0.380 NA
ATOM      5  N   UNL     1     -34.611  19.625   1.810  0.00  0.00    -0.311 N 
ATOM      6  N   UNL     1     -32.786  19.521   0.519  0.00  0.00    -0.304 N 
ATOM      7  C   UNL     1     -35.108  24.467   0.645  0.00  0.00    +0.134 C 
ATOM      8  C   UNL     1     -33.500  23.094  -0.074  0.00  0.00    +0.252 C 
ATOM      9  C   UNL     1     -34.237  25.105  -0.206  0.00  0.00    +0.109 C 
ATOM     10  C   UNL     1     -35.169  22.096   1.457  0.00  0.00    +0.271 C 
ATOM     11  C   UNL     1     -34.430  20.875   1.302  0.00  0.00    +0.128 C 
ATOM     12  C   UNL     1     -33.301  20.787   0.515  0.00  0.00    +0.122 C 
ATOM     13  C   UNL     1     -34.262  26.506  -0.656  0.00  0.00    +0.063 C 
ATOM     14  C   UNL     1     -31.678  21.779  -1.026  0.00  0.00    +0.122 C 
ATOM     15  C   UNL     1     -33.597  18.845   1.309  0.00  0.00    +0.183 C 
ATOM     16  H   UNL     1     -35.329  19.337   2.418  0.00  0.00    +0.149 HD
ATOM     17  H   UNL     1     -31.992  19.189   0.041  0.00  0.00    +0.150 HD
ENDROOT
BRANCH   7  18
ATOM     18  C   UNL     1     -36.301  24.973   1.350  0.00  0.00    +0.062 C 
BRANCH  18  19
ATOM     19  C   UNL     1     -35.965  25.658   2.700  0.00  0.00    +0.183 C 
BRANCH  19  20
ATOM     20  O   UNL     1     -35.777  27.054   2.456  0.00  0.00    -0.224 OA
BRANCH  20  21
ATOM     21  O   UNL     1     -35.515  27.628   3.763  0.00  0.00    -0.249 OA
ATOM     22  H   UNL     1     -34.579  27.508   3.987  0.00  0.00    +0.253 HD
ENDBRANCH  20  21
ENDBRANCH  19  20
BRANCH  19  23
ATOM     23  C   UNL     1     -37.045  25.458   3.772  0.00  0.00    +0.205 C 
BRANCH  23  25
ATOM     24  O   UNL     1     -35.012  24.610   5.666  0.00  0.00    -0.226 OA
ATOM     25  N   UNL     1     -36.917  24.173   4.415  0.00  0.00    -0.260 N 
ATOM     26  C   UNL     1     -35.912  23.858   5.306  0.00  0.00    +0.402 C 
ATOM     27  H   UNL     1     -37.584  23.481   4.205  0.00  0.00    +0.153 HD
BRANCH  26  28
ATOM     28  O   UNL     1     -36.065  22.571   5.738  0.00  0.00    -0.431 OA
ATOM     29  C   UNL     1     -34.856  21.871   6.058  0.00  0.00    +0.257 C 
ENDBRANCH  26  28
ENDBRANCH  23  25
BRANCH  23  31
ATOM     30  O   UNL     1     -38.959  26.509   2.696  0.00  0.00    -0.248 OA
ATOM     31  C   UNL     1     -38.457  25.521   3.216  0.00  0.00    +0.338 C 
BRANCH  31  32
ATOM     32  O   UNL     1     -39.080  24.325   3.423  0.00  0.00    -0.443 OA
ATOM     33  C   UNL     1     -39.814  23.812   2.306  0.00  0.00    +0.256 C 
ENDBRANCH  31  32
ENDBRANCH  23  31
ENDBRANCH  19  23
ENDBRANCH  18  19
ENDBRANCH   7  18
TORSDOF 9
ENDMDL
MODEL 4
REMARK VINA RESULT:      -5.9      5.531      9.093
REMARK  Name = 193232
REMARK  9 active torsions:
REMARK  status: ('A' for Active; 'I' for Inactive)
REMARK    1  A    between atoms: C_7  and  C_18
REMARK    2  A    between atoms: C_18  and  C_19
REMARK    3  A    between atoms: C_19  and  O_20
REMARK    4  A    between atoms: C_19  and  C_23
REMARK    5  A    between atoms: O_20  and  O_21
REMARK    6  A    between atoms: C_23  and  N_25
REMARK    7  A    between atoms: C_23  and  C_31
REMARK    8  A    between atoms: C_26  and  O_28
REMARK    9  A    between atoms: C_31  and  O_32
REMARK                            x       y       z     vdW  Elec       q    Type
REMARK                         _______ _______ _______ _____ _____    ______ ____
ROOT
ATOM      1  O   UNL     1     -39.193  26.490   3.085  0.00  0.00    -0.268 OA
ATOM      2  N   UNL     1     -40.260  24.876   1.893  0.00  0.00    -0.212 N 
ATOM      3  N   UNL     1     -39.396  22.648   1.780  0.00  0.00    -0.236 N 
ATOM      4  N   UNL     1     -41.452  23.425   0.684  0.00  0.00    -0.380 NA
ATOM      5  N   UNL     1     -37.142  24.323   3.837  0.00  0.00    -0.311 N 
ATOM      6  N   UNL     1     -37.345  22.229   3.073  0.00  0.00    -0.304 N 
ATOM      7  C   UNL     1     -41.329  25.575   1.400  0.00  0.00    +0.134 C 
ATOM      8  C   UNL     1     -40.369  23.559   1.425  0.00  0.00    +0.252 C 
ATOM      9  C   UNL     1     -42.045  24.662   0.663  0.00  0.00    +0.109 C 
ATOM     10  C   UNL     1     -39.216  25.323   2.724  0.00  0.00    +0.271 C 
ATOM     11  C   UNL     1     -38.261  24.305   3.062  0.00  0.00    +0.128 C 
ATOM     12  C   UNL     1     -38.364  23.010   2.602  0.00  0.00    +0.122 C 
ATOM     13  C   UNL     1     -43.293  24.872  -0.088  0.00  0.00    +0.063 C 
ATOM     14  C   UNL     1     -39.535  21.267   1.343  0.00  0.00    +0.122 C 
ATOM     15  C   UNL     1     -36.625  23.050   3.813  0.00  0.00    +0.183 C 
ATOM     16  H   UNL     1     -36.773  25.097   4.320  0.00  0.00    +0.149 HD
ATOM     17  H   UNL     1     -37.186  21.273   2.900  0.00  0.00    +0.150 HD
ENDROOT
BRANCH   7  18
ATOM     18  C   UNL     1     -41.583  27.006   1.659  0.00  0.00    +0.062 C 
BRANCH  18  19
ATOM     19  C   UNL     1     -42.709  27.245   2.699  0.00  0.00    +0.183 C 
BRANCH  19  20
ATOM     20  O   UNL     1     -42.301  26.662   3.938  0.00  0.00    -0.224 OA
BRANCH  20  21
ATOM     21  O   UNL     1     -41.309  27.577   4.471  0.00  0.00    -0.249 OA
ATOM     22  H   UNL     1     -40.842  28.009   3.739  0.00  0.00    +0.253 HD
ENDBRANCH  20  21
ENDBRANCH  19  20
BRANCH  19  23
ATOM     23  C   UNL     1     -43.043  28.728   2.906  0.00  0.00    +0.205 C 
BRANCH  23  25
ATOM     24  O   UNL     1     -42.823  29.861   5.572  0.00  0.00    -0.226 OA
ATOM     25  N   UNL     1     -44.091  28.901   3.883  0.00  0.00    -0.260 N 
ATOM     26  C   UNL     1     -43.892  29.451   5.132  0.00  0.00    +0.402 C 
ATOM     27  H   UNL     1     -45.000  28.607   3.644  0.00  0.00    +0.153 HD
BRANCH  26  28
ATOM     28  O   UNL     1     -45.073  29.476   5.818  0.00  0.00    -0.431 OA
ATOM     29  C   UNL     1     -45.537  30.772   6.217  0.00  0.00    +0.257 C 
ENDBRANCH  26  28
ENDBRANCH  23  25
BRANCH  23  31
ATOM     30  O   UNL     1     -44.390  28.984   0.895  0.00  0.00    -0.248 OA
ATOM     31  C   UNL     1     -43.520  29.416   1.639  0.00  0.00    +0.338 C 
BRANCH  31  32
ATOM     32  O   UNL     1     -42.802  30.561   1.446  0.00  0.00    -0.443 OA
ATOM     33  C   UNL     1     -43.569  31.718   1.099  0.00  0.00    +0.256 C 
ENDBRANCH  31  32
ENDBRANCH  23  31
ENDBRANCH  19  23
ENDBRANCH  18  19
ENDBRANCH   7  18
TORSDOF 9
ENDMDL
MODEL 5
REMARK VINA RESULT:      -5.9      1.778      3.259
REMARK  Name = 193232
REMARK  9 active torsions:
REMARK  status: ('A' for Active; 'I' for Inactive)
REMARK    1  A    between atoms: C_7  and  C_18
REMARK    2  A    between atoms: C_18  and  C_19
REMARK    3  A    between atoms: C_19  and  O_20
REMARK    4  A    between atoms: C_19  and  C_23
REMARK    5  A    between atoms: O_20  and  O_21
REMARK    6  A    between atoms: C_23  and  N_25
REMARK    7  A    between atoms: C_23  and  C_31
REMARK    8  A    between atoms: C_26  and  O_28
REMARK    9  A    between atoms: C_31  and  O_32
REMARK                            x       y       z     vdW  Elec       q    Type
REMARK                         _______ _______ _______ _____ _____    ______ ____
ROOT
ATOM      1  O   UNL     1     -32.983  27.366   6.099  0.00  0.00    -0.268 OA
ATOM      2  N   UNL     1     -32.700  28.336   4.063  0.00  0.00    -0.212 N 
ATOM      3  N   UNL     1     -30.823  29.754   3.620  0.00  0.00    -0.236 N 
ATOM      4  N   UNL     1     -32.584  29.189   2.003  0.00  0.00    -0.380 NA
ATOM      5  N   UNL     1     -30.349  28.733   6.914  0.00  0.00    -0.311 N 
ATOM      6  N   UNL     1     -29.227  30.024   5.471  0.00  0.00    -0.304 N 
ATOM      7  C   UNL     1     -33.799  27.870   3.394  0.00  0.00    +0.134 C 
ATOM      8  C   UNL     1     -31.982  29.149   3.176  0.00  0.00    +0.252 C 
ATOM      9  C   UNL     1     -33.703  28.406   2.131  0.00  0.00    +0.109 C 
ATOM     10  C   UNL     1     -32.296  28.086   5.388  0.00  0.00    +0.271 C 
ATOM     11  C   UNL     1     -31.070  28.733   5.759  0.00  0.00    +0.128 C 
ATOM     12  C   UNL     1     -30.363  29.536   4.890  0.00  0.00    +0.122 C 
ATOM     13  C   UNL     1     -34.619  28.232   0.993  0.00  0.00    +0.063 C 
ATOM     14  C   UNL     1     -30.046  30.552   2.685  0.00  0.00    +0.122 C 
ATOM     15  C   UNL     1     -29.248  29.524   6.691  0.00  0.00    +0.183 C 
ATOM     16  H   UNL     1     -30.573  28.259   7.747  0.00  0.00    +0.149 HD
ATOM     17  H   UNL     1     -28.548  30.615   5.071  0.00  0.00    +0.150 HD
ENDROOT
BRANCH   7  18
ATOM     18  C   UNL     1     -34.818  26.978   3.980  0.00  0.00    +0.062 C 
BRANCH  18  19
ATOM     19  C   UNL     1     -34.755  25.532   3.422  0.00  0.00    +0.183 C 
BRANCH  19  20
ATOM     20  O   UNL     1     -33.460  25.001   3.708  0.00  0.00    -0.224 OA
BRANCH  20  21
ATOM     21  O   UNL     1     -33.454  24.789   5.144  0.00  0.00    -0.249 OA
ATOM     22  H   UNL     1     -34.118  24.121   5.374  0.00  0.00    +0.253 HD
ENDBRANCH  20  21
ENDBRANCH  19  20
BRANCH  19  23
ATOM     23  C   UNL     1     -35.836  24.608   3.997  0.00  0.00    +0.205 C 
BRANCH  23  25
ATOM     24  O   UNL     1     -36.010  22.414   5.893  0.00  0.00    -0.226 OA
ATOM     25  N   UNL     1     -35.516  23.219   3.774  0.00  0.00    -0.260 N 
ATOM     26  C   UNL     1     -35.629  22.240   4.740  0.00  0.00    +0.402 C 
ATOM     27  H   UNL     1     -35.197  22.954   2.881  0.00  0.00    +0.153 HD
BRANCH  26  28
ATOM     28  O   UNL     1     -35.252  21.034   4.221  0.00  0.00    -0.431 OA
ATOM     29  C   UNL     1     -35.502  20.851   2.822  0.00  0.00    +0.257 C 
ENDBRANCH  26  28
ENDBRANCH  23  25
BRANCH  23  31
ATOM     30  O   UNL     1     -38.270  24.607   3.944  0.00  0.00    -0.248 OA
ATOM     31  C   UNL     1     -37.207  24.837   3.384  0.00  0.00    +0.338 C 
BRANCH  31  32
ATOM     32  O   UNL     1     -37.061  25.298   2.108  0.00  0.00    -0.443 OA
ATOM     33  C   UNL     1     -37.960  26.344   1.724  0.00  0.00    +0.256 C 
ENDBRANCH  31  32
ENDBRANCH  23  31
ENDBRANCH  19  23
ENDBRANCH  18  19
ENDBRANCH   7  18
TORSDOF 9
ENDMDL
MODEL 6
REMARK VINA RESULT:      -5.8      1.718      3.428
REMARK  Name = 193232
REMARK  9 active torsions:
REMARK  status: ('A' for Active; 'I' for Inactive)
REMARK    1  A    between atoms: C_7  and  C_18
REMARK    2  A    between atoms: C_18  and  C_19
REMARK    3  A    between atoms: C_19  and  O_20
REMARK    4  A    between atoms: C_19  and  C_23
REMARK    5  A    between atoms: O_20  and  O_21
REMARK    6  A    between atoms: C_23  and  N_25
REMARK    7  A    between atoms: C_23  and  C_31
REMARK    8  A    between atoms: C_26  and  O_28
REMARK    9  A    between atoms: C_31  and  O_32
REMARK                            x       y       z     vdW  Elec       q    Type
REMARK                         _______ _______ _______ _____ _____    ______ ____
ROOT
ATOM      1  O   UNL     1     -34.560  26.575   5.899  0.00  0.00    -0.268 OA
ATOM      2  N   UNL     1     -33.662  26.525   3.812  0.00  0.00    -0.212 N 
ATOM      3  N   UNL     1     -31.599  27.637   3.328  0.00  0.00    -0.236 N 
ATOM      4  N   UNL     1     -32.929  26.356   1.709  0.00  0.00    -0.380 NA
ATOM      5  N   UNL     1     -32.101  28.231   6.722  0.00  0.00    -0.311 N 
ATOM      6  N   UNL     1     -30.516  28.758   5.232  0.00  0.00    -0.304 N 
ATOM      7  C   UNL     1     -34.593  25.778   3.142  0.00  0.00    +0.134 C 
ATOM      8  C   UNL     1     -32.659  26.867   2.895  0.00  0.00    +0.252 C 
ATOM      9  C   UNL     1     -34.119  25.688   1.854  0.00  0.00    +0.109 C 
ATOM     10  C   UNL     1     -33.643  26.912   5.165  0.00  0.00    +0.271 C 
ATOM     11  C   UNL     1     -32.494  27.690   5.536  0.00  0.00    +0.128 C 
ATOM     12  C   UNL     1     -31.507  28.029   4.636  0.00  0.00    +0.122 C 
ATOM     13  C   UNL     1     -34.722  24.993   0.706  0.00  0.00    +0.063 C 
ATOM     14  C   UNL     1     -30.528  27.945   2.394  0.00  0.00    +0.122 C 
ATOM     15  C   UNL     1     -30.903  28.863   6.488  0.00  0.00    +0.183 C 
ATOM     16  H   UNL     1     -32.580  28.179   7.580  0.00  0.00    +0.149 HD
ATOM     17  H   UNL     1     -29.700  29.121   4.818  0.00  0.00    +0.150 HD
ENDROOT
BRANCH   7  18
ATOM     18  C   UNL     1     -35.815  25.222   3.753  0.00  0.00    +0.062 C 
BRANCH  18  19
ATOM     19  C   UNL     1     -35.690  23.716   4.103  0.00  0.00    +0.183 C 
BRANCH  19  20
ATOM     20  O   UNL     1     -35.867  23.572   5.514  0.00  0.00    -0.224 OA
BRANCH  20  21
ATOM     21  O   UNL     1     -36.238  22.182   5.703  0.00  0.00    -0.249 OA
ATOM     22  H   UNL     1     -36.256  21.978   6.650  0.00  0.00    +0.253 HD
ENDBRANCH  20  21
ENDBRANCH  19  20
BRANCH  19  23
ATOM     23  C   UNL     1     -36.697  22.830   3.359  0.00  0.00    +0.205 C 
BRANCH  23  25
ATOM     24  O   UNL     1     -35.178  20.371   3.649  0.00  0.00    -0.226 OA
ATOM     25  N   UNL     1     -36.055  22.059   2.322  0.00  0.00    -0.260 N 
ATOM     26  C   UNL     1     -35.350  20.897   2.555  0.00  0.00    +0.402 C 
ATOM     27  H   UNL     1     -36.123  22.383   1.394  0.00  0.00    +0.153 HD
BRANCH  26  28
ATOM     28  O   UNL     1     -34.865  20.407   1.375  0.00  0.00    -0.431 OA
ATOM     29  C   UNL     1     -33.907  19.347   1.485  0.00  0.00    +0.257 C 
ENDBRANCH  26  28
ENDBRANCH  23  25
BRANCH  23  31
ATOM     30  O   UNL     1     -37.895  23.803   1.477  0.00  0.00    -0.248 OA
ATOM     31  C   UNL     1     -37.804  23.621   2.683  0.00  0.00    +0.338 C 
BRANCH  31  32
ATOM     32  O   UNL     1     -38.648  24.122   3.632  0.00  0.00    -0.443 OA
ATOM     33  C   UNL     1     -39.781  24.839   3.131  0.00  0.00    +0.256 C 
ENDBRANCH  31  32
ENDBRANCH  23  31
ENDBRANCH  19  23
ENDBRANCH  18  19
ENDBRANCH   7  18
TORSDOF 9
ENDMDL
MODEL 7
REMARK VINA RESULT:      -5.8      4.560      7.663
REMARK  Name = 193232
REMARK  9 active torsions:
REMARK  status: ('A' for Active; 'I' for Inactive)
REMARK    1  A    between atoms: C_7  and  C_18
REMARK    2  A    between atoms: C_18  and  C_19
REMARK    3  A    between atoms: C_19  and  O_20
REMARK    4  A    between atoms: C_19  and  C_23
REMARK    5  A    between atoms: O_20  and  O_21
REMARK    6  A    between atoms: C_23  and  N_25
REMARK    7  A    between atoms: C_23  and  C_31
REMARK    8  A    between atoms: C_26  and  O_28
REMARK    9  A    between atoms: C_31  and  O_32
REMARK                            x       y       z     vdW  Elec       q    Type
REMARK                         _______ _______ _______ _____ _____    ______ ____
ROOT
ATOM      1  O   UNL     1     -35.437  21.726   3.895  0.00  0.00    -0.268 OA
ATOM      2  N   UNL     1     -37.253  22.494   2.766  0.00  0.00    -0.212 N 
ATOM      3  N   UNL     1     -38.127  24.684   3.174  0.00  0.00    -0.236 N 
ATOM      4  N   UNL     1     -39.035  23.078   1.552  0.00  0.00    -0.380 NA
ATOM      5  N   UNL     1     -35.377  24.465   5.298  0.00  0.00    -0.311 N 
ATOM      6  N   UNL     1     -36.901  26.034   4.825  0.00  0.00    -0.304 N 
ATOM      7  C   UNL     1     -37.542  21.419   1.969  0.00  0.00    +0.134 C 
ATOM      8  C   UNL     1     -38.197  23.491   2.485  0.00  0.00    +0.252 C 
ATOM      9  C   UNL     1     -38.638  21.804   1.233  0.00  0.00    +0.109 C 
ATOM     10  C   UNL     1     -36.218  22.647   3.707  0.00  0.00    +0.271 C 
ATOM     11  C   UNL     1     -36.204  23.926   4.360  0.00  0.00    +0.128 C 
ATOM     12  C   UNL     1     -37.133  24.907   4.088  0.00  0.00    +0.122 C 
ATOM     13  C   UNL     1     -39.368  21.035   0.212  0.00  0.00    +0.063 C 
ATOM     14  C   UNL     1     -39.071  25.741   2.845  0.00  0.00    +0.122 C 
ATOM     15  C   UNL     1     -35.837  25.736   5.545  0.00  0.00    +0.183 C 
ATOM     16  H   UNL     1     -34.601  24.029   5.718  0.00  0.00    +0.149 HD
ATOM     17  H   UNL     1     -37.411  26.877   4.819  0.00  0.00    +0.150 HD
ENDROOT
BRANCH   7  18
ATOM     18  C   UNL     1     -36.780  20.156   1.962  0.00  0.00    +0.062 C 
BRANCH  18  19
ATOM     19  C   UNL     1     -35.832  20.023   0.742  0.00  0.00    +0.183 C 
BRANCH  19  20
ATOM     20  O   UNL     1     -34.495  20.253   1.190  0.00  0.00    -0.224 OA
BRANCH  20  21
ATOM     21  O   UNL     1     -34.400  19.544   2.454  0.00  0.00    -0.249 OA
ATOM     22  H   UNL     1     -34.790  18.662   2.359  0.00  0.00    +0.253 HD
ENDBRANCH  20  21
ENDBRANCH  19  20
BRANCH  19  23
ATOM     23  C   UNL     1     -35.921  18.658   0.045  0.00  0.00    +0.205 C 
BRANCH  23  25
ATOM     24  O   UNL     1     -35.461  15.792  -0.060  0.00  0.00    -0.226 OA
ATOM     25  N   UNL     1     -34.657  17.963   0.087  0.00  0.00    -0.260 N 
ATOM     26  C   UNL     1     -34.534  16.589   0.032  0.00  0.00    +0.402 C 
ATOM     27  H   UNL     1     -33.835  18.499   0.160  0.00  0.00    +0.153 HD
BRANCH  26  28
ATOM     28  O   UNL     1     -33.215  16.241   0.092  0.00  0.00    -0.431 OA
ATOM     29  C   UNL     1     -32.311  17.284   0.479  0.00  0.00    +0.257 C 
ENDBRANCH  26  28
ENDBRANCH  23  25
BRANCH  23  31
ATOM     30  O   UNL     1     -35.518  18.915  -2.341  0.00  0.00    -0.248 OA
ATOM     31  C   UNL     1     -36.308  18.759  -1.419  0.00  0.00    +0.338 C 
BRANCH  31  32
ATOM     32  O   UNL     1     -37.666  18.686  -1.536  0.00  0.00    -0.443 OA
ATOM     33  C   UNL     1     -38.285  17.595  -0.846  0.00  0.00    +0.256 C 
ENDBRANCH  31  32
ENDBRANCH  23  31
ENDBRANCH  19  23
ENDBRANCH  18  19
ENDBRANCH   7  18
TORSDOF 9
ENDMDL
MODEL 8
REMARK VINA RESULT:      -5.8      3.359      7.072
REMARK  Name = 193232
REMARK  9 active torsions:
REMARK  status: ('A' for Active; 'I' for Inactive)
REMARK    1  A    between atoms: C_7  and  C_18
REMARK    2  A    between atoms: C_18  and  C_19
REMARK    3  A    between atoms: C_19  and  O_20
REMARK    4  A    between atoms: C_19  and  C_23
REMARK    5  A    between atoms: O_20  and  O_21
REMARK    6  A    between atoms: C_23  and  N_25
REMARK    7  A    between atoms: C_23  and  C_31
REMARK    8  A    between atoms: C_26  and  O_28
REMARK    9  A    between atoms: C_31  and  O_32
REMARK                            x       y       z     vdW  Elec       q    Type
REMARK                         _______ _______ _______ _____ _____    ______ ____
ROOT
ATOM      1  O   UNL     1     -35.760  20.793   3.132  0.00  0.00    -0.268 OA
ATOM      2  N   UNL     1     -35.810  22.303   1.435  0.00  0.00    -0.212 N 
ATOM      3  N   UNL     1     -36.457  21.655  -0.777  0.00  0.00    -0.236 N 
ATOM      4  N   UNL     1     -35.810  23.926  -0.099  0.00  0.00    -0.380 NA
ATOM      5  N   UNL     1     -36.745  18.723   1.079  0.00  0.00    -0.311 N 
ATOM      6  N   UNL     1     -37.109  19.300  -1.053  0.00  0.00    -0.304 N 
ATOM      7  C   UNL     1     -35.404  23.439   2.081  0.00  0.00    +0.134 C 
ATOM      8  C   UNL     1     -36.044  22.642   0.095  0.00  0.00    +0.252 C 
ATOM      9  C   UNL     1     -35.415  24.421   1.118  0.00  0.00    +0.109 C 
ATOM     10  C   UNL     1     -35.989  21.006   1.951  0.00  0.00    +0.271 C 
ATOM     11  C   UNL     1     -36.443  20.048   0.982  0.00  0.00    +0.128 C 
ATOM     12  C   UNL     1     -36.671  20.378  -0.336  0.00  0.00    +0.122 C 
ATOM     13  C   UNL     1     -35.068  25.844   1.261  0.00  0.00    +0.063 C 
ATOM     14  C   UNL     1     -36.754  22.015  -2.154  0.00  0.00    +0.122 C 
ATOM     15  C   UNL     1     -37.143  18.318  -0.173  0.00  0.00    +0.183 C 
ATOM     16  H   UNL     1     -36.690  18.165   1.887  0.00  0.00    +0.149 HD
ATOM     17  H   UNL     1     -37.346  19.264  -2.009  0.00  0.00    +0.150 HD
ENDROOT
BRANCH   7  18
ATOM     18  C   UNL     1     -35.055  23.507   3.512  0.00  0.00    +0.062 C 
BRANCH  18  19
ATOM     19  C   UNL     1     -36.285  23.733   4.430  0.00  0.00    +0.183 C 
BRANCH  19  20
ATOM     20  O   UNL     1     -36.166  22.862   5.556  0.00  0.00    -0.224 OA
BRANCH  20  21
ATOM     21  O   UNL     1     -34.793  22.394   5.521  0.00  0.00    -0.249 OA
ATOM     22  H   UNL     1     -34.636  21.797   6.268  0.00  0.00    +0.253 HD
ENDBRANCH  20  21
ENDBRANCH  19  20
BRANCH  19  23
ATOM     23  C   UNL     1     -36.433  25.184   4.906  0.00  0.00    +0.205 C 
BRANCH  23  25
ATOM     24  O   UNL     1     -38.968  24.643   3.595  0.00  0.00    -0.226 OA
ATOM     25  N   UNL     1     -37.112  25.994   3.923  0.00  0.00    -0.260 N 
ATOM     26  C   UNL     1     -38.320  25.655   3.351  0.00  0.00    +0.402 C 
ATOM     27  H   UNL     1     -36.687  26.838   3.645  0.00  0.00    +0.153 HD
BRANCH  26  28
ATOM     28  O   UNL     1     -38.698  26.622   2.463  0.00  0.00    -0.431 OA
ATOM     29  C   UNL     1     -39.509  26.182   1.367  0.00  0.00    +0.257 C 
ENDBRANCH  26  28
ENDBRANCH  23  25
BRANCH  23  31
ATOM     30  O   UNL     1     -34.260  25.458   5.968  0.00  0.00    -0.248 OA
ATOM     31  C   UNL     1     -35.102  25.863   5.177  0.00  0.00    +0.338 C 
BRANCH  31  32
ATOM     32  O   UNL     1     -35.014  27.004   4.433  0.00  0.00    -0.443 OA
ATOM     33  C   UNL     1     -33.686  27.460   4.158  0.00  0.00    +0.256 C 
ENDBRANCH  31  32
ENDBRANCH  23  31
ENDBRANCH  19  23
ENDBRANCH  18  19
ENDBRANCH   7  18
TORSDOF 9
ENDMDL
MODEL 9
REMARK VINA RESULT:      -5.8      4.653      6.963
REMARK  Name = 193232
REMARK  9 active torsions:
REMARK  status: ('A' for Active; 'I' for Inactive)
REMARK    1  A    between atoms: C_7  and  C_18
REMARK    2  A    between atoms: C_18  and  C_19
REMARK    3  A    between atoms: C_19  and  O_20
REMARK    4  A    between atoms: C_19  and  C_23
REMARK    5  A    between atoms: O_20  and  O_21
REMARK    6  A    between atoms: C_23  and  N_25
REMARK    7  A    between atoms: C_23  and  C_31
REMARK    8  A    between atoms: C_26  and  O_28
REMARK    9  A    between atoms: C_31  and  O_32
REMARK                            x       y       z     vdW  Elec       q    Type
REMARK                         _______ _______ _______ _____ _____    ______ ____
ROOT
ATOM      1  O   UNL     1     -37.051  21.560   2.224  0.00  0.00    -0.268 OA
ATOM      2  N   UNL     1     -37.247  23.777   2.683  0.00  0.00    -0.212 N 
ATOM      3  N   UNL     1     -36.318  24.712   4.680  0.00  0.00    -0.236 N 
ATOM      4  N   UNL     1     -37.529  25.975   2.957  0.00  0.00    -0.380 NA
ATOM      5  N   UNL     1     -35.466  21.341   4.853  0.00  0.00    -0.311 N 
ATOM      6  N   UNL     1     -35.107  23.140   6.135  0.00  0.00    -0.304 N 
ATOM      7  C   UNL     1     -37.953  24.211   1.594  0.00  0.00    +0.134 C 
ATOM      8  C   UNL     1     -37.011  24.891   3.501  0.00  0.00    +0.252 C 
ATOM      9  C   UNL     1     -38.111  25.563   1.785  0.00  0.00    +0.109 C 
ATOM     10  C   UNL     1     -36.800  22.478   2.991  0.00  0.00    +0.271 C 
ATOM     11  C   UNL     1     -36.068  22.387   4.222  0.00  0.00    +0.128 C 
ATOM     12  C   UNL     1     -35.837  23.480   5.030  0.00  0.00    +0.122 C 
ATOM     13  C   UNL     1     -38.795  26.534   0.916  0.00  0.00    +0.063 C 
ATOM     14  C   UNL     1     -36.022  25.875   5.503  0.00  0.00    +0.122 C 
ATOM     15  C   UNL     1     -34.901  21.845   6.000  0.00  0.00    +0.183 C 
ATOM     16  H   UNL     1     -35.441  20.406   4.548  0.00  0.00    +0.149 HD
ATOM     17  H   UNL     1     -34.805  23.728   6.865  0.00  0.00    +0.150 HD
ENDROOT
BRANCH   7  18
ATOM     18  C   UNL     1     -38.405  23.341   0.491  0.00  0.00    +0.062 C 
BRANCH  18  19
ATOM     19  C   UNL     1     -39.850  22.811   0.685  0.00  0.00    +0.183 C 
BRANCH  19  20
ATOM     20  O   UNL     1     -40.063  22.604   2.083  0.00  0.00    -0.224 OA
BRANCH  20  21
ATOM     21  O   UNL     1     -40.063  21.162   2.250  0.00  0.00    -0.249 OA
ATOM     22  H   UNL     1     -39.160  20.825   2.142  0.00  0.00    +0.253 HD
ENDBRANCH  20  21
ENDBRANCH  19  20
BRANCH  19  23
ATOM     23  C   UNL     1     -40.925  23.752   0.128  0.00  0.00    +0.205 C 
BRANCH  23  25
ATOM     24  O   UNL     1     -42.237  26.344   0.098  0.00  0.00    -0.226 OA
ATOM     25  N   UNL     1     -41.682  24.373   1.188  0.00  0.00    -0.260 N 
ATOM     26  C   UNL     1     -42.273  25.616   1.084  0.00  0.00    +0.402 C 
ATOM     27  H   UNL     1     -41.782  23.882   2.036  0.00  0.00    +0.153 HD
BRANCH  26  28
ATOM     28  O   UNL     1     -42.913  25.922   2.251  0.00  0.00    -0.431 OA
ATOM     29  C   UNL     1     -42.133  26.625   3.226  0.00  0.00    +0.257 C 
ENDBRANCH  26  28
ENDBRANCH  23  25
BRANCH  23  31
ATOM     30  O   UNL     1     -42.754  22.227  -0.375  0.00  0.00    -0.248 OA
ATOM     31  C   UNL     1     -41.933  23.047  -0.763  0.00  0.00    +0.338 C 
BRANCH  31  32
ATOM     32  O   UNL     1     -41.750  23.444  -2.056  0.00  0.00    -0.443 OA
ATOM     33  C   UNL     1     -41.555  22.388  -3.002  0.00  0.00    +0.256 C 
ENDBRANCH  31  32
ENDBRANCH  23  31
ENDBRANCH  19  23
ENDBRANCH  18  19
ENDBRANCH   7  18
TORSDOF 9
ENDMDL
