MODEL 1
REMARK VINA RESULT:      -6.9      0.000      0.000
REMARK  Name = 5284612
REMARK  10 active torsions:
REMARK  status: ('A' for Active; 'I' for Inactive)
REMARK    1  A    between atoms: C_6  and  C_24
REMARK    2  A    between atoms: C_6  and  O_30
REMARK    3  A    between atoms: C_9  and  O_21
REMARK    4  A    between atoms: C_24  and  C_25
REMARK    5  A    between atoms: C_25  and  O_26
REMARK    6  A    between atoms: O_26  and  C_28
REMARK    7  A    between atoms: O_30  and  C_32
REMARK    8  A    between atoms: C_32  and  C_33
REMARK    9  A    between atoms: C_33  and  C_34
REMARK   10  A    between atoms: C_34  and  C_35
REMARK                            x       y       z     vdW  Elec       q    Type
REMARK                         _______ _______ _______ _____ _____    ______ ____
ROOT
ATOM      1  O   UNL     1     -31.169  17.663   1.499  0.00  0.00    -0.287 OA
ATOM      2  C   UNL     1     -35.647  24.562   1.402  0.00  0.00    +0.043 C 
ATOM      3  C   UNL     1     -35.899  23.264   2.201  0.00  0.00    +0.004 C 
ATOM      4  C   UNL     1     -35.665  21.985   1.385  0.00  0.00    +0.003 C 
ATOM      5  C   UNL     1     -34.173  21.960   0.900  0.00  0.00    +0.034 C 
ATOM      6  C   UNL     1     -36.031  25.606   2.486  0.00  0.00    +0.190 C 
ATOM      7  C   UNL     1     -34.170  24.555   0.962  0.00  0.00    +0.033 C 
ATOM      8  C   UNL     1     -37.269  23.498   2.831  0.00  0.00    +0.004 C 
ATOM      9  C   UNL     1     -33.776  23.284   0.174  0.00  0.00    +0.111 C 
ATOM     10  C   UNL     1     -33.812  20.621   0.145  0.00  0.00    +0.036 C 
ATOM     11  C   UNL     1     -37.280  25.004   3.168  0.00  0.00    +0.048 C 
ATOM     12  C   UNL     1     -35.996  20.740   2.228  0.00  0.00    +0.004 C 
ATOM     13  C   UNL     1     -36.587  24.718   0.173  0.00  0.00    +0.004 C 
ATOM     14  C   UNL     1     -35.658  19.443   1.505  0.00  0.00    +0.022 C 
ATOM     15  C   UNL     1     -34.219  19.458   1.057  0.00  0.00    -0.038 C 
ATOM     16  C   UNL     1     -34.536  20.446  -1.209  0.00  0.00    +0.009 C 
ATOM     17  C   UNL     1     -32.322  20.581  -0.163  0.00  0.00    -0.020 C 
ATOM     18  C   UNL     1     -33.367  18.515   1.490  0.00  0.00    +0.034 C 
ATOM     19  C   UNL     1     -31.468  19.647   0.265  0.00  0.00    +0.038 C 
ATOM     20  C   UNL     1     -31.939  18.536   1.114  0.00  0.00    +0.195 C 
ENDROOT
BRANCH   9  21
ATOM     21  O   UNL     1     -34.330  23.343  -1.133  0.00  0.00    -0.384 OA
ATOM     22  H   UNL     1     -35.171  23.827  -1.105  0.00  0.00    +0.210 HD
ENDBRANCH   9  21
BRANCH   6  24
ATOM     23  O   UNL     1     -37.393  27.461   1.867  0.00  0.00    -0.288 OA
ATOM     24  C   UNL     1     -36.259  26.993   1.964  0.00  0.00    +0.230 C 
BRANCH  24  25
ATOM     25  C   UNL     1     -35.022  27.773   1.569  0.00  0.00    +0.276 C 
BRANCH  25  26
ATOM     26  O   UNL     1     -35.229  29.158   1.743  0.00  0.00    -0.440 OA
BRANCH  26  28
ATOM     27  O   UNL     1     -34.070  29.114   3.741  0.00  0.00    -0.250 OA
ATOM     28  C   UNL     1     -34.751  29.699   2.910  0.00  0.00    +0.318 C 
ATOM     29  C   UNL     1     -35.184  31.128   3.035  0.00  0.00    +0.121 C 
ENDBRANCH  26  28
ENDBRANCH  25  26
ENDBRANCH  24  25
ENDBRANCH   6  24
BRANCH   6  30
ATOM     30  O   UNL     1     -34.993  25.757   3.449  0.00  0.00    -0.448 OA
BRANCH  30  32
ATOM     31  O   UNL     1     -36.317  26.740   5.062  0.00  0.00    -0.250 OA
ATOM     32  C   UNL     1     -35.402  25.998   4.733  0.00  0.00    +0.317 C 
BRANCH  32  33
ATOM     33  C   UNL     1     -34.542  25.199   5.685  0.00  0.00    +0.110 C 
BRANCH  33  34
ATOM     34  C   UNL     1     -34.431  23.734   5.263  0.00  0.00    +0.012 C 
BRANCH  34  35
ATOM     35  C   UNL     1     -35.447  22.864   6.001  0.00  0.00    +0.001 C 
ATOM     36  C   UNL     1     -35.187  21.384   5.768  0.00  0.00    +0.000 C 
ENDBRANCH  34  35
ENDBRANCH  33  34
ENDBRANCH  32  33
ENDBRANCH  30  32
ENDBRANCH   6  30
TORSDOF 10
ENDMDL
MODEL 2
REMARK VINA RESULT:      -6.4      1.255      2.068
REMARK  Name = 5284612
REMARK  10 active torsions:
REMARK  status: ('A' for Active; 'I' for Inactive)
REMARK    1  A    between atoms: C_6  and  C_24
REMARK    2  A    between atoms: C_6  and  O_30
REMARK    3  A    between atoms: C_9  and  O_21
REMARK    4  A    between atoms: C_24  and  C_25
REMARK    5  A    between atoms: C_25  and  O_26
REMARK    6  A    between atoms: O_26  and  C_28
REMARK    7  A    between atoms: O_30  and  C_32
REMARK    8  A    between atoms: C_32  and  C_33
REMARK    9  A    between atoms: C_33  and  C_34
REMARK   10  A    between atoms: C_34  and  C_35
REMARK                            x       y       z     vdW  Elec       q    Type
REMARK                         _______ _______ _______ _____ _____    ______ ____
ROOT
ATOM      1  O   UNL     1     -31.175  17.579   1.543  0.00  0.00    -0.287 OA
ATOM      2  C   UNL     1     -34.904  24.884   0.916  0.00  0.00    +0.043 C 
ATOM      3  C   UNL     1     -35.289  23.681   1.807  0.00  0.00    +0.004 C 
ATOM      4  C   UNL     1     -35.193  22.328   1.087  0.00  0.00    +0.003 C 
ATOM      5  C   UNL     1     -33.712  22.112   0.614  0.00  0.00    +0.034 C 
ATOM      6  C   UNL     1     -35.174  26.039   1.919  0.00  0.00    +0.190 C 
ATOM      7  C   UNL     1     -33.436  24.689   0.486  0.00  0.00    +0.033 C 
ATOM      8  C   UNL     1     -36.626  24.103   2.411  0.00  0.00    +0.004 C 
ATOM      9  C   UNL     1     -33.180  23.330  -0.205  0.00  0.00    +0.111 C 
ATOM     10  C   UNL     1     -33.495  20.690  -0.039  0.00  0.00    +0.036 C 
ATOM     11  C   UNL     1     -36.478  25.622   2.636  0.00  0.00    +0.048 C 
ATOM     12  C   UNL     1     -35.651  21.190   2.018  0.00  0.00    +0.004 C 
ATOM     13  C   UNL     1     -35.825  25.047  -0.325  0.00  0.00    +0.004 C 
ATOM     14  C   UNL     1     -35.452  19.815   1.393  0.00  0.00    +0.022 C 
ATOM     15  C   UNL     1     -34.020  19.646   0.954  0.00  0.00    -0.038 C 
ATOM     16  C   UNL     1     -34.237  20.494  -1.380  0.00  0.00    +0.009 C 
ATOM     17  C   UNL     1     -32.019  20.472  -0.335  0.00  0.00    -0.020 C 
ATOM     18  C   UNL     1     -33.271  18.654   1.459  0.00  0.00    +0.034 C 
ATOM     19  C   UNL     1     -31.266  19.487   0.165  0.00  0.00    +0.038 C 
ATOM     20  C   UNL     1     -31.849  18.497   1.090  0.00  0.00    +0.195 C 
ENDROOT
BRANCH   9  21
ATOM     21  O   UNL     1     -33.728  23.351  -1.515  0.00  0.00    -0.384 OA
ATOM     22  H   UNL     1     -33.888  24.269  -1.783  0.00  0.00    +0.210 HD
ENDBRANCH   9  21
BRANCH   6  24
ATOM     23  O   UNL     1     -34.278  27.917   0.759  0.00  0.00    -0.288 OA
ATOM     24  C   UNL     1     -35.256  27.400   1.296  0.00  0.00    +0.230 C 
BRANCH  24  25
ATOM     25  C   UNL     1     -36.602  28.092   1.369  0.00  0.00    +0.276 C 
BRANCH  25  26
ATOM     26  O   UNL     1     -37.165  28.224   0.081  0.00  0.00    -0.440 OA
BRANCH  26  28
ATOM     27  O   UNL     1     -39.259  27.633   0.858  0.00  0.00    -0.250 OA
ATOM     28  C   UNL     1     -38.464  27.807  -0.056  0.00  0.00    +0.318 C 
ATOM     29  C   UNL     1     -38.789  27.588  -1.503  0.00  0.00    +0.121 C 
ENDBRANCH  26  28
ENDBRANCH  25  26
ENDBRANCH  24  25
ENDBRANCH   6  24
BRANCH   6  30
ATOM     30  O   UNL     1     -34.123  26.151   2.874  0.00  0.00    -0.448 OA
BRANCH  30  32
ATOM     31  O   UNL     1     -35.220  27.219   4.600  0.00  0.00    -0.250 OA
ATOM     32  C   UNL     1     -34.517  26.313   4.176  0.00  0.00    +0.317 C 
BRANCH  32  33
ATOM     33  C   UNL     1     -33.943  25.190   5.010  0.00  0.00    +0.110 C 
BRANCH  33  34
ATOM     34  C   UNL     1     -35.037  24.335   5.648  0.00  0.00    +0.012 C 
BRANCH  34  35
ATOM     35  C   UNL     1     -34.788  22.846   5.412  0.00  0.00    +0.001 C 
ATOM     36  C   UNL     1     -35.574  21.989   6.391  0.00  0.00    +0.000 C 
ENDBRANCH  34  35
ENDBRANCH  33  34
ENDBRANCH  32  33
ENDBRANCH  30  32
ENDBRANCH   6  30
TORSDOF 10
ENDMDL
MODEL 3
REMARK VINA RESULT:      -6.4      2.275      3.189
REMARK  Name = 5284612
REMARK  10 active torsions:
REMARK  status: ('A' for Active; 'I' for Inactive)
REMARK    1  A    between atoms: C_6  and  C_24
REMARK    2  A    between atoms: C_6  and  O_30
REMARK    3  A    between atoms: C_9  and  O_21
REMARK    4  A    between atoms: C_24  and  C_25
REMARK    5  A    between atoms: C_25  and  O_26
REMARK    6  A    between atoms: O_26  and  C_28
REMARK    7  A    between atoms: O_30  and  C_32
REMARK    8  A    between atoms: C_32  and  C_33
REMARK    9  A    between atoms: C_33  and  C_34
REMARK   10  A    between atoms: C_34  and  C_35
REMARK                            x       y       z     vdW  Elec       q    Type
REMARK                         _______ _______ _______ _____ _____    ______ ____
ROOT
ATOM      1  O   UNL     1     -28.109  18.190   0.715  0.00  0.00    -0.287 OA
ATOM      2  C   UNL     1     -35.027  22.635   0.558  0.00  0.00    +0.043 C 
ATOM      3  C   UNL     1     -34.669  21.448   1.479  0.00  0.00    +0.004 C 
ATOM      4  C   UNL     1     -33.983  20.286   0.746  0.00  0.00    +0.003 C 
ATOM      5  C   UNL     1     -32.649  20.810   0.106  0.00  0.00    +0.034 C 
ATOM      6  C   UNL     1     -35.735  23.553   1.591  0.00  0.00    +0.190 C 
ATOM      7  C   UNL     1     -33.711  23.173  -0.037  0.00  0.00    +0.033 C 
ATOM      8  C   UNL     1     -35.969  21.181   2.233  0.00  0.00    +0.004 C 
ATOM      9  C   UNL     1     -32.881  22.087  -0.760  0.00  0.00    +0.111 C 
ATOM     10  C   UNL     1     -31.819  19.651  -0.575  0.00  0.00    +0.036 C 
ATOM     11  C   UNL     1     -36.577  22.582   2.449  0.00  0.00    +0.048 C 
ATOM     12  C   UNL     1     -33.715  19.121   1.715  0.00  0.00    +0.004 C 
ATOM     13  C   UNL     1     -36.027  22.256  -0.571  0.00  0.00    +0.004 C 
ATOM     14  C   UNL     1     -32.921  17.996   1.064  0.00  0.00    +0.022 C 
ATOM     15  C   UNL     1     -31.649  18.538   0.464  0.00  0.00    -0.038 C 
ATOM     16  C   UNL     1     -32.494  19.044  -1.825  0.00  0.00    +0.009 C 
ATOM     17  C   UNL     1     -30.469  20.180  -1.038  0.00  0.00    -0.020 C 
ATOM     18  C   UNL     1     -30.458  18.076   0.876  0.00  0.00    +0.034 C 
ATOM     19  C   UNL     1     -29.279  19.727  -0.632  0.00  0.00    +0.038 C 
ATOM     20  C   UNL     1     -29.194  18.627   0.347  0.00  0.00    +0.195 C 
ENDROOT
BRANCH   9  21
ATOM     21  O   UNL     1     -33.496  21.766  -2.000  0.00  0.00    -0.384 OA
ATOM     22  H   UNL     1     -34.455  21.888  -1.926  0.00  0.00    +0.210 HD
ENDBRANCH   9  21
BRANCH   6  24
ATOM     23  O   UNL     1     -36.013  25.603   0.408  0.00  0.00    -0.288 OA
ATOM     24  C   UNL     1     -36.548  24.661   0.990  0.00  0.00    +0.230 C 
BRANCH  24  25
ATOM     25  C   UNL     1     -38.051  24.549   1.142  0.00  0.00    +0.276 C 
BRANCH  25  26
ATOM     26  O   UNL     1     -38.557  25.627   1.900  0.00  0.00    -0.440 OA
BRANCH  26  28
ATOM     27  O   UNL     1     -39.568  24.639   3.728  0.00  0.00    -0.250 OA
ATOM     28  C   UNL     1     -39.613  25.342   2.727  0.00  0.00    +0.318 C 
ATOM     29  C   UNL     1     -40.857  26.017   2.232  0.00  0.00    +0.121 C 
ENDBRANCH  26  28
ENDBRANCH  25  26
ENDBRANCH  24  25
ENDBRANCH   6  24
BRANCH   6  30
ATOM     30  O   UNL     1     -34.790  24.221   2.422  0.00  0.00    -0.448 OA
BRANCH  30  32
ATOM     31  O   UNL     1     -36.093  25.403   3.915  0.00  0.00    -0.250 OA
ATOM     32  C   UNL     1     -35.234  24.567   3.670  0.00  0.00    +0.317 C 
BRANCH  32  33
ATOM     33  C   UNL     1     -34.494  23.748   4.703  0.00  0.00    +0.110 C 
BRANCH  33  34
ATOM     34  C   UNL     1     -35.251  23.681   6.029  0.00  0.00    +0.012 C 
BRANCH  34  35
ATOM     35  C   UNL     1     -35.718  22.259   6.333  0.00  0.00    +0.001 C 
ATOM     36  C   UNL     1     -34.872  21.227   5.605  0.00  0.00    +0.000 C 
ENDBRANCH  34  35
ENDBRANCH  33  34
ENDBRANCH  32  33
ENDBRANCH  30  32
ENDBRANCH   6  30
TORSDOF 10
ENDMDL
MODEL 4
REMARK VINA RESULT:      -5.9      2.561      3.836
REMARK  Name = 5284612
REMARK  10 active torsions:
REMARK  status: ('A' for Active; 'I' for Inactive)
REMARK    1  A    between atoms: C_6  and  C_24
REMARK    2  A    between atoms: C_6  and  O_30
REMARK    3  A    between atoms: C_9  and  O_21
REMARK    4  A    between atoms: C_24  and  C_25
REMARK    5  A    between atoms: C_25  and  O_26
REMARK    6  A    between atoms: O_26  and  C_28
REMARK    7  A    between atoms: O_30  and  C_32
REMARK    8  A    between atoms: C_32  and  C_33
REMARK    9  A    between atoms: C_33  and  C_34
REMARK   10  A    between atoms: C_34  and  C_35
REMARK                            x       y       z     vdW  Elec       q    Type
REMARK                         _______ _______ _______ _____ _____    ______ ____
ROOT
ATOM      1  O   UNL     1     -27.631  18.839   0.327  0.00  0.00    -0.287 OA
ATOM      2  C   UNL     1     -35.157  22.119   0.826  0.00  0.00    +0.043 C 
ATOM      3  C   UNL     1     -34.601  20.874   1.554  0.00  0.00    +0.004 C 
ATOM      4  C   UNL     1     -33.758  19.962   0.652  0.00  0.00    +0.003 C 
ATOM      5  C   UNL     1     -32.533  20.780   0.109  0.00  0.00    +0.034 C 
ATOM      6  C   UNL     1     -35.979  22.744   1.986  0.00  0.00    +0.190 C 
ATOM      7  C   UNL     1     -33.952  22.941   0.329  0.00  0.00    +0.033 C 
ATOM      8  C   UNL     1     -35.829  20.294   2.250  0.00  0.00    +0.004 C 
ATOM      9  C   UNL     1     -32.978  22.124  -0.549  0.00  0.00    +0.111 C 
ATOM     10  C   UNL     1     -31.546  19.885  -0.740  0.00  0.00    +0.036 C 
ATOM     11  C   UNL     1     -36.643  21.533   2.678  0.00  0.00    +0.048 C 
ATOM     12  C   UNL     1     -33.294  18.717   1.430  0.00  0.00    +0.004 C 
ATOM     13  C   UNL     1     -36.107  21.767  -0.353  0.00  0.00    +0.004 C 
ATOM     14  C   UNL     1     -32.347  17.844   0.616  0.00  0.00    +0.022 C 
ATOM     15  C   UNL     1     -31.186  18.664   0.115  0.00  0.00    -0.038 C 
ATOM     16  C   UNL     1     -32.143  19.380  -2.072  0.00  0.00    +0.009 C 
ATOM     17  C   UNL     1     -30.304  20.683  -1.108  0.00  0.00    -0.020 C 
ATOM     18  C   UNL     1     -29.930  18.336   0.456  0.00  0.00    +0.034 C 
ATOM     19  C   UNL     1     -29.051  20.364  -0.770  0.00  0.00    +0.038 C 
ATOM     20  C   UNL     1     -28.777  19.153   0.026  0.00  0.00    +0.195 C 
ENDROOT
BRANCH   9  21
ATOM     21  O   UNL     1     -33.558  21.905  -1.827  0.00  0.00    -0.384 OA
ATOM     22  H   UNL     1     -32.914  22.128  -2.517  0.00  0.00    +0.210 HD
ENDBRANCH   9  21
BRANCH   6  24
ATOM     23  O   UNL     1     -36.595  24.858   1.075  0.00  0.00    -0.288 OA
ATOM     24  C   UNL     1     -36.966  23.790   1.560  0.00  0.00    +0.230 C 
BRANCH  24  25
ATOM     25  C   UNL     1     -38.428  23.455   1.763  0.00  0.00    +0.276 C 
BRANCH  25  26
ATOM     26  O   UNL     1     -39.235  24.595   1.555  0.00  0.00    -0.440 OA
BRANCH  26  28
ATOM     27  O   UNL     1     -39.750  24.736   3.803  0.00  0.00    -0.250 OA
ATOM     28  C   UNL     1     -39.967  25.022   2.634  0.00  0.00    +0.318 C 
ATOM     29  C   UNL     1     -41.093  25.902   2.180  0.00  0.00    +0.121 C 
ENDBRANCH  26  28
ENDBRANCH  25  26
ENDBRANCH  24  25
ENDBRANCH   6  24
BRANCH   6  30
ATOM     30  O   UNL     1     -35.134  23.415   2.916  0.00  0.00    -0.448 OA
BRANCH  30  32
ATOM     31  O   UNL     1     -35.432  22.479   5.003  0.00  0.00    -0.250 OA
ATOM     32  C   UNL     1     -35.557  23.408   4.218  0.00  0.00    +0.317 C 
BRANCH  32  33
ATOM     33  C   UNL     1     -36.206  24.736   4.534  0.00  0.00    +0.110 C 
BRANCH  33  34
ATOM     34  C   UNL     1     -35.495  25.464   5.674  0.00  0.00    +0.012 C 
BRANCH  34  35
ATOM     35  C   UNL     1     -34.078  25.874   5.275  0.00  0.00    +0.001 C 
ATOM     36  C   UNL     1     -33.377  26.620   6.398  0.00  0.00    +0.000 C 
ENDBRANCH  34  35
ENDBRANCH  33  34
ENDBRANCH  32  33
ENDBRANCH  30  32
ENDBRANCH   6  30
TORSDOF 10
ENDMDL
MODEL 5
REMARK VINA RESULT:      -5.9      2.330      3.326
REMARK  Name = 5284612
REMARK  10 active torsions:
REMARK  status: ('A' for Active; 'I' for Inactive)
REMARK    1  A    between atoms: C_6  and  C_24
REMARK    2  A    between atoms: C_6  and  O_30
REMARK    3  A    between atoms: C_9  and  O_21
REMARK    4  A    between atoms: C_24  and  C_25
REMARK    5  A    between atoms: C_25  and  O_26
REMARK    6  A    between atoms: O_26  and  C_28
REMARK    7  A    between atoms: O_30  and  C_32
REMARK    8  A    between atoms: C_32  and  C_33
REMARK    9  A    between atoms: C_33  and  C_34
REMARK   10  A    between atoms: C_34  and  C_35
REMARK                            x       y       z     vdW  Elec       q    Type
REMARK                         _______ _______ _______ _____ _____    ______ ____
ROOT
ATOM      1  O   UNL     1     -27.918  19.898  -0.297  0.00  0.00    -0.287 OA
ATOM      2  C   UNL     1     -35.870  21.874   0.412  0.00  0.00    +0.043 C 
ATOM      3  C   UNL     1     -35.023  20.955   1.321  0.00  0.00    +0.004 C 
ATOM      4  C   UNL     1     -34.097  20.008   0.545  0.00  0.00    +0.003 C 
ATOM      5  C   UNL     1     -33.105  20.867  -0.316  0.00  0.00    +0.034 C 
ATOM      6  C   UNL     1     -36.699  22.611   1.500  0.00  0.00    +0.190 C 
ATOM      7  C   UNL     1     -34.894  22.745  -0.403  0.00  0.00    +0.033 C 
ATOM      8  C   UNL     1     -36.053  20.359   2.278  0.00  0.00    +0.004 C 
ATOM      9  C   UNL     1     -33.856  21.917  -1.194  0.00  0.00    +0.111 C 
ATOM     10  C   UNL     1     -32.037  19.975  -1.064  0.00  0.00    +0.036 C 
ATOM     11  C   UNL     1     -37.054  21.508   2.521  0.00  0.00    +0.048 C 
ATOM     12  C   UNL     1     -33.336  19.085   1.514  0.00  0.00    +0.004 C 
ATOM     13  C   UNL     1     -36.828  21.092  -0.529  0.00  0.00    +0.004 C 
ATOM     14  C   UNL     1     -32.308  18.216   0.800  0.00  0.00    +0.022 C 
ATOM     15  C   UNL     1     -31.375  19.076  -0.013  0.00  0.00    -0.038 C 
ATOM     16  C   UNL     1     -32.633  19.069  -2.165  0.00  0.00    +0.009 C 
ATOM     17  C   UNL     1     -31.009  20.860  -1.754  0.00  0.00    -0.020 C 
ATOM     18  C   UNL     1     -30.056  19.058   0.230  0.00  0.00    +0.034 C 
ATOM     19  C   UNL     1     -29.694  20.849  -1.516  0.00  0.00    +0.038 C 
ATOM     20  C   UNL     1     -29.124  19.931  -0.513  0.00  0.00    +0.195 C 
ENDROOT
BRANCH   9  21
ATOM     21  O   UNL     1     -34.487  21.301  -2.308  0.00  0.00    -0.384 OA
ATOM     22  H   UNL     1     -34.030  20.472  -2.521  0.00  0.00    +0.210 HD
ENDBRANCH   9  21
BRANCH   6  24
ATOM     23  O   UNL     1     -39.040  22.918   1.179  0.00  0.00    -0.288 OA
ATOM     24  C   UNL     1     -37.902  23.341   0.981  0.00  0.00    +0.230 C 
BRANCH  24  25
ATOM     25  C   UNL     1     -37.632  24.614   0.206  0.00  0.00    +0.276 C 
BRANCH  25  26
ATOM     26  O   UNL     1     -38.657  25.559   0.429  0.00  0.00    -0.440 OA
BRANCH  26  28
ATOM     27  O   UNL     1     -39.071  26.489   2.504  0.00  0.00    -0.250 OA
ATOM     28  C   UNL     1     -38.446  26.448   1.452  0.00  0.00    +0.318 C 
ATOM     29  C   UNL     1     -37.328  27.385   1.104  0.00  0.00    +0.121 C 
ENDBRANCH  26  28
ENDBRANCH  25  26
ENDBRANCH  24  25
ENDBRANCH   6  24
BRANCH   6  30
ATOM     30  O   UNL     1     -35.925  23.620   2.143  0.00  0.00    -0.448 OA
BRANCH  30  32
ATOM     31  O   UNL     1     -37.281  24.149   3.933  0.00  0.00    -0.250 OA
ATOM     32  C   UNL     1     -36.197  23.823   3.470  0.00  0.00    +0.317 C 
BRANCH  32  33
ATOM     33  C   UNL     1     -34.941  23.580   4.275  0.00  0.00    +0.110 C 
BRANCH  33  34
ATOM     34  C   UNL     1     -35.195  23.691   5.777  0.00  0.00    +0.012 C 
BRANCH  34  35
ATOM     35  C   UNL     1     -35.569  22.337   6.380  0.00  0.00    +0.001 C 
ATOM     36  C   UNL     1     -34.966  21.189   5.587  0.00  0.00    +0.000 C 
ENDBRANCH  34  35
ENDBRANCH  33  34
ENDBRANCH  32  33
ENDBRANCH  30  32
ENDBRANCH   6  30
TORSDOF 10
ENDMDL
MODEL 6
REMARK VINA RESULT:      -5.8      2.664      6.879
REMARK  Name = 5284612
REMARK  10 active torsions:
REMARK  status: ('A' for Active; 'I' for Inactive)
REMARK    1  A    between atoms: C_6  and  C_24
REMARK    2  A    between atoms: C_6  and  O_30
REMARK    3  A    between atoms: C_9  and  O_21
REMARK    4  A    between atoms: C_24  and  C_25
REMARK    5  A    between atoms: C_25  and  O_26
REMARK    6  A    between atoms: O_26  and  C_28
REMARK    7  A    between atoms: O_30  and  C_32
REMARK    8  A    between atoms: C_32  and  C_33
REMARK    9  A    between atoms: C_33  and  C_34
REMARK   10  A    between atoms: C_34  and  C_35
REMARK                            x       y       z     vdW  Elec       q    Type
REMARK                         _______ _______ _______ _____ _____    ______ ____
ROOT
ATOM      1  O   UNL     1     -32.440  31.126   4.205  0.00  0.00    -0.287 OA
ATOM      2  C   UNL     1     -36.537  24.413   1.796  0.00  0.00    +0.043 C 
ATOM      3  C   UNL     1     -35.018  24.580   2.030  0.00  0.00    +0.004 C 
ATOM      4  C   UNL     1     -34.451  25.893   1.471  0.00  0.00    +0.003 C 
ATOM      5  C   UNL     1     -35.174  27.095   2.175  0.00  0.00    +0.034 C 
ATOM      6  C   UNL     1     -36.734  23.000   2.409  0.00  0.00    +0.190 C 
ATOM      7  C   UNL     1     -37.247  25.573   2.522  0.00  0.00    +0.033 C 
ATOM      8  C   UNL     1     -34.438  23.256   1.539  0.00  0.00    +0.004 C 
ATOM      9  C   UNL     1     -36.728  26.965   2.097  0.00  0.00    +0.111 C 
ATOM     10  C   UNL     1     -34.572  28.490   1.742  0.00  0.00    +0.036 C 
ATOM     11  C   UNL     1     -35.493  22.206   1.943  0.00  0.00    +0.048 C 
ATOM     12  C   UNL     1     -32.928  25.956   1.688  0.00  0.00    +0.004 C 
ATOM     13  C   UNL     1     -36.925  24.385   0.291  0.00  0.00    +0.004 C 
ATOM     14  C   UNL     1     -32.338  27.296   1.266  0.00  0.00    +0.022 C 
ATOM     15  C   UNL     1     -33.057  28.423   1.963  0.00  0.00    -0.038 C 
ATOM     16  C   UNL     1     -34.827  28.853   0.262  0.00  0.00    +0.009 C 
ATOM     17  C   UNL     1     -35.198  29.606   2.566  0.00  0.00    -0.020 C 
ATOM     18  C   UNL     1     -32.380  29.268   2.756  0.00  0.00    +0.034 C 
ATOM     19  C   UNL     1     -34.531  30.450   3.358  0.00  0.00    +0.038 C 
ATOM     20  C   UNL     1     -33.066  30.347   3.495  0.00  0.00    +0.195 C 
ENDROOT
BRANCH   9  21
ATOM     21  O   UNL     1     -37.207  27.275   0.796  0.00  0.00    -0.384 OA
ATOM     22  H   UNL     1     -38.027  27.789   0.868  0.00  0.00    +0.210 HD
ENDBRANCH   9  21
BRANCH   6  24
ATOM     23  O   UNL     1     -38.054  21.348   1.311  0.00  0.00    -0.288 OA
ATOM     24  C   UNL     1     -38.028  22.335   2.044  0.00  0.00    +0.230 C 
BRANCH  24  25
ATOM     25  C   UNL     1     -39.284  22.948   2.625  0.00  0.00    +0.276 C 
BRANCH  25  26
ATOM     26  O   UNL     1     -40.347  22.881   1.698  0.00  0.00    -0.440 OA
BRANCH  26  28
ATOM     27  O   UNL     1     -40.452  24.043  -0.296  0.00  0.00    -0.250 OA
ATOM     28  C   UNL     1     -40.544  23.996   0.923  0.00  0.00    +0.318 C 
ATOM     29  C   UNL     1     -40.891  25.172   1.785  0.00  0.00    +0.121 C 
ENDBRANCH  26  28
ENDBRANCH  25  26
ENDBRANCH  24  25
ENDBRANCH   6  24
BRANCH   6  30
ATOM     30  O   UNL     1     -36.754  23.052   3.833  0.00  0.00    -0.448 OA
BRANCH  30  32
ATOM     31  O   UNL     1     -35.563  21.101   4.140  0.00  0.00    -0.250 OA
ATOM     32  C   UNL     1     -35.854  22.242   4.471  0.00  0.00    +0.317 C 
BRANCH  32  33
ATOM     33  C   UNL     1     -35.275  22.981   5.656  0.00  0.00    +0.110 C 
BRANCH  33  34
ATOM     34  C   UNL     1     -34.298  24.074   5.225  0.00  0.00    +0.012 C 
BRANCH  34  35
ATOM     35  C   UNL     1     -34.804  25.460   5.622  0.00  0.00    +0.001 C 
ATOM     36  C   UNL     1     -33.724  26.517   5.454  0.00  0.00    +0.000 C 
ENDBRANCH  34  35
ENDBRANCH  33  34
ENDBRANCH  32  33
ENDBRANCH  30  32
ENDBRANCH   6  30
TORSDOF 10
ENDMDL
MODEL 7
REMARK VINA RESULT:      -5.7      1.938      2.791
REMARK  Name = 5284612
REMARK  10 active torsions:
REMARK  status: ('A' for Active; 'I' for Inactive)
REMARK    1  A    between atoms: C_6  and  C_24
REMARK    2  A    between atoms: C_6  and  O_30
REMARK    3  A    between atoms: C_9  and  O_21
REMARK    4  A    between atoms: C_24  and  C_25
REMARK    5  A    between atoms: C_25  and  O_26
REMARK    6  A    between atoms: O_26  and  C_28
REMARK    7  A    between atoms: O_30  and  C_32
REMARK    8  A    between atoms: C_32  and  C_33
REMARK    9  A    between atoms: C_33  and  C_34
REMARK   10  A    between atoms: C_34  and  C_35
REMARK                            x       y       z     vdW  Elec       q    Type
REMARK                         _______ _______ _______ _____ _____    ______ ____
ROOT
ATOM      1  O   UNL     1     -28.460  18.065   0.724  0.00  0.00    -0.287 OA
ATOM      2  C   UNL     1     -34.963  23.098   0.540  0.00  0.00    +0.043 C 
ATOM      3  C   UNL     1     -34.738  21.849   1.422  0.00  0.00    +0.004 C 
ATOM      4  C   UNL     1     -34.130  20.662   0.662  0.00  0.00    +0.003 C 
ATOM      5  C   UNL     1     -32.735  21.091   0.086  0.00  0.00    +0.034 C 
ATOM      6  C   UNL     1     -35.624  24.033   1.589  0.00  0.00    +0.190 C 
ATOM      7  C   UNL     1     -33.586  23.542   0.008  0.00  0.00    +0.033 C 
ATOM      8  C   UNL     1     -36.081  21.667   2.125  0.00  0.00    +0.004 C 
ATOM      9  C   UNL     1     -32.828  22.417  -0.733  0.00  0.00    +0.111 C 
ATOM     10  C   UNL     1     -31.985  19.893  -0.617  0.00  0.00    +0.036 C 
ATOM     11  C   UNL     1     -36.574  23.106   2.380  0.00  0.00    +0.048 C 
ATOM     12  C   UNL     1     -33.996  19.441   1.591  0.00  0.00    +0.004 C 
ATOM     13  C   UNL     1     -35.952  22.850  -0.633  0.00  0.00    +0.004 C 
ATOM     14  C   UNL     1     -33.279  18.277   0.918  0.00  0.00    +0.022 C 
ATOM     15  C   UNL     1     -31.946  18.729   0.380  0.00  0.00    -0.038 C 
ATOM     16  C   UNL     1     -32.667  19.395  -1.911  0.00  0.00    +0.009 C 
ATOM     17  C   UNL     1     -30.580  20.320  -1.017  0.00  0.00    -0.020 C 
ATOM     18  C   UNL     1     -30.813  18.150   0.808  0.00  0.00    +0.034 C 
ATOM     19  C   UNL     1     -29.448  19.749  -0.593  0.00  0.00    +0.038 C 
ATOM     20  C   UNL     1     -29.490  18.609   0.341  0.00  0.00    +0.195 C 
ENDROOT
BRANCH   9  21
ATOM     21  O   UNL     1     -33.426  22.198  -2.003  0.00  0.00    -0.384 OA
ATOM     22  H   UNL     1     -33.936  21.373  -1.982  0.00  0.00    +0.210 HD
ENDBRANCH   9  21
BRANCH   6  24
ATOM     23  O   UNL     1     -37.546  25.300   0.973  0.00  0.00    -0.288 OA
ATOM     24  C   UNL     1     -36.319  25.229   1.009  0.00  0.00    +0.230 C 
BRANCH  24  25
ATOM     25  C   UNL     1     -35.426  26.331   0.477  0.00  0.00    +0.276 C 
BRANCH  25  26
ATOM     26  O   UNL     1     -35.861  26.753  -0.798  0.00  0.00    -0.440 OA
BRANCH  26  28
ATOM     27  O   UNL     1     -35.512  25.630  -2.787  0.00  0.00    -0.250 OA
ATOM     28  C   UNL     1     -35.111  26.327  -1.865  0.00  0.00    +0.318 C 
ATOM     29  C   UNL     1     -33.707  26.839  -1.748  0.00  0.00    +0.121 C 
ENDBRANCH  26  28
ENDBRANCH  25  26
ENDBRANCH  24  25
ENDBRANCH   6  24
BRANCH   6  30
ATOM     30  O   UNL     1     -34.654  24.584   2.475  0.00  0.00    -0.448 OA
BRANCH  30  32
ATOM     31  O   UNL     1     -35.844  25.771   4.055  0.00  0.00    -0.250 OA
ATOM     32  C   UNL     1     -35.093  24.857   3.743  0.00  0.00    +0.317 C 
BRANCH  32  33
ATOM     33  C   UNL     1     -34.501  23.848   4.700  0.00  0.00    +0.110 C 
BRANCH  33  34
ATOM     34  C   UNL     1     -35.310  23.742   5.992  0.00  0.00    +0.012 C 
BRANCH  34  35
ATOM     35  C   UNL     1     -35.507  22.285   6.408  0.00  0.00    +0.001 C 
ATOM     36  C   UNL     1     -34.916  21.329   5.385  0.00  0.00    +0.000 C 
ENDBRANCH  34  35
ENDBRANCH  33  34
ENDBRANCH  32  33
ENDBRANCH  30  32
ENDBRANCH   6  30
TORSDOF 10
ENDMDL
MODEL 8
REMARK VINA RESULT:      -5.7      3.162      4.835
REMARK  Name = 5284612
REMARK  10 active torsions:
REMARK  status: ('A' for Active; 'I' for Inactive)
REMARK    1  A    between atoms: C_6  and  C_24
REMARK    2  A    between atoms: C_6  and  O_30
REMARK    3  A    between atoms: C_9  and  O_21
REMARK    4  A    between atoms: C_24  and  C_25
REMARK    5  A    between atoms: C_25  and  O_26
REMARK    6  A    between atoms: O_26  and  C_28
REMARK    7  A    between atoms: O_30  and  C_32
REMARK    8  A    between atoms: C_32  and  C_33
REMARK    9  A    between atoms: C_33  and  C_34
REMARK   10  A    between atoms: C_34  and  C_35
REMARK                            x       y       z     vdW  Elec       q    Type
REMARK                         _______ _______ _______ _____ _____    ______ ____
ROOT
ATOM      1  O   UNL     1     -40.517  21.051   1.196  0.00  0.00    -0.287 OA
ATOM      2  C   UNL     1     -33.966  25.996   1.722  0.00  0.00    +0.043 C 
ATOM      3  C   UNL     1     -35.424  26.284   2.146  0.00  0.00    +0.004 C 
ATOM      4  C   UNL     1     -36.466  25.793   1.131  0.00  0.00    +0.003 C 
ATOM      5  C   UNL     1     -36.319  24.240   0.967  0.00  0.00    +0.034 C 
ATOM      6  C   UNL     1     -33.220  26.665   2.909  0.00  0.00    +0.190 C 
ATOM      7  C   UNL     1     -33.813  24.467   1.601  0.00  0.00    +0.033 C 
ATOM      8  C   UNL     1     -35.397  27.763   2.521  0.00  0.00    +0.004 C 
ATOM      9  C   UNL     1     -34.848  23.826   0.648  0.00  0.00    +0.111 C 
ATOM     10  C   UNL     1     -37.430  23.631   0.023  0.00  0.00    +0.036 C 
ATOM     11  C   UNL     1     -34.013  27.965   3.173  0.00  0.00    +0.048 C 
ATOM     12  C   UNL     1     -37.886  26.171   1.593  0.00  0.00    +0.004 C 
ATOM     13  C   UNL     1     -33.563  26.697   0.395  0.00  0.00    +0.004 C 
ATOM     14  C   UNL     1     -38.964  25.594   0.684  0.00  0.00    +0.022 C 
ATOM     15  C   UNL     1     -38.789  24.103   0.553  0.00  0.00    -0.038 C 
ATOM     16  C   UNL     1     -37.311  24.070  -1.454  0.00  0.00    +0.009 C 
ATOM     17  C   UNL     1     -37.339  22.112   0.022  0.00  0.00    -0.020 C 
ATOM     18  C   UNL     1     -39.773  23.271   0.930  0.00  0.00    +0.034 C 
ATOM     19  C   UNL     1     -38.313  21.278   0.398  0.00  0.00    +0.038 C 
ATOM     20  C   UNL     1     -39.609  21.805   0.865  0.00  0.00    +0.195 C 
ENDROOT
BRANCH   9  21
ATOM     21  O   UNL     1     -34.507  24.127  -0.698  0.00  0.00    -0.384 OA
ATOM     22  H   UNL     1     -34.100  25.007  -0.738  0.00  0.00    +0.210 HD
ENDBRANCH   9  21
BRANCH   6  24
ATOM     23  O   UNL     1     -30.989  25.978   2.429  0.00  0.00    -0.288 OA
ATOM     24  C   UNL     1     -31.759  26.906   2.673  0.00  0.00    +0.230 C 
BRANCH  24  25
ATOM     25  C   UNL     1     -31.295  28.345   2.755  0.00  0.00    +0.276 C 
BRANCH  25  26
ATOM     26  O   UNL     1     -29.915  28.409   3.043  0.00  0.00    -0.440 OA
BRANCH  26  28
ATOM     27  O   UNL     1     -29.898  27.971   5.312  0.00  0.00    -0.250 OA
ATOM     28  C   UNL     1     -29.581  28.658   4.350  0.00  0.00    +0.318 C 
ATOM     29  C   UNL     1     -28.761  29.909   4.447  0.00  0.00    +0.121 C 
ENDBRANCH  26  28
ENDBRANCH  25  26
ENDBRANCH  24  25
ENDBRANCH   6  24
BRANCH   6  30
ATOM     30  O   UNL     1     -33.258  25.843   4.073  0.00  0.00    -0.448 OA
BRANCH  30  32
ATOM     31  O   UNL     1     -33.106  27.441   5.730  0.00  0.00    -0.250 OA
ATOM     32  C   UNL     1     -33.648  26.465   5.228  0.00  0.00    +0.317 C 
BRANCH  32  33
ATOM     33  C   UNL     1     -34.857  25.753   5.790  0.00  0.00    +0.110 C 
BRANCH  33  34
ATOM     34  C   UNL     1     -34.882  24.276   5.403  0.00  0.00    +0.012 C 
BRANCH  34  35
ATOM     35  C   UNL     1     -36.142  23.929   4.611  0.00  0.00    +0.001 C 
ATOM     36  C   UNL     1     -36.043  22.549   3.982  0.00  0.00    +0.000 C 
ENDBRANCH  34  35
ENDBRANCH  33  34
ENDBRANCH  32  33
ENDBRANCH  30  32
ENDBRANCH   6  30
TORSDOF 10
ENDMDL
MODEL 9
REMARK VINA RESULT:      -5.7      2.402      8.608
REMARK  Name = 5284612
REMARK  10 active torsions:
REMARK  status: ('A' for Active; 'I' for Inactive)
REMARK    1  A    between atoms: C_6  and  C_24
REMARK    2  A    between atoms: C_6  and  O_30
REMARK    3  A    between atoms: C_9  and  O_21
REMARK    4  A    between atoms: C_24  and  C_25
REMARK    5  A    between atoms: C_25  and  O_26
REMARK    6  A    between atoms: O_26  and  C_28
REMARK    7  A    between atoms: O_30  and  C_32
REMARK    8  A    between atoms: C_32  and  C_33
REMARK    9  A    between atoms: C_33  and  C_34
REMARK   10  A    between atoms: C_34  and  C_35
REMARK                            x       y       z     vdW  Elec       q    Type
REMARK                         _______ _______ _______ _____ _____    ______ ____
ROOT
ATOM      1  O   UNL     1     -34.576  26.082   5.633  0.00  0.00    -0.287 OA
ATOM      2  C   UNL     1     -34.559  19.818   0.302  0.00  0.00    +0.043 C 
ATOM      3  C   UNL     1     -34.322  21.319   0.022  0.00  0.00    +0.004 C 
ATOM      4  C   UNL     1     -35.293  22.244   0.769  0.00  0.00    +0.003 C 
ATOM      5  C   UNL     1     -35.121  22.017   2.312  0.00  0.00    +0.034 C 
ATOM      6  C   UNL     1     -33.479  19.212  -0.636  0.00  0.00    +0.190 C 
ATOM      7  C   UNL     1     -34.349  19.591   1.812  0.00  0.00    +0.033 C 
ATOM      8  C   UNL     1     -34.259  21.389  -1.501  0.00  0.00    +0.004 C 
ATOM      9  C   UNL     1     -35.229  20.507   2.694  0.00  0.00    +0.111 C 
ATOM     10  C   UNL     1     -36.005  23.012   3.164  0.00  0.00    +0.036 C 
ATOM     11  C   UNL     1     -33.554  20.080  -1.913  0.00  0.00    +0.048 C 
ATOM     12  C   UNL     1     -35.035  23.714   0.391  0.00  0.00    +0.004 C 
ATOM     13  C   UNL     1     -35.966  19.327  -0.139  0.00  0.00    +0.004 C 
ATOM     14  C   UNL     1     -35.888  24.680   1.203  0.00  0.00    +0.022 C 
ATOM     15  C   UNL     1     -35.694  24.432   2.677  0.00  0.00    -0.038 C 
ATOM     16  C   UNL     1     -37.526  22.778   3.027  0.00  0.00    +0.009 C 
ATOM     17  C   UNL     1     -35.684  22.857   4.644  0.00  0.00    -0.020 C 
ATOM     18  C   UNL     1     -35.234  25.410   3.472  0.00  0.00    +0.034 C 
ATOM     19  C   UNL     1     -35.224  23.826   5.441  0.00  0.00    +0.038 C 
ATOM     20  C   UNL     1     -34.981  25.180   4.909  0.00  0.00    +0.195 C 
ENDROOT
BRANCH   9  21
ATOM     21  O   UNL     1     -36.576  20.058   2.651  0.00  0.00    -0.384 OA
ATOM     22  H   UNL     1     -36.615  19.128   2.924  0.00  0.00    +0.210 HD
ENDBRANCH   9  21
BRANCH   6  24
ATOM     23  O   UNL     1     -33.976  17.339  -2.023  0.00  0.00    -0.288 OA
ATOM     24  C   UNL     1     -33.642  17.747  -0.912  0.00  0.00    +0.230 C 
BRANCH  24  25
ATOM     25  C   UNL     1     -33.376  16.812   0.250  0.00  0.00    +0.276 C 
BRANCH  25  26
ATOM     26  O   UNL     1     -32.780  15.614  -0.201  0.00  0.00    -0.440 OA
BRANCH  26  28
ATOM     27  O   UNL     1     -30.620  16.114   0.448  0.00  0.00    -0.250 OA
ATOM     28  C   UNL     1     -31.417  15.635  -0.347  0.00  0.00    +0.318 C 
ATOM     29  C   UNL     1     -31.024  14.980  -1.637  0.00  0.00    +0.121 C 
ENDBRANCH  26  28
ENDBRANCH  25  26
ENDBRANCH  24  25
ENDBRANCH   6  24
BRANCH   6  30
ATOM     30  O   UNL     1     -32.178  19.321  -0.066  0.00  0.00    -0.448 OA
BRANCH  30  32
ATOM     31  O   UNL     1     -30.725  18.764  -1.769  0.00  0.00    -0.250 OA
ATOM     32  C   UNL     1     -31.160  19.561  -0.948  0.00  0.00    +0.317 C 
BRANCH  32  33
ATOM     33  C   UNL     1     -30.654  20.971  -0.749  0.00  0.00    +0.110 C 
BRANCH  33  34
ATOM     34  C   UNL     1     -30.218  21.614  -2.065  0.00  0.00    +0.012 C 
BRANCH  34  35
ATOM     35  C   UNL     1     -30.831  23.003  -2.236  0.00  0.00    +0.001 C 
ATOM     36  C   UNL     1     -31.457  23.499  -0.943  0.00  0.00    +0.000 C 
ENDBRANCH  34  35
ENDBRANCH  33  34
ENDBRANCH  32  33
ENDBRANCH  30  32
ENDBRANCH   6  30
TORSDOF 10
ENDMDL
