MODEL 1
REMARK VINA RESULT:      -5.7      0.000      0.000
REMARK  Name = 51340725
REMARK  5 active torsions:
REMARK  status: ('A' for Active; 'I' for Inactive)
REMARK    1  A    between atoms: C_2  and  N_18
REMARK    2  A    between atoms: C_3  and  O_22
REMARK    3  A    between atoms: C_4  and  N_6
REMARK    4  A    between atoms: C_5  and  C_24
REMARK    5  A    between atoms: C_24  and  O_25
REMARK                            x       y       z     vdW  Elec       q    Type
REMARK                         _______ _______ _______ _____ _____    ______ ____
ROOT
ATOM      1  O   UNL     1     -36.137  24.141   5.590  0.00  0.00    -0.338 OA
ATOM      2  C   UNL     1     -35.598  22.688   3.809  0.00  0.00    -0.004 C 
ATOM      3  C   UNL     1     -36.252  23.924   3.219  0.00  0.00    +0.140 C 
ATOM      4  C   UNL     1     -36.187  24.926   4.377  0.00  0.00    +0.220 C 
ATOM      5  C   UNL     1     -36.120  22.745   5.239  0.00  0.00    +0.129 C 
ENDROOT
BRANCH   4   6
ATOM      6  N   UNL     1     -35.030  25.903   4.341  0.00  0.00    -0.247 N 
ATOM      7  N   UNL     1     -33.078  26.842   4.865  0.00  0.00    -0.242 NA
ATOM      8  N   UNL     1     -35.766  27.421   2.592  0.00  0.00    -0.228 NA
ATOM      9  N   UNL     1     -32.090  29.345   3.449  0.00  0.00    -0.289 N 
ATOM     10  N   UNL     1     -34.133  29.194   2.213  0.00  0.00    -0.228 NA
ATOM     11  C   UNL     1     -34.903  26.991   3.524  0.00  0.00    +0.152 C 
ATOM     12  C   UNL     1     -33.910  25.856   5.127  0.00  0.00    +0.223 C 
ATOM     13  C   UNL     1     -33.686  27.559   3.865  0.00  0.00    +0.140 C 
ATOM     14  C   UNL     1     -33.308  28.703   3.169  0.00  0.00    +0.149 C 
ATOM     15  C   UNL     1     -35.294  28.533   1.987  0.00  0.00    +0.253 C 
ATOM     16  C   UNL     1     -31.696  30.534   2.716  0.00  0.00    +0.114 C 
ATOM     17  C   UNL     1     -31.200  28.825   4.472  0.00  0.00    +0.114 C 
ENDBRANCH   4   6
BRANCH   2  18
ATOM     18  N   UNL     1     -35.955  21.466   3.103  0.00  0.00    +0.385 N 
ATOM     19  H   UNL     1     -36.894  21.177   3.378  0.00  0.00    -0.089 HD
ATOM     20  H   UNL     1     -35.290  20.730   3.340  0.00  0.00    -0.089 HD
ATOM     21  H   UNL     1     -35.932  21.634   2.098  0.00  0.00    -0.089 HD
ENDBRANCH   2  18
BRANCH   3  22
ATOM     22  O   UNL     1     -35.608  24.379   2.045  0.00  0.00    -0.382 OA
ATOM     23  H   UNL     1     -36.154  25.057   1.619  0.00  0.00    +0.210 HD
ENDBRANCH   3  22
BRANCH   5  24
ATOM     24  C   UNL     1     -35.280  21.972   6.240  0.00  0.00    +0.165 C 
BRANCH  24  25
ATOM     25  O   UNL     1     -35.284  20.600   5.879  0.00  0.00    -0.380 OA
ATOM     26  H   UNL     1     -35.510  20.063   6.655  0.00  0.00    +0.211 HD
ENDBRANCH  24  25
ENDBRANCH   5  24
TORSDOF 5
ENDMDL
MODEL 2
REMARK VINA RESULT:      -5.5      2.120      3.343
REMARK  Name = 51340725
REMARK  5 active torsions:
REMARK  status: ('A' for Active; 'I' for Inactive)
REMARK    1  A    between atoms: C_2  and  N_18
REMARK    2  A    between atoms: C_3  and  O_22
REMARK    3  A    between atoms: C_4  and  N_6
REMARK    4  A    between atoms: C_5  and  C_24
REMARK    5  A    between atoms: C_24  and  O_25
REMARK                            x       y       z     vdW  Elec       q    Type
REMARK                         _______ _______ _______ _____ _____    ______ ____
ROOT
ATOM      1  O   UNL     1     -34.830  24.020   3.547  0.00  0.00    -0.338 OA
ATOM      2  C   UNL     1     -36.967  25.003   3.760  0.00  0.00    -0.004 C 
ATOM      3  C   UNL     1     -36.183  25.316   5.021  0.00  0.00    +0.140 C 
ATOM      4  C   UNL     1     -34.741  24.994   4.613  0.00  0.00    +0.220 C 
ATOM      5  C   UNL     1     -36.219  23.774   3.258  0.00  0.00    +0.129 C 
ENDROOT
BRANCH   4   6
ATOM      6  N   UNL     1     -33.901  26.173   4.172  0.00  0.00    -0.247 N 
ATOM      7  N   UNL     1     -32.942  27.658   2.813  0.00  0.00    -0.242 NA
ATOM      8  N   UNL     1     -33.049  26.954   6.309  0.00  0.00    -0.228 NA
ATOM      9  N   UNL     1     -31.143  29.862   3.887  0.00  0.00    -0.289 N 
ATOM     10  N   UNL     1     -31.606  28.903   6.030  0.00  0.00    -0.228 NA
ATOM     11  C   UNL     1     -33.172  27.006   4.975  0.00  0.00    +0.152 C 
ATOM     12  C   UNL     1     -33.730  26.606   2.884  0.00  0.00    +0.223 C 
ATOM     13  C   UNL     1     -32.587  27.919   4.113  0.00  0.00    +0.140 C 
ATOM     14  C   UNL     1     -31.777  28.895   4.686  0.00  0.00    +0.149 C 
ATOM     15  C   UNL     1     -32.243  27.947   6.748  0.00  0.00    +0.253 C 
ATOM     16  C   UNL     1     -30.306  30.883   4.489  0.00  0.00    +0.114 C 
ATOM     17  C   UNL     1     -31.321  29.861   2.446  0.00  0.00    +0.114 C 
ENDBRANCH   4   6
BRANCH   2  18
ATOM     18  N   UNL     1     -38.380  24.765   4.015  0.00  0.00    +0.385 N 
ATOM     19  H   UNL     1     -38.622  23.817   3.727  0.00  0.00    -0.089 HD
ATOM     20  H   UNL     1     -38.938  25.435   3.484  0.00  0.00    -0.089 HD
ATOM     21  H   UNL     1     -38.570  24.877   5.010  0.00  0.00    -0.089 HD
ENDBRANCH   2  18
BRANCH   3  22
ATOM     22  O   UNL     1     -36.358  26.649   5.460  0.00  0.00    -0.382 OA
ATOM     23  H   UNL     1     -36.651  26.649   6.385  0.00  0.00    +0.210 HD
ENDBRANCH   3  22
BRANCH   5  24
ATOM     24  C   UNL     1     -36.396  23.499   1.776  0.00  0.00    +0.165 C 
BRANCH  24  25
ATOM     25  O   UNL     1     -37.089  24.588   1.187  0.00  0.00    -0.380 OA
ATOM     26  H   UNL     1     -38.035  24.380   1.137  0.00  0.00    +0.211 HD
ENDBRANCH  24  25
ENDBRANCH   5  24
TORSDOF 5
ENDMDL
MODEL 3
REMARK VINA RESULT:      -5.5      3.879      6.193
REMARK  Name = 51340725
REMARK  5 active torsions:
REMARK  status: ('A' for Active; 'I' for Inactive)
REMARK    1  A    between atoms: C_2  and  N_18
REMARK    2  A    between atoms: C_3  and  O_22
REMARK    3  A    between atoms: C_4  and  N_6
REMARK    4  A    between atoms: C_5  and  C_24
REMARK    5  A    between atoms: C_24  and  O_25
REMARK                            x       y       z     vdW  Elec       q    Type
REMARK                         _______ _______ _______ _____ _____    ______ ____
ROOT
ATOM      1  O   UNL     1     -35.275  22.743   2.096  0.00  0.00    -0.338 OA
ATOM      2  C   UNL     1     -35.741  21.874   4.242  0.00  0.00    -0.004 C 
ATOM      3  C   UNL     1     -35.454  23.356   4.393  0.00  0.00    +0.140 C 
ATOM      4  C   UNL     1     -35.565  23.871   2.953  0.00  0.00    +0.220 C 
ATOM      5  C   UNL     1     -35.045  21.583   2.917  0.00  0.00    +0.129 C 
ENDROOT
BRANCH   4   6
ATOM      6  N   UNL     1     -36.896  24.486   2.573  0.00  0.00    -0.247 N 
ATOM      7  N   UNL     1     -38.412  26.054   2.113  0.00  0.00    -0.242 NA
ATOM      8  N   UNL     1     -38.250  22.493   2.263  0.00  0.00    -0.228 NA
ATOM      9  N   UNL     1     -41.266  25.327   1.356  0.00  0.00    -0.289 N 
ATOM     10  N   UNL     1     -40.535  23.065   1.624  0.00  0.00    -0.228 NA
ATOM     11  C   UNL     1     -38.051  23.819   2.278  0.00  0.00    +0.152 C 
ATOM     12  C   UNL     1     -37.163  25.824   2.461  0.00  0.00    +0.223 C 
ATOM     13  C   UNL     1     -38.978  24.809   1.995  0.00  0.00    +0.140 C 
ATOM     14  C   UNL     1     -40.262  24.391   1.658  0.00  0.00    +0.149 C 
ATOM     15  C   UNL     1     -39.527  22.210   1.924  0.00  0.00    +0.253 C 
ATOM     16  C   UNL     1     -42.602  24.888   0.997  0.00  0.00    +0.114 C 
ATOM     17  C   UNL     1     -40.982  26.751   1.390  0.00  0.00    +0.114 C 
ENDBRANCH   4   6
BRANCH   2  18
ATOM     18  N   UNL     1     -35.237  21.082   5.354  0.00  0.00    +0.385 N 
ATOM     19  H   UNL     1     -34.254  20.860   5.195  0.00  0.00    -0.089 HD
ATOM     20  H   UNL     1     -35.773  20.217   5.426  0.00  0.00    -0.089 HD
ATOM     21  H   UNL     1     -35.330  21.613   6.220  0.00  0.00    -0.089 HD
ENDBRANCH   2  18
BRANCH   3  22
ATOM     22  O   UNL     1     -36.340  23.998   5.290  0.00  0.00    -0.382 OA
ATOM     23  H   UNL     1     -36.144  23.714   6.196  0.00  0.00    +0.210 HD
ENDBRANCH   3  22
BRANCH   5  24
ATOM     24  C   UNL     1     -35.552  20.340   2.207  0.00  0.00    +0.165 C 
BRANCH  24  25
ATOM     25  O   UNL     1     -36.748  19.909   2.836  0.00  0.00    -0.380 OA
ATOM     26  H   UNL     1     -37.438  20.579   2.710  0.00  0.00    +0.211 HD
ENDBRANCH  24  25
ENDBRANCH   5  24
TORSDOF 5
ENDMDL
MODEL 4
REMARK VINA RESULT:      -5.3      2.092      2.795
REMARK  Name = 51340725
REMARK  5 active torsions:
REMARK  status: ('A' for Active; 'I' for Inactive)
REMARK    1  A    between atoms: C_2  and  N_18
REMARK    2  A    between atoms: C_3  and  O_22
REMARK    3  A    between atoms: C_4  and  N_6
REMARK    4  A    between atoms: C_5  and  C_24
REMARK    5  A    between atoms: C_24  and  O_25
REMARK                            x       y       z     vdW  Elec       q    Type
REMARK                         _______ _______ _______ _____ _____    ______ ____
ROOT
ATOM      1  O   UNL     1     -34.548  24.837   5.699  0.00  0.00    -0.338 OA
ATOM      2  C   UNL     1     -36.437  24.875   4.283  0.00  0.00    -0.004 C 
ATOM      3  C   UNL     1     -36.072  26.311   4.609  0.00  0.00    +0.140 C 
ATOM      4  C   UNL     1     -34.652  26.180   5.173  0.00  0.00    +0.220 C 
ATOM      5  C   UNL     1     -35.785  24.143   5.450  0.00  0.00    +0.129 C 
ENDROOT
BRANCH   4   6
ATOM      6  N   UNL     1     -33.528  26.445   4.194  0.00  0.00    -0.247 N 
ATOM      7  N   UNL     1     -32.103  26.104   2.514  0.00  0.00    -0.242 NA
ATOM      8  N   UNL     1     -32.815  28.658   4.902  0.00  0.00    -0.228 NA
ATOM      9  N   UNL     1     -30.029  28.190   1.745  0.00  0.00    -0.289 N 
ATOM     10  N   UNL     1     -30.964  29.472   3.536  0.00  0.00    -0.228 NA
ATOM     11  C   UNL     1     -32.749  27.566   4.125  0.00  0.00    +0.152 C 
ATOM     12  C   UNL     1     -33.101  25.597   3.207  0.00  0.00    +0.223 C 
ATOM     13  C   UNL     1     -31.873  27.334   3.078  0.00  0.00    +0.140 C 
ATOM     14  C   UNL     1     -30.955  28.340   2.791  0.00  0.00    +0.149 C 
ATOM     15  C   UNL     1     -31.880  29.559   4.531  0.00  0.00    +0.253 C 
ATOM     16  C   UNL     1     -29.077  29.245   1.444  0.00  0.00    +0.114 C 
ATOM     17  C   UNL     1     -30.012  26.981   0.941  0.00  0.00    +0.114 C 
ENDBRANCH   4   6
BRANCH   2  18
ATOM     18  N   UNL     1     -37.874  24.663   4.189  0.00  0.00    +0.385 N 
ATOM     19  H   UNL     1     -38.262  24.545   5.126  0.00  0.00    -0.089 HD
ATOM     20  H   UNL     1     -38.059  23.825   3.637  0.00  0.00    -0.089 HD
ATOM     21  H   UNL     1     -38.309  25.468   3.741  0.00  0.00    -0.089 HD
ENDBRANCH   2  18
BRANCH   3  22
ATOM     22  O   UNL     1     -36.155  27.168   3.487  0.00  0.00    -0.382 OA
ATOM     23  H   UNL     1     -35.421  26.979   2.882  0.00  0.00    +0.210 HD
ENDBRANCH   3  22
BRANCH   5  24
ATOM     24  C   UNL     1     -35.507  22.674   5.186  0.00  0.00    +0.165 C 
BRANCH  24  25
ATOM     25  O   UNL     1     -36.075  21.905   6.234  0.00  0.00    -0.380 OA
ATOM     26  H   UNL     1     -35.436  21.826   6.960  0.00  0.00    +0.211 HD
ENDBRANCH  24  25
ENDBRANCH   5  24
TORSDOF 5
ENDMDL
MODEL 5
REMARK VINA RESULT:      -5.2      1.743      3.051
REMARK  Name = 51340725
REMARK  5 active torsions:
REMARK  status: ('A' for Active; 'I' for Inactive)
REMARK    1  A    between atoms: C_2  and  N_18
REMARK    2  A    between atoms: C_3  and  O_22
REMARK    3  A    between atoms: C_4  and  N_6
REMARK    4  A    between atoms: C_5  and  C_24
REMARK    5  A    between atoms: C_24  and  O_25
REMARK                            x       y       z     vdW  Elec       q    Type
REMARK                         _______ _______ _______ _____ _____    ______ ____
ROOT
ATOM      1  O   UNL     1     -34.809  23.591   2.577  0.00  0.00    -0.338 OA
ATOM      2  C   UNL     1     -35.815  23.364   4.701  0.00  0.00    -0.004 C 
ATOM      3  C   UNL     1     -34.493  24.085   4.888  0.00  0.00    +0.140 C 
ATOM      4  C   UNL     1     -34.140  24.520   3.460  0.00  0.00    +0.220 C 
ATOM      5  C   UNL     1     -35.572  22.662   3.370  0.00  0.00    +0.129 C 
ENDROOT
BRANCH   4   6
ATOM      6  N   UNL     1     -34.507  25.942   3.094  0.00  0.00    -0.247 N 
ATOM      7  N   UNL     1     -35.671  27.642   2.243  0.00  0.00    -0.242 NA
ATOM      8  N   UNL     1     -32.626  27.158   4.038  0.00  0.00    -0.228 NA
ATOM      9  N   UNL     1     -34.699  30.512   2.486  0.00  0.00    -0.289 N 
ATOM     10  N   UNL     1     -32.840  29.558   3.653  0.00  0.00    -0.228 NA
ATOM     11  C   UNL     1     -33.792  27.072   3.380  0.00  0.00    +0.152 C 
ATOM     12  C   UNL     1     -35.626  26.337   2.411  0.00  0.00    +0.223 C 
ATOM     13  C   UNL     1     -34.531  28.113   2.844  0.00  0.00    +0.140 C 
ATOM     14  C   UNL     1     -34.015  29.396   2.999  0.00  0.00    +0.149 C 
ATOM     15  C   UNL     1     -32.228  28.446   4.125  0.00  0.00    +0.253 C 
ATOM     16  C   UNL     1     -34.162  31.850   2.656  0.00  0.00    +0.114 C 
ATOM     17  C   UNL     1     -35.959  30.348   1.784  0.00  0.00    +0.114 C 
ENDBRANCH   4   6
BRANCH   2  18
ATOM     18  N   UNL     1     -36.125  22.455   5.794  0.00  0.00    +0.385 N 
ATOM     19  H   UNL     1     -35.260  22.171   6.255  0.00  0.00    -0.089 HD
ATOM     20  H   UNL     1     -36.601  21.631   5.427  0.00  0.00    -0.089 HD
ATOM     21  H   UNL     1     -36.729  22.925   6.468  0.00  0.00    -0.089 HD
ENDBRANCH   2  18
BRANCH   3  22
ATOM     22  O   UNL     1     -34.579  25.163   5.799  0.00  0.00    -0.382 OA
ATOM     23  H   UNL     1     -35.483  25.223   6.144  0.00  0.00    +0.210 HD
ENDBRANCH   3  22
BRANCH   5  24
ATOM     24  C   UNL     1     -36.839  22.272   2.631  0.00  0.00    +0.165 C 
BRANCH  24  25
ATOM     25  O   UNL     1     -37.955  22.822   3.312  0.00  0.00    -0.380 OA
ATOM     26  H   UNL     1     -38.310  23.567   2.802  0.00  0.00    +0.211 HD
ENDBRANCH  24  25
ENDBRANCH   5  24
TORSDOF 5
ENDMDL
MODEL 6
REMARK VINA RESULT:      -5.2      2.281      3.186
REMARK  Name = 51340725
REMARK  5 active torsions:
REMARK  status: ('A' for Active; 'I' for Inactive)
REMARK    1  A    between atoms: C_2  and  N_18
REMARK    2  A    between atoms: C_3  and  O_22
REMARK    3  A    between atoms: C_4  and  N_6
REMARK    4  A    between atoms: C_5  and  C_24
REMARK    5  A    between atoms: C_24  and  O_25
REMARK                            x       y       z     vdW  Elec       q    Type
REMARK                         _______ _______ _______ _____ _____    ______ ____
ROOT
ATOM      1  O   UNL     1     -35.121  21.501   3.297  0.00  0.00    -0.338 OA
ATOM      2  C   UNL     1     -37.261  21.905   2.382  0.00  0.00    -0.004 C 
ATOM      3  C   UNL     1     -37.122  22.753   3.633  0.00  0.00    +0.140 C 
ATOM      4  C   UNL     1     -35.613  22.721   3.898  0.00  0.00    +0.220 C 
ATOM      5  C   UNL     1     -36.218  20.827   2.652  0.00  0.00    +0.129 C 
ENDROOT
BRANCH   4   6
ATOM      6  N   UNL     1     -34.827  23.909   3.384  0.00  0.00    -0.247 N 
ATOM      7  N   UNL     1     -33.793  25.257   1.941  0.00  0.00    -0.242 NA
ATOM      8  N   UNL     1     -34.450  25.137   5.446  0.00  0.00    -0.228 NA
ATOM      9  N   UNL     1     -32.439  27.821   2.856  0.00  0.00    -0.289 N 
ATOM     10  N   UNL     1     -33.179  27.181   5.039  0.00  0.00    -0.228 NA
ATOM     11  C   UNL     1     -34.339  24.950   4.122  0.00  0.00    +0.152 C 
ATOM     12  C   UNL     1     -34.474  24.139   2.081  0.00  0.00    +0.223 C 
ATOM     13  C   UNL     1     -33.702  25.774   3.209  0.00  0.00    +0.140 C 
ATOM     14  C   UNL     1     -33.107  26.928   3.710  0.00  0.00    +0.149 C 
ATOM     15  C   UNL     1     -33.836  26.284   5.813  0.00  0.00    +0.253 C 
ATOM     16  C   UNL     1     -31.826  29.028   3.381  0.00  0.00    +0.114 C 
ATOM     17  C   UNL     1     -32.357  27.557   1.430  0.00  0.00    +0.114 C 
ENDBRANCH   4   6
BRANCH   2  18
ATOM     18  N   UNL     1     -38.607  21.384   2.196  0.00  0.00    +0.385 N 
ATOM     19  H   UNL     1     -38.555  20.416   1.876  0.00  0.00    -0.089 HD
ATOM     20  H   UNL     1     -39.096  21.947   1.500  0.00  0.00    -0.089 HD
ATOM     21  H   UNL     1     -39.112  21.422   3.081  0.00  0.00    -0.089 HD
ENDBRANCH   2  18
BRANCH   3  22
ATOM     22  O   UNL     1     -37.637  24.060   3.471  0.00  0.00    -0.382 OA
ATOM     23  H   UNL     1     -38.270  24.248   4.181  0.00  0.00    +0.210 HD
ENDBRANCH   3  22
BRANCH   5  24
ATOM     24  C   UNL     1     -35.724  20.112   1.407  0.00  0.00    +0.165 C 
BRANCH  24  25
ATOM     25  O   UNL     1     -36.587  19.021   1.132  0.00  0.00    -0.380 OA
ATOM     26  H   UNL     1     -37.448  19.177   1.551  0.00  0.00    +0.211 HD
ENDBRANCH  24  25
ENDBRANCH   5  24
TORSDOF 5
ENDMDL
MODEL 7
REMARK VINA RESULT:      -5.1      1.835      2.542
REMARK  Name = 51340725
REMARK  5 active torsions:
REMARK  status: ('A' for Active; 'I' for Inactive)
REMARK    1  A    between atoms: C_2  and  N_18
REMARK    2  A    between atoms: C_3  and  O_22
REMARK    3  A    between atoms: C_4  and  N_6
REMARK    4  A    between atoms: C_5  and  C_24
REMARK    5  A    between atoms: C_24  and  O_25
REMARK                            x       y       z     vdW  Elec       q    Type
REMARK                         _______ _______ _______ _____ _____    ______ ____
ROOT
ATOM      1  O   UNL     1     -34.482  23.941   4.413  0.00  0.00    -0.338 OA
ATOM      2  C   UNL     1     -36.621  24.857   4.010  0.00  0.00    -0.004 C 
ATOM      3  C   UNL     1     -36.240  25.180   5.443  0.00  0.00    +0.140 C 
ATOM      4  C   UNL     1     -34.731  24.905   5.462  0.00  0.00    +0.220 C 
ATOM      5  C   UNL     1     -35.722  23.657   3.739  0.00  0.00    +0.129 C 
ENDROOT
BRANCH   4   6
ATOM      6  N   UNL     1     -33.838  26.114   5.283  0.00  0.00    -0.247 N 
ATOM      7  N   UNL     1     -32.451  27.778   5.809  0.00  0.00    -0.242 NA
ATOM      8  N   UNL     1     -34.041  26.483   2.889  0.00  0.00    -0.228 NA
ATOM      9  N   UNL     1     -31.402  29.698   3.698  0.00  0.00    -0.289 N 
ATOM     10  N   UNL     1     -32.713  28.400   2.173  0.00  0.00    -0.228 NA
ATOM     11  C   UNL     1     -33.572  26.769   4.113  0.00  0.00    +0.152 C 
ATOM     12  C   UNL     1     -33.142  26.757   6.271  0.00  0.00    +0.223 C 
ATOM     13  C   UNL     1     -32.710  27.796   4.462  0.00  0.00    +0.140 C 
ATOM     14  C   UNL     1     -32.278  28.630   3.435  0.00  0.00    +0.149 C 
ATOM     15  C   UNL     1     -33.555  27.357   1.981  0.00  0.00    +0.253 C 
ATOM     16  C   UNL     1     -30.947  30.561   2.623  0.00  0.00    +0.114 C 
ATOM     17  C   UNL     1     -30.931  29.952   5.048  0.00  0.00    +0.114 C 
ENDBRANCH   4   6
BRANCH   2  18
ATOM     18  N   UNL     1     -38.039  24.575   3.851  0.00  0.00    +0.385 N 
ATOM     19  H   UNL     1     -38.508  24.669   4.752  0.00  0.00    -0.089 HD
ATOM     20  H   UNL     1     -38.160  23.623   3.503  0.00  0.00    -0.089 HD
ATOM     21  H   UNL     1     -38.445  25.233   3.186  0.00  0.00    -0.089 HD
ENDBRANCH   2  18
BRANCH   3  22
ATOM     22  O   UNL     1     -36.575  26.501   5.817  0.00  0.00    -0.382 OA
ATOM     23  H   UNL     1     -35.773  27.047   5.831  0.00  0.00    +0.210 HD
ENDBRANCH   3  22
BRANCH   5  24
ATOM     24  C   UNL     1     -35.461  23.394   2.267  0.00  0.00    +0.165 C 
BRANCH  24  25
ATOM     25  O   UNL     1     -35.844  24.538   1.522  0.00  0.00    -0.380 OA
ATOM     26  H   UNL     1     -36.346  25.141   2.093  0.00  0.00    +0.211 HD
ENDBRANCH  24  25
ENDBRANCH   5  24
TORSDOF 5
ENDMDL
MODEL 8
REMARK VINA RESULT:      -5.1      1.107      2.166
REMARK  Name = 51340725
REMARK  5 active torsions:
REMARK  status: ('A' for Active; 'I' for Inactive)
REMARK    1  A    between atoms: C_2  and  N_18
REMARK    2  A    between atoms: C_3  and  O_22
REMARK    3  A    between atoms: C_4  and  N_6
REMARK    4  A    between atoms: C_5  and  C_24
REMARK    5  A    between atoms: C_24  and  O_25
REMARK                            x       y       z     vdW  Elec       q    Type
REMARK                         _______ _______ _______ _____ _____    ______ ____
ROOT
ATOM      1  O   UNL     1     -36.426  24.051   4.697  0.00  0.00    -0.338 OA
ATOM      2  C   UNL     1     -35.405  22.398   3.355  0.00  0.00    -0.004 C 
ATOM      3  C   UNL     1     -36.093  23.386   2.432  0.00  0.00    +0.140 C 
ATOM      4  C   UNL     1     -36.358  24.582   3.354  0.00  0.00    +0.220 C 
ATOM      5  C   UNL     1     -36.174  22.634   4.650  0.00  0.00    +0.129 C 
ENDROOT
BRANCH   4   6
ATOM      6  N   UNL     1     -35.344  25.704   3.288  0.00  0.00    -0.247 N 
ATOM      7  N   UNL     1     -34.130  27.370   2.438  0.00  0.00    -0.242 NA
ATOM      8  N   UNL     1     -34.484  25.680   5.560  0.00  0.00    -0.228 NA
ATOM      9  N   UNL     1     -32.090  28.867   4.123  0.00  0.00    -0.289 N 
ATOM     10  N   UNL     1     -32.773  27.392   5.878  0.00  0.00    -0.228 NA
ATOM     11  C   UNL     1     -34.542  26.144   4.303  0.00  0.00    +0.152 C 
ATOM     12  C   UNL     1     -35.059  26.471   2.189  0.00  0.00    +0.223 C 
ATOM     13  C   UNL     1     -33.798  27.177   3.755  0.00  0.00    +0.140 C 
ATOM     14  C   UNL     1     -32.886  27.809   4.595  0.00  0.00    +0.149 C 
ATOM     15  C   UNL     1     -33.567  26.368   6.276  0.00  0.00    +0.253 C 
ATOM     16  C   UNL     1     -31.145  29.529   5.003  0.00  0.00    +0.114 C 
ATOM     17  C   UNL     1     -32.204  29.321   2.748  0.00  0.00    +0.114 C 
ENDBRANCH   4   6
BRANCH   2  18
ATOM     18  N   UNL     1     -35.478  21.027   2.873  0.00  0.00    +0.385 N 
ATOM     19  H   UNL     1     -36.421  20.665   3.019  0.00  0.00    -0.089 HD
ATOM     20  H   UNL     1     -34.810  20.450   3.385  0.00  0.00    -0.089 HD
ATOM     21  H   UNL     1     -35.255  21.003   1.878  0.00  0.00    -0.089 HD
ENDBRANCH   2  18
BRANCH   3  22
ATOM     22  O   UNL     1     -35.314  23.712   1.298  0.00  0.00    -0.382 OA
ATOM     23  H   UNL     1     -35.739  24.436   0.811  0.00  0.00    +0.210 HD
ENDBRANCH   3  22
BRANCH   5  24
ATOM     24  C   UNL     1     -35.434  22.199   5.902  0.00  0.00    +0.165 C 
BRANCH  24  25
ATOM     25  O   UNL     1     -35.262  20.792   5.867  0.00  0.00    -0.380 OA
ATOM     26  H   UNL     1     -34.375  20.567   6.191  0.00  0.00    +0.211 HD
ENDBRANCH  24  25
ENDBRANCH   5  24
TORSDOF 5
ENDMDL
MODEL 9
REMARK VINA RESULT:      -5.0      2.753      6.182
REMARK  Name = 51340725
REMARK  5 active torsions:
REMARK  status: ('A' for Active; 'I' for Inactive)
REMARK    1  A    between atoms: C_2  and  N_18
REMARK    2  A    between atoms: C_3  and  O_22
REMARK    3  A    between atoms: C_4  and  N_6
REMARK    4  A    between atoms: C_5  and  C_24
REMARK    5  A    between atoms: C_24  and  O_25
REMARK                            x       y       z     vdW  Elec       q    Type
REMARK                         _______ _______ _______ _____ _____    ______ ____
ROOT
ATOM      1  O   UNL     1     -33.164  27.922   1.880  0.00  0.00    -0.338 OA
ATOM      2  C   UNL     1     -34.821  29.221   2.951  0.00  0.00    -0.004 C 
ATOM      3  C   UNL     1     -35.483  28.472   1.809  0.00  0.00    +0.140 C 
ATOM      4  C   UNL     1     -34.445  27.399   1.461  0.00  0.00    +0.220 C 
ATOM      5  C   UNL     1     -33.367  29.209   2.495  0.00  0.00    +0.129 C 
ENDROOT
BRANCH   4   6
ATOM      6  N   UNL     1     -34.676  26.034   2.076  0.00  0.00    -0.247 N 
ATOM      7  N   UNL     1     -35.026  23.836   2.200  0.00  0.00    -0.242 NA
ATOM      8  N   UNL     1     -34.646  26.585   4.442  0.00  0.00    -0.228 NA
ATOM      9  N   UNL     1     -35.314  22.424   4.877  0.00  0.00    -0.289 N 
ATOM     10  N   UNL     1     -34.994  24.600   5.819  0.00  0.00    -0.228 NA
ATOM     11  C   UNL     1     -34.755  25.738   3.408  0.00  0.00    +0.152 C 
ATOM     12  C   UNL     1     -34.845  24.860   1.392  0.00  0.00    +0.223 C 
ATOM     13  C   UNL     1     -34.972  24.371   3.462  0.00  0.00    +0.140 C 
ATOM     14  C   UNL     1     -35.092  23.804   4.727  0.00  0.00    +0.149 C 
ATOM     15  C   UNL     1     -34.780  25.922   5.612  0.00  0.00    +0.253 C 
ATOM     16  C   UNL     1     -35.431  21.834   6.198  0.00  0.00    +0.114 C 
ATOM     17  C   UNL     1     -35.421  21.562   3.713  0.00  0.00    +0.114 C 
ENDBRANCH   4   6
BRANCH   2  18
ATOM     18  N   UNL     1     -35.363  30.557   3.143  0.00  0.00    +0.385 N 
ATOM     19  H   UNL     1     -35.212  30.849   4.109  0.00  0.00    -0.089 HD
ATOM     20  H   UNL     1     -36.364  30.550   2.943  0.00  0.00    -0.089 HD
ATOM     21  H   UNL     1     -34.895  31.209   2.514  0.00  0.00    -0.089 HD
ENDBRANCH   2  18
BRANCH   3  22
ATOM     22  O   UNL     1     -36.746  27.941   2.159  0.00  0.00    -0.382 OA
ATOM     23  H   UNL     1     -37.339  28.663   2.419  0.00  0.00    +0.210 HD
ENDBRANCH   3  22
BRANCH   5  24
ATOM     24  C   UNL     1     -32.361  29.410   3.614  0.00  0.00    +0.165 C 
BRANCH  24  25
ATOM     25  O   UNL     1     -32.974  29.071   4.847  0.00  0.00    -0.380 OA
ATOM     26  H   UNL     1     -33.918  28.899   4.703  0.00  0.00    +0.211 HD
ENDBRANCH  24  25
ENDBRANCH   5  24
TORSDOF 5
ENDMDL
