MODEL 1
REMARK VINA RESULT:      -6.9      0.000      0.000
REMARK  Name = 53387666
REMARK  8 active torsions:
REMARK  status: ('A' for Active; 'I' for Inactive)
REMARK    1  A    between atoms: C_1  and  C_2
REMARK    2  A    between atoms: C_1  and  C_18
REMARK    3  A    between atoms: C_2  and  C_3
REMARK    4  A    between atoms: C_6  and  O_9
REMARK    5  A    between atoms: O_9  and  S_10
REMARK    6  A    between atoms: C_18  and  C_19
REMARK    7  A    between atoms: C_19  and  C_20
REMARK    8  A    between atoms: C_23  and  O_26
REMARK                            x       y       z     vdW  Elec       q    Type
REMARK                         _______ _______ _______ _____ _____    ______ ____
ROOT
ATOM      1  C   UNL     1     -36.378  20.480   1.258  0.00  0.00    +0.042 C 
ATOM      2  O   UNL     1     -35.661  19.007  -1.133  0.00  0.00    -0.265 OA
ATOM      3  N   UNL     1     -37.156  19.576   0.578  0.00  0.00    -0.279 N 
ATOM      4  C   UNL     1     -36.737  18.919  -0.554  0.00  0.00    +0.303 C 
ATOM      5  H   UNL     1     -38.060  19.388   0.918  0.00  0.00    +0.155 HD
ENDROOT
BRANCH   1   6
ATOM      6  C   UNL     1     -35.421  21.218   0.441  0.00  0.00    +0.042 C 
ATOM      7  O   UNL     1     -38.093  22.313   0.198  0.00  0.00    -0.265 OA
ATOM      8  N   UNL     1     -35.953  21.869  -0.644  0.00  0.00    -0.279 N 
ATOM      9  C   UNL     1     -37.236  22.359  -0.676  0.00  0.00    +0.303 C 
ATOM     10  H   UNL     1     -35.387  21.991  -1.439  0.00  0.00    +0.155 HD
BRANCH   6  11
ATOM     11  C   UNL     1     -34.094  21.306   0.668  0.00  0.00    +0.068 C 
BRANCH  11  12
ATOM     12  C   UNL     1     -33.126  20.199   0.713  0.00  0.00    -0.016 C 
ATOM     13  C   UNL     1     -33.419  19.046   1.440  0.00  0.00    -0.001 C 
ATOM     14  C   UNL     1     -31.915  20.304   0.029  0.00  0.00    -0.001 C 
ATOM     15  C   UNL     1     -31.289  18.102   0.802  0.00  0.00    +0.139 C 
ATOM     16  C   UNL     1     -32.500  17.997   1.485  0.00  0.00    +0.037 C 
ATOM     17  C   UNL     1     -30.996  19.256   0.073  0.00  0.00    +0.037 C 
BRANCH  15  18
ATOM     18  O   UNL     1     -30.392  17.079   0.845  0.00  0.00    -0.471 OA
ATOM     19  C   UNL     1     -29.026  17.422   1.078  0.00  0.00    +0.252 C 
ENDBRANCH  15  18
ENDBRANCH  11  12
ENDBRANCH   6  11
ENDBRANCH   1   6
BRANCH   1  20
ATOM     20  C   UNL     1     -36.548  20.615   2.589  0.00  0.00    +0.068 C 
BRANCH  20  21
ATOM     21  C   UNL     1     -36.256  21.803   3.404  0.00  0.00    -0.016 C 
ATOM     22  C   UNL     1     -35.348  21.720   4.460  0.00  0.00    -0.001 C 
ATOM     23  C   UNL     1     -36.890  23.015   3.124  0.00  0.00    -0.001 C 
ATOM     24  C   UNL     1     -35.705  24.056   4.955  0.00  0.00    +0.176 C 
ATOM     25  C   UNL     1     -35.072  22.846   5.235  0.00  0.00    +0.040 C 
ATOM     26  C   UNL     1     -36.613  24.142   3.899  0.00  0.00    +0.040 C 
BRANCH  24  27
ATOM     27  O   UNL     1     -35.437  25.155   5.712  0.00  0.00    -0.322 OA
BRANCH  27  28
ATOM     28  S   UNL     1     -34.304  26.227   5.188  0.00  0.00    +0.282 S 
ATOM     29  O   UNL     1     -33.272  25.311   4.317  0.00  0.00    -0.012 OA
ATOM     30  O   UNL     1     -34.933  27.174   4.284  0.00  0.00    -0.105 OA
ATOM     31  O   UNL     1     -33.581  26.708   6.351  0.00  0.00    -0.105 OA
ENDBRANCH  27  28
ENDBRANCH  24  27
ENDBRANCH  20  21
ENDBRANCH   1  20
TORSDOF 8
ENDMDL
MODEL 2
REMARK VINA RESULT:      -6.7      5.137      7.593
REMARK  Name = 53387666
REMARK  8 active torsions:
REMARK  status: ('A' for Active; 'I' for Inactive)
REMARK    1  A    between atoms: C_1  and  C_2
REMARK    2  A    between atoms: C_1  and  C_18
REMARK    3  A    between atoms: C_2  and  C_3
REMARK    4  A    between atoms: C_6  and  O_9
REMARK    5  A    between atoms: O_9  and  S_10
REMARK    6  A    between atoms: C_18  and  C_19
REMARK    7  A    between atoms: C_19  and  C_20
REMARK    8  A    between atoms: C_23  and  O_26
REMARK                            x       y       z     vdW  Elec       q    Type
REMARK                         _______ _______ _______ _____ _____    ______ ____
ROOT
ATOM      1  C   UNL     1     -35.175  27.970   1.864  0.00  0.00    +0.042 C 
ATOM      2  O   UNL     1     -32.348  27.639   1.316  0.00  0.00    -0.265 OA
ATOM      3  N   UNL     1     -34.550  28.073   0.646  0.00  0.00    -0.279 N 
ATOM      4  C   UNL     1     -33.197  27.901   0.473  0.00  0.00    +0.303 C 
ATOM      5  H   UNL     1     -35.098  28.282  -0.145  0.00  0.00    +0.155 HD
ENDROOT
BRANCH   1   6
ATOM      6  C   UNL     1     -34.360  28.337   3.016  0.00  0.00    +0.042 C 
ATOM      7  O   UNL     1     -36.085  30.517   2.197  0.00  0.00    -0.265 OA
ATOM      8  N   UNL     1     -34.123  29.681   3.164  0.00  0.00    -0.279 N 
ATOM      9  C   UNL     1     -34.998  30.653   2.745  0.00  0.00    +0.303 C 
ATOM     10  H   UNL     1     -33.282  29.962   3.592  0.00  0.00    +0.155 HD
BRANCH   6  11
ATOM     11  C   UNL     1     -33.840  27.480   3.918  0.00  0.00    +0.068 C 
BRANCH  11  12
ATOM     12  C   UNL     1     -34.443  26.230   4.407  0.00  0.00    -0.016 C 
ATOM     13  C   UNL     1     -33.985  25.002   3.931  0.00  0.00    -0.001 C 
ATOM     14  C   UNL     1     -35.473  26.274   5.346  0.00  0.00    -0.001 C 
ATOM     15  C   UNL     1     -35.588  23.861   5.331  0.00  0.00    +0.139 C 
ATOM     16  C   UNL     1     -34.558  23.817   4.393  0.00  0.00    +0.037 C 
ATOM     17  C   UNL     1     -36.047  25.089   5.808  0.00  0.00    +0.037 C 
BRANCH  15  18
ATOM     18  O   UNL     1     -36.148  22.705   5.782  0.00  0.00    -0.471 OA
ATOM     19  C   UNL     1     -35.263  21.620   6.059  0.00  0.00    +0.252 C 
ENDBRANCH  15  18
ENDBRANCH  11  12
ENDBRANCH   6  11
ENDBRANCH   1   6
BRANCH   1  20
ATOM     20  C   UNL     1     -36.455  27.549   1.906  0.00  0.00    +0.068 C 
BRANCH  20  21
ATOM     21  C   UNL     1     -36.931  26.166   2.048  0.00  0.00    -0.016 C 
ATOM     22  C   UNL     1     -36.307  25.137   1.342  0.00  0.00    -0.001 C 
ATOM     23  C   UNL     1     -38.009  25.881   2.887  0.00  0.00    -0.001 C 
ATOM     24  C   UNL     1     -37.836  23.540   2.313  0.00  0.00    +0.176 C 
ATOM     25  C   UNL     1     -36.759  23.824   1.475  0.00  0.00    +0.040 C 
ATOM     26  C   UNL     1     -38.461  24.568   3.020  0.00  0.00    +0.040 C 
BRANCH  24  27
ATOM     27  O   UNL     1     -38.278  22.259   2.442  0.00  0.00    -0.322 OA
BRANCH  27  28
ATOM     28  S   UNL     1     -39.456  21.716   1.430  0.00  0.00    +0.282 S 
ATOM     29  O   UNL     1     -38.694  20.613   0.499  0.00  0.00    -0.012 OA
ATOM     30  O   UNL     1     -40.465  21.022   2.210  0.00  0.00    -0.105 OA
ATOM     31  O   UNL     1     -39.840  22.819   0.569  0.00  0.00    -0.105 OA
ENDBRANCH  27  28
ENDBRANCH  24  27
ENDBRANCH  20  21
ENDBRANCH   1  20
TORSDOF 8
ENDMDL
MODEL 3
REMARK VINA RESULT:      -6.7      2.994      5.811
REMARK  Name = 53387666
REMARK  8 active torsions:
REMARK  status: ('A' for Active; 'I' for Inactive)
REMARK    1  A    between atoms: C_1  and  C_2
REMARK    2  A    between atoms: C_1  and  C_18
REMARK    3  A    between atoms: C_2  and  C_3
REMARK    4  A    between atoms: C_6  and  O_9
REMARK    5  A    between atoms: O_9  and  S_10
REMARK    6  A    between atoms: C_18  and  C_19
REMARK    7  A    between atoms: C_19  and  C_20
REMARK    8  A    between atoms: C_23  and  O_26
REMARK                            x       y       z     vdW  Elec       q    Type
REMARK                         _______ _______ _______ _____ _____    ______ ____
ROOT
ATOM      1  C   UNL     1     -36.856  22.222   2.584  0.00  0.00    +0.042 C 
ATOM      2  O   UNL     1     -35.168  20.635   0.843  0.00  0.00    -0.265 OA
ATOM      3  N   UNL     1     -36.489  20.911   2.757  0.00  0.00    -0.279 N 
ATOM      4  C   UNL     1     -35.682  20.230   1.878  0.00  0.00    +0.303 C 
ATOM      5  H   UNL     1     -36.822  20.433   3.550  0.00  0.00    +0.155 HD
ENDROOT
BRANCH   1   6
ATOM      6  C   UNL     1     -36.949  22.667   1.198  0.00  0.00    +0.042 C 
ATOM      7  O   UNL     1     -39.431  21.472   2.100  0.00  0.00    -0.265 OA
ATOM      8  N   UNL     1     -37.878  22.008   0.431  0.00  0.00    -0.279 N 
ATOM      9  C   UNL     1     -39.033  21.469   0.941  0.00  0.00    +0.303 C 
ATOM     10  H   UNL     1     -37.707  21.918  -0.534  0.00  0.00    +0.155 HD
BRANCH   6  11
ATOM     11  C   UNL     1     -36.214  23.646   0.633  0.00  0.00    +0.068 C 
BRANCH  11  12
ATOM     12  C   UNL     1     -36.339  25.094   0.859  0.00  0.00    -0.016 C 
ATOM     13  C   UNL     1     -35.196  25.873   1.034  0.00  0.00    -0.001 C 
ATOM     14  C   UNL     1     -37.600  25.687   0.901  0.00  0.00    -0.001 C 
ATOM     15  C   UNL     1     -36.575  27.839   1.292  0.00  0.00    +0.139 C 
ATOM     16  C   UNL     1     -35.313  27.247   1.250  0.00  0.00    +0.037 C 
ATOM     17  C   UNL     1     -37.719  27.060   1.117  0.00  0.00    +0.037 C 
BRANCH  15  18
ATOM     18  O   UNL     1     -36.691  29.179   1.503  0.00  0.00    -0.471 OA
ATOM     19  C   UNL     1     -35.564  29.847   2.071  0.00  0.00    +0.252 C 
ENDBRANCH  15  18
ENDBRANCH  11  12
ENDBRANCH   6  11
ENDBRANCH   1   6
BRANCH   1  20
ATOM     20  C   UNL     1     -37.095  22.982   3.672  0.00  0.00    +0.068 C 
BRANCH  20  21
ATOM     21  C   UNL     1     -36.201  23.985   4.269  0.00  0.00    -0.016 C 
ATOM     22  C   UNL     1     -34.908  23.628   4.650  0.00  0.00    -0.001 C 
ATOM     23  C   UNL     1     -36.647  25.294   4.457  0.00  0.00    -0.001 C 
ATOM     24  C   UNL     1     -34.505  25.887   5.405  0.00  0.00    +0.176 C 
ATOM     25  C   UNL     1     -34.059  24.579   5.217  0.00  0.00    +0.040 C 
ATOM     26  C   UNL     1     -35.799  26.245   5.024  0.00  0.00    +0.040 C 
BRANCH  24  27
ATOM     27  O   UNL     1     -33.678  26.815   5.960  0.00  0.00    -0.322 OA
BRANCH  27  28
ATOM     28  S   UNL     1     -32.644  27.644   4.987  0.00  0.00    +0.282 S 
ATOM     29  O   UNL     1     -32.421  26.648   3.713  0.00  0.00    -0.012 OA
ATOM     30  O   UNL     1     -33.309  28.843   4.505  0.00  0.00    -0.105 OA
ATOM     31  O   UNL     1     -31.375  27.751   5.682  0.00  0.00    -0.105 OA
ENDBRANCH  27  28
ENDBRANCH  24  27
ENDBRANCH  20  21
ENDBRANCH   1  20
TORSDOF 8
ENDMDL
MODEL 4
REMARK VINA RESULT:      -6.6      2.143      3.464
REMARK  Name = 53387666
REMARK  8 active torsions:
REMARK  status: ('A' for Active; 'I' for Inactive)
REMARK    1  A    between atoms: C_1  and  C_2
REMARK    2  A    between atoms: C_1  and  C_18
REMARK    3  A    between atoms: C_2  and  C_3
REMARK    4  A    between atoms: C_6  and  O_9
REMARK    5  A    between atoms: O_9  and  S_10
REMARK    6  A    between atoms: C_18  and  C_19
REMARK    7  A    between atoms: C_19  and  C_20
REMARK    8  A    between atoms: C_23  and  O_26
REMARK                            x       y       z     vdW  Elec       q    Type
REMARK                         _______ _______ _______ _____ _____    ______ ____
ROOT
ATOM      1  C   UNL     1     -37.592  23.037   2.843  0.00  0.00    +0.042 C 
ATOM      2  O   UNL     1     -40.236  22.739   1.694  0.00  0.00    -0.265 OA
ATOM      3  N   UNL     1     -38.660  23.885   2.994  0.00  0.00    -0.279 N 
ATOM      4  C   UNL     1     -39.885  23.669   2.410  0.00  0.00    +0.303 C 
ATOM      5  H   UNL     1     -38.543  24.691   3.547  0.00  0.00    +0.155 HD
ENDROOT
BRANCH   1   6
ATOM      6  C   UNL     1     -37.547  22.306   1.581  0.00  0.00    +0.042 C 
ATOM      7  O   UNL     1     -36.478  24.985   1.297  0.00  0.00    -0.265 OA
ATOM      8  N   UNL     1     -37.555  23.085   0.451  0.00  0.00    -0.279 N 
ATOM      9  C   UNL     1     -37.025  24.351   0.402  0.00  0.00    +0.303 C 
ATOM     10  H   UNL     1     -37.962  22.718  -0.366  0.00  0.00    +0.155 HD
BRANCH   6  11
ATOM     11  C   UNL     1     -37.500  20.965   1.449  0.00  0.00    +0.068 C 
BRANCH  11  12
ATOM     12  C   UNL     1     -36.313  20.140   1.179  0.00  0.00    -0.016 C 
ATOM     13  C   UNL     1     -36.349  19.175   0.173  0.00  0.00    -0.001 C 
ATOM     14  C   UNL     1     -35.152  20.321   1.931  0.00  0.00    -0.001 C 
ATOM     15  C   UNL     1     -34.063  18.572   0.669  0.00  0.00    +0.139 C 
ATOM     16  C   UNL     1     -35.223  18.391  -0.082  0.00  0.00    +0.037 C 
ATOM     17  C   UNL     1     -34.026  19.537   1.676  0.00  0.00    +0.037 C 
BRANCH  15  18
ATOM     18  O   UNL     1     -32.965  17.807   0.421  0.00  0.00    -0.471 OA
ATOM     19  C   UNL     1     -31.721  18.265   0.949  0.00  0.00    +0.252 C 
ENDBRANCH  15  18
ENDBRANCH  11  12
ENDBRANCH   6  11
ENDBRANCH   1   6
BRANCH   1  20
ATOM     20  C   UNL     1     -36.689  22.941   3.841  0.00  0.00    +0.068 C 
BRANCH  20  21
ATOM     21  C   UNL     1     -35.789  23.997   4.327  0.00  0.00    -0.016 C 
ATOM     22  C   UNL     1     -34.470  24.050   3.880  0.00  0.00    -0.001 C 
ATOM     23  C   UNL     1     -36.255  24.945   5.240  0.00  0.00    -0.001 C 
ATOM     24  C   UNL     1     -34.080  25.998   5.254  0.00  0.00    +0.176 C 
ATOM     25  C   UNL     1     -33.615  25.051   4.342  0.00  0.00    +0.040 C 
ATOM     26  C   UNL     1     -35.400  25.946   5.702  0.00  0.00    +0.040 C 
BRANCH  24  27
ATOM     27  O   UNL     1     -33.246  26.974   5.706  0.00  0.00    -0.322 OA
BRANCH  27  28
ATOM     28  S   UNL     1     -32.690  28.102   4.647  0.00  0.00    +0.282 S 
ATOM     29  O   UNL     1     -32.378  29.400   5.585  0.00  0.00    -0.012 OA
ATOM     30  O   UNL     1     -31.431  27.643   4.087  0.00  0.00    -0.105 OA
ATOM     31  O   UNL     1     -33.787  28.457   3.765  0.00  0.00    -0.105 OA
ENDBRANCH  27  28
ENDBRANCH  24  27
ENDBRANCH  20  21
ENDBRANCH   1  20
TORSDOF 8
ENDMDL
MODEL 5
REMARK VINA RESULT:      -6.6      2.012      2.903
REMARK  Name = 53387666
REMARK  8 active torsions:
REMARK  status: ('A' for Active; 'I' for Inactive)
REMARK    1  A    between atoms: C_1  and  C_2
REMARK    2  A    between atoms: C_1  and  C_18
REMARK    3  A    between atoms: C_2  and  C_3
REMARK    4  A    between atoms: C_6  and  O_9
REMARK    5  A    between atoms: O_9  and  S_10
REMARK    6  A    between atoms: C_18  and  C_19
REMARK    7  A    between atoms: C_19  and  C_20
REMARK    8  A    between atoms: C_23  and  O_26
REMARK                            x       y       z     vdW  Elec       q    Type
REMARK                         _______ _______ _______ _____ _____    ______ ____
ROOT
ATOM      1  C   UNL     1     -36.863  22.447   2.918  0.00  0.00    +0.042 C 
ATOM      2  O   UNL     1     -38.985  20.941   1.641  0.00  0.00    -0.265 OA
ATOM      3  N   UNL     1     -38.200  22.759   2.891  0.00  0.00    -0.279 N 
ATOM      4  C   UNL     1     -39.144  21.987   2.259  0.00  0.00    +0.303 C 
ATOM      5  H   UNL     1     -38.497  23.579   3.346  0.00  0.00    +0.155 HD
ENDROOT
BRANCH   1   6
ATOM      6  C   UNL     1     -36.372  21.705   1.762  0.00  0.00    +0.042 C 
ATOM      7  O   UNL     1     -36.682  24.523   1.162  0.00  0.00    -0.265 OA
ATOM      8  N   UNL     1     -36.654  22.266   0.541  0.00  0.00    -0.279 N 
ATOM      9  C   UNL     1     -36.785  23.619   0.343  0.00  0.00    +0.303 C 
ATOM     10  H   UNL     1     -36.768  21.668  -0.232  0.00  0.00    +0.155 HD
BRANCH   6  11
ATOM     11  C   UNL     1     -35.684  20.546   1.804  0.00  0.00    +0.068 C 
BRANCH  11  12
ATOM     12  C   UNL     1     -34.336  20.293   1.270  0.00  0.00    -0.016 C 
ATOM     13  C   UNL     1     -33.697  19.084   1.539  0.00  0.00    -0.001 C 
ATOM     14  C   UNL     1     -33.698  21.264   0.499  0.00  0.00    -0.001 C 
ATOM     15  C   UNL     1     -31.780  19.814   0.263  0.00  0.00    +0.139 C 
ATOM     16  C   UNL     1     -32.418  18.844   1.035  0.00  0.00    +0.037 C 
ATOM     17  C   UNL     1     -32.419  21.025  -0.005  0.00  0.00    +0.037 C 
BRANCH  15  18
ATOM     18  O   UNL     1     -30.532  19.581  -0.228  0.00  0.00    -0.471 OA
ATOM     19  C   UNL     1     -30.010  18.261  -0.075  0.00  0.00    +0.252 C 
ENDBRANCH  15  18
ENDBRANCH  11  12
ENDBRANCH   6  11
ENDBRANCH   1   6
BRANCH   1  20
ATOM     20  C   UNL     1     -36.124  22.834   3.977  0.00  0.00    +0.068 C 
BRANCH  20  21
ATOM     21  C   UNL     1     -35.473  24.137   4.175  0.00  0.00    -0.016 C 
ATOM     22  C   UNL     1     -36.024  25.066   5.058  0.00  0.00    -0.001 C 
ATOM     23  C   UNL     1     -34.304  24.446   3.479  0.00  0.00    -0.001 C 
ATOM     24  C   UNL     1     -34.239  26.611   4.550  0.00  0.00    +0.176 C 
ATOM     25  C   UNL     1     -35.407  26.303   5.246  0.00  0.00    +0.040 C 
ATOM     26  C   UNL     1     -33.686  25.683   3.666  0.00  0.00    +0.040 C 
BRANCH  24  27
ATOM     27  O   UNL     1     -33.637  27.819   4.732  0.00  0.00    -0.322 OA
BRANCH  27  28
ATOM     28  S   UNL     1     -32.233  27.889   5.585  0.00  0.00    +0.282 S 
ATOM     29  O   UNL     1     -32.232  29.396   6.212  0.00  0.00    -0.012 OA
ATOM     30  O   UNL     1     -32.304  26.947   6.688  0.00  0.00    -0.105 OA
ATOM     31  O   UNL     1     -31.137  27.812   4.637  0.00  0.00    -0.105 OA
ENDBRANCH  27  28
ENDBRANCH  24  27
ENDBRANCH  20  21
ENDBRANCH   1  20
TORSDOF 8
ENDMDL
MODEL 6
REMARK VINA RESULT:      -6.5      4.140      6.702
REMARK  Name = 53387666
REMARK  8 active torsions:
REMARK  status: ('A' for Active; 'I' for Inactive)
REMARK    1  A    between atoms: C_1  and  C_2
REMARK    2  A    between atoms: C_1  and  C_18
REMARK    3  A    between atoms: C_2  and  C_3
REMARK    4  A    between atoms: C_6  and  O_9
REMARK    5  A    between atoms: O_9  and  S_10
REMARK    6  A    between atoms: C_18  and  C_19
REMARK    7  A    between atoms: C_19  and  C_20
REMARK    8  A    between atoms: C_23  and  O_26
REMARK                            x       y       z     vdW  Elec       q    Type
REMARK                         _______ _______ _______ _____ _____    ______ ____
ROOT
ATOM      1  C   UNL     1     -38.197  21.909   1.918  0.00  0.00    +0.042 C 
ATOM      2  O   UNL     1     -35.931  20.114   2.111  0.00  0.00    -0.265 OA
ATOM      3  N   UNL     1     -37.980  20.769   1.186  0.00  0.00    -0.279 N 
ATOM      4  C   UNL     1     -36.872  19.971   1.341  0.00  0.00    +0.303 C 
ATOM      5  H   UNL     1     -38.651  20.509   0.515  0.00  0.00    +0.155 HD
ENDROOT
BRANCH   1   6
ATOM      6  C   UNL     1     -36.994  22.611   2.351  0.00  0.00    +0.042 C 
ATOM      7  O   UNL     1     -37.768  23.388  -0.331  0.00  0.00    -0.265 OA
ATOM      8  N   UNL     1     -36.167  23.039   1.342  0.00  0.00    -0.279 N 
ATOM      9  C   UNL     1     -36.619  23.389   0.093  0.00  0.00    +0.303 C 
ATOM     10  H   UNL     1     -35.202  23.098   1.523  0.00  0.00    +0.155 HD
BRANCH   6  11
ATOM     11  C   UNL     1     -36.646  22.862   3.630  0.00  0.00    +0.068 C 
BRANCH  11  12
ATOM     12  C   UNL     1     -35.870  24.007   4.132  0.00  0.00    -0.016 C 
ATOM     13  C   UNL     1     -36.228  25.304   3.768  0.00  0.00    -0.001 C 
ATOM     14  C   UNL     1     -34.775  23.793   4.969  0.00  0.00    -0.001 C 
ATOM     15  C   UNL     1     -34.396  26.176   5.080  0.00  0.00    +0.139 C 
ATOM     16  C   UNL     1     -35.491  26.390   4.242  0.00  0.00    +0.037 C 
ATOM     17  C   UNL     1     -34.038  24.878   5.444  0.00  0.00    +0.037 C 
BRANCH  15  18
ATOM     18  O   UNL     1     -33.677  27.235   5.542  0.00  0.00    -0.471 OA
ATOM     19  C   UNL     1     -32.889  27.024   6.714  0.00  0.00    +0.252 C 
ENDBRANCH  15  18
ENDBRANCH  11  12
ENDBRANCH   6  11
ENDBRANCH   1   6
BRANCH   1  20
ATOM     20  C   UNL     1     -39.465  22.287   2.175  0.00  0.00    +0.068 C 
BRANCH  20  21
ATOM     21  C   UNL     1     -39.996  23.658   2.199  0.00  0.00    -0.016 C 
ATOM     22  C   UNL     1     -39.651  24.522   3.239  0.00  0.00    -0.001 C 
ATOM     23  C   UNL     1     -40.847  24.096   1.183  0.00  0.00    -0.001 C 
ATOM     24  C   UNL     1     -41.005  26.259   2.248  0.00  0.00    +0.176 C 
ATOM     25  C   UNL     1     -40.154  25.823   3.263  0.00  0.00    +0.040 C 
ATOM     26  C   UNL     1     -41.351  25.396   1.208  0.00  0.00    +0.040 C 
BRANCH  24  27
ATOM     27  O   UNL     1     -41.497  27.528   2.272  0.00  0.00    -0.322 OA
BRANCH  27  28
ATOM     28  S   UNL     1     -42.586  27.938   3.434  0.00  0.00    +0.282 S 
ATOM     29  O   UNL     1     -43.517  29.069   2.716  0.00  0.00    -0.012 OA
ATOM     30  O   UNL     1     -43.423  26.788   3.724  0.00  0.00    -0.105 OA
ATOM     31  O   UNL     1     -41.859  28.592   4.507  0.00  0.00    -0.105 OA
ENDBRANCH  27  28
ENDBRANCH  24  27
ENDBRANCH  20  21
ENDBRANCH   1  20
TORSDOF 8
ENDMDL
MODEL 7
REMARK VINA RESULT:      -6.5      2.536      5.508
REMARK  Name = 53387666
REMARK  8 active torsions:
REMARK  status: ('A' for Active; 'I' for Inactive)
REMARK    1  A    between atoms: C_1  and  C_2
REMARK    2  A    between atoms: C_1  and  C_18
REMARK    3  A    between atoms: C_2  and  C_3
REMARK    4  A    between atoms: C_6  and  O_9
REMARK    5  A    between atoms: O_9  and  S_10
REMARK    6  A    between atoms: C_18  and  C_19
REMARK    7  A    between atoms: C_19  and  C_20
REMARK    8  A    between atoms: C_23  and  O_26
REMARK                            x       y       z     vdW  Elec       q    Type
REMARK                         _______ _______ _______ _____ _____    ______ ____
ROOT
ATOM      1  C   UNL     1     -35.882  19.762   0.263  0.00  0.00    +0.042 C 
ATOM      2  O   UNL     1     -33.700  17.998   0.987  0.00  0.00    -0.265 OA
ATOM      3  N   UNL     1     -35.297  18.803  -0.525  0.00  0.00    -0.279 N 
ATOM      4  C   UNL     1     -34.261  18.006  -0.102  0.00  0.00    +0.303 C 
ATOM      5  H   UNL     1     -35.636  18.679  -1.441  0.00  0.00    +0.155 HD
ENDROOT
BRANCH   1   6
ATOM      6  C   UNL     1     -35.006  20.374   1.255  0.00  0.00    +0.042 C 
ATOM      7  O   UNL     1     -34.656  21.577  -1.358  0.00  0.00    -0.265 OA
ATOM      8  N   UNL     1     -33.865  20.951   0.755  0.00  0.00    -0.279 N 
ATOM      9  C   UNL     1     -33.784  21.501  -0.501  0.00  0.00    +0.303 C 
ATOM     10  H   UNL     1     -33.064  20.972   1.327  0.00  0.00    +0.155 HD
BRANCH   6  11
ATOM     11  C   UNL     1     -35.228  20.414   2.585  0.00  0.00    +0.068 C 
BRANCH  11  12
ATOM     12  C   UNL     1     -35.376  21.612   3.426  0.00  0.00    -0.016 C 
ATOM     13  C   UNL     1     -35.294  21.503   4.814  0.00  0.00    -0.001 C 
ATOM     14  C   UNL     1     -35.599  22.855   2.836  0.00  0.00    -0.001 C 
ATOM     15  C   UNL     1     -35.659  23.882   5.022  0.00  0.00    +0.139 C 
ATOM     16  C   UNL     1     -35.436  22.638   5.613  0.00  0.00    +0.037 C 
ATOM     17  C   UNL     1     -35.741  23.991   3.633  0.00  0.00    +0.037 C 
BRANCH  15  18
ATOM     18  O   UNL     1     -35.798  24.990   5.800  0.00  0.00    -0.471 OA
ATOM     19  C   UNL     1     -35.970  26.238   5.129  0.00  0.00    +0.252 C 
ENDBRANCH  15  18
ENDBRANCH  11  12
ENDBRANCH   6  11
ENDBRANCH   1   6
BRANCH   1  20
ATOM     20  C   UNL     1     -37.184  20.060   0.071  0.00  0.00    +0.068 C 
BRANCH  20  21
ATOM     21  C   UNL     1     -37.875  21.301   0.447  0.00  0.00    -0.016 C 
ATOM     22  C   UNL     1     -37.608  22.485  -0.242  0.00  0.00    -0.001 C 
ATOM     23  C   UNL     1     -38.797  21.297   1.495  0.00  0.00    -0.001 C 
ATOM     24  C   UNL     1     -39.184  23.659   1.162  0.00  0.00    +0.176 C 
ATOM     25  C   UNL     1     -38.263  23.664   0.115  0.00  0.00    +0.040 C 
ATOM     26  C   UNL     1     -39.452  22.476   1.852  0.00  0.00    +0.040 C 
BRANCH  24  27
ATOM     27  O   UNL     1     -39.822  24.810   1.511  0.00  0.00    -0.322 OA
BRANCH  27  28
ATOM     28  S   UNL     1     -39.244  25.690   2.774  0.00  0.00    +0.282 S 
ATOM     29  O   UNL     1     -40.495  26.655   3.184  0.00  0.00    -0.012 OA
ATOM     30  O   UNL     1     -38.983  24.798   3.891  0.00  0.00    -0.105 OA
ATOM     31  O   UNL     1     -38.185  26.544   2.269  0.00  0.00    -0.105 OA
ENDBRANCH  27  28
ENDBRANCH  24  27
ENDBRANCH  20  21
ENDBRANCH   1  20
TORSDOF 8
ENDMDL
MODEL 8
REMARK VINA RESULT:      -6.5      3.130      6.164
REMARK  Name = 53387666
REMARK  8 active torsions:
REMARK  status: ('A' for Active; 'I' for Inactive)
REMARK    1  A    between atoms: C_1  and  C_2
REMARK    2  A    between atoms: C_1  and  C_18
REMARK    3  A    between atoms: C_2  and  C_3
REMARK    4  A    between atoms: C_6  and  O_9
REMARK    5  A    between atoms: O_9  and  S_10
REMARK    6  A    between atoms: C_18  and  C_19
REMARK    7  A    between atoms: C_19  and  C_20
REMARK    8  A    between atoms: C_23  and  O_26
REMARK                            x       y       z     vdW  Elec       q    Type
REMARK                         _______ _______ _______ _____ _____    ______ ____
ROOT
ATOM      1  C   UNL     1     -36.928  22.590   1.037  0.00  0.00    +0.042 C 
ATOM      2  O   UNL     1     -39.415  21.412   1.948  0.00  0.00    -0.265 OA
ATOM      3  N   UNL     1     -37.852  21.916   0.278  0.00  0.00    -0.279 N 
ATOM      4  C   UNL     1     -39.010  21.385   0.792  0.00  0.00    +0.303 C 
ATOM      5  H   UNL     1     -37.675  21.805  -0.684  0.00  0.00    +0.155 HD
ENDROOT
BRANCH   1   6
ATOM      6  C   UNL     1     -36.844  22.174   2.433  0.00  0.00    +0.042 C 
ATOM      7  O   UNL     1     -35.100  20.590   0.744  0.00  0.00    -0.265 OA
ATOM      8  N   UNL     1     -36.452  20.874   2.635  0.00  0.00    -0.279 N 
ATOM      9  C   UNL     1     -35.619  20.194   1.781  0.00  0.00    +0.303 C 
ATOM     10  H   UNL     1     -36.785  20.405   3.434  0.00  0.00    +0.155 HD
BRANCH   6  11
ATOM     11  C   UNL     1     -37.114  22.948   3.503  0.00  0.00    +0.068 C 
BRANCH  11  12
ATOM     12  C   UNL     1     -36.227  23.944   4.126  0.00  0.00    -0.016 C 
ATOM     13  C   UNL     1     -36.757  25.134   4.622  0.00  0.00    -0.001 C 
ATOM     14  C   UNL     1     -34.858  23.697   4.218  0.00  0.00    -0.001 C 
ATOM     15  C   UNL     1     -34.548  25.833   5.304  0.00  0.00    +0.139 C 
ATOM     16  C   UNL     1     -35.917  26.080   5.211  0.00  0.00    +0.037 C 
ATOM     17  C   UNL     1     -34.017  24.642   4.807  0.00  0.00    +0.037 C 
BRANCH  15  18
ATOM     18  O   UNL     1     -33.728  26.756   5.878  0.00  0.00    -0.471 OA
ATOM     19  C   UNL     1     -32.881  27.505   5.006  0.00  0.00    +0.252 C 
ENDBRANCH  15  18
ENDBRANCH  11  12
ENDBRANCH   6  11
ENDBRANCH   1   6
BRANCH   1  20
ATOM     20  C   UNL     1     -36.190  23.559   0.458  0.00  0.00    +0.068 C 
BRANCH  20  21
ATOM     21  C   UNL     1     -36.078  24.962   0.881  0.00  0.00    -0.016 C 
ATOM     22  C   UNL     1     -37.226  25.744   1.016  0.00  0.00    -0.001 C 
ATOM     23  C   UNL     1     -34.824  25.515   1.144  0.00  0.00    -0.001 C 
ATOM     24  C   UNL     1     -35.867  27.628   1.679  0.00  0.00    +0.176 C 
ATOM     25  C   UNL     1     -37.121  27.076   1.416  0.00  0.00    +0.040 C 
ATOM     26  C   UNL     1     -34.719  26.847   1.544  0.00  0.00    +0.040 C 
BRANCH  24  27
ATOM     27  O   UNL     1     -35.764  28.928   2.068  0.00  0.00    -0.322 OA
BRANCH  27  28
ATOM     28  S   UNL     1     -36.015  30.114   0.957  0.00  0.00    +0.282 S 
ATOM     29  O   UNL     1     -35.112  31.359   1.503  0.00  0.00    -0.012 OA
ATOM     30  O   UNL     1     -35.467  29.690  -0.319  0.00  0.00    -0.105 OA
ATOM     31  O   UNL     1     -37.407  30.516   1.048  0.00  0.00    -0.105 OA
ENDBRANCH  27  28
ENDBRANCH  24  27
ENDBRANCH  20  21
ENDBRANCH   1  20
TORSDOF 8
ENDMDL
MODEL 9
REMARK VINA RESULT:      -6.4      2.970      5.225
REMARK  Name = 53387666
REMARK  8 active torsions:
REMARK  status: ('A' for Active; 'I' for Inactive)
REMARK    1  A    between atoms: C_1  and  C_2
REMARK    2  A    between atoms: C_1  and  C_18
REMARK    3  A    between atoms: C_2  and  C_3
REMARK    4  A    between atoms: C_6  and  O_9
REMARK    5  A    between atoms: O_9  and  S_10
REMARK    6  A    between atoms: C_18  and  C_19
REMARK    7  A    between atoms: C_19  and  C_20
REMARK    8  A    between atoms: C_23  and  O_26
REMARK                            x       y       z     vdW  Elec       q    Type
REMARK                         _______ _______ _______ _____ _____    ______ ____
ROOT
ATOM      1  C   UNL     1     -37.551  21.574   1.624  0.00  0.00    +0.042 C 
ATOM      2  O   UNL     1     -35.652  19.896   0.217  0.00  0.00    -0.265 OA
ATOM      3  N   UNL     1     -37.243  20.264   1.896  0.00  0.00    -0.279 N 
ATOM      4  C   UNL     1     -36.326  19.538   1.175  0.00  0.00    +0.303 C 
ATOM      5  H   UNL     1     -37.702  19.822   2.646  0.00  0.00    +0.155 HD
ENDROOT
BRANCH   1   6
ATOM      6  C   UNL     1     -37.424  21.967   0.225  0.00  0.00    +0.042 C 
ATOM      7  O   UNL     1     -40.050  20.880   0.788  0.00  0.00    -0.265 OA
ATOM      8  N   UNL     1     -38.251  21.306  -0.649  0.00  0.00    -0.279 N 
ATOM      9  C   UNL     1     -39.487  20.820  -0.298  0.00  0.00    +0.303 C 
ATOM     10  H   UNL     1     -37.942  21.174  -1.574  0.00  0.00    +0.155 HD
BRANCH   6  11
ATOM     11  C   UNL     1     -36.580  22.902  -0.256  0.00  0.00    +0.068 C 
BRANCH  11  12
ATOM     12  C   UNL     1     -36.422  24.286   0.218  0.00  0.00    -0.016 C 
ATOM     13  C   UNL     1     -37.489  25.180   0.125  0.00  0.00    -0.001 C 
ATOM     14  C   UNL     1     -35.206  24.704   0.758  0.00  0.00    -0.001 C 
ATOM     15  C   UNL     1     -36.124  26.910   1.113  0.00  0.00    +0.139 C 
ATOM     16  C   UNL     1     -37.340  26.493   0.573  0.00  0.00    +0.037 C 
ATOM     17  C   UNL     1     -35.057  26.017   1.206  0.00  0.00    +0.037 C 
BRANCH  15  18
ATOM     18  O   UNL     1     -35.978  28.191   1.550  0.00  0.00    -0.471 OA
ATOM     19  C   UNL     1     -36.626  29.214   0.793  0.00  0.00    +0.252 C 
ENDBRANCH  15  18
ENDBRANCH  11  12
ENDBRANCH   6  11
ENDBRANCH   1   6
BRANCH   1  20
ATOM     20  C   UNL     1     -37.936  22.377   2.636  0.00  0.00    +0.068 C 
BRANCH  20  21
ATOM     21  C   UNL     1     -37.076  23.230   3.469  0.00  0.00    -0.016 C 
ATOM     22  C   UNL     1     -35.881  22.727   3.982  0.00  0.00    -0.001 C 
ATOM     23  C   UNL     1     -37.457  24.544   3.749  0.00  0.00    -0.001 C 
ATOM     24  C   UNL     1     -35.445  24.848   5.052  0.00  0.00    +0.176 C 
ATOM     25  C   UNL     1     -35.065  23.536   4.773  0.00  0.00    +0.040 C 
ATOM     26  C   UNL     1     -36.641  25.353   4.540  0.00  0.00    +0.040 C 
BRANCH  24  27
ATOM     27  O   UNL     1     -34.650  25.637   5.825  0.00  0.00    -0.322 OA
BRANCH  27  28
ATOM     28  S   UNL     1     -33.571  26.640   5.095  0.00  0.00    +0.282 S 
ATOM     29  O   UNL     1     -32.858  25.696   3.971  0.00  0.00    -0.012 OA
ATOM     30  O   UNL     1     -34.297  27.690   4.401  0.00  0.00    -0.105 OA
ATOM     31  O   UNL     1     -32.559  26.988   6.075  0.00  0.00    -0.105 OA
ENDBRANCH  27  28
ENDBRANCH  24  27
ENDBRANCH  20  21
ENDBRANCH   1  20
TORSDOF 8
ENDMDL
