MODEL 1
REMARK VINA RESULT:      -6.4      0.000      0.000
REMARK  Name = 5316653
REMARK  5 active torsions:
REMARK  status: ('A' for Active; 'I' for Inactive)
REMARK    1  A    between atoms: C_7  and  C_15
REMARK    2  A    between atoms: C_9  and  O_27
REMARK    3  A    between atoms: C_18  and  O_21
REMARK    4  A    between atoms: C_19  and  O_25
REMARK    5  A    between atoms: C_20  and  O_23
REMARK                            x       y       z     vdW  Elec       q    Type
REMARK                         _______ _______ _______ _____ _____    ______ ____
ROOT
ATOM      1  O   UNL     1     -34.281  23.140   0.759  0.00  0.00    -0.450 OA
ATOM      2  O   UNL     1     -36.232  24.881   5.567  0.00  0.00    -0.431 OA
ATOM      3  O   UNL     1     -35.494  26.509   3.951  0.00  0.00    -0.434 OA
ATOM      4  O   UNL     1     -35.461  20.251   3.392  0.00  0.00    -0.286 OA
ATOM      5  C   UNL     1     -35.214  22.544   2.927  0.00  0.00    +0.110 C 
ATOM      6  C   UNL     1     -34.783  23.494   1.986  0.00  0.00    +0.155 C 
ATOM      7  C   UNL     1     -34.592  20.780   1.241  0.00  0.00    +0.077 C 
ATOM      8  C   UNL     1     -35.774  24.304   4.423  0.00  0.00    +0.210 C 
ATOM      9  C   UNL     1     -35.719  22.948   4.170  0.00  0.00    +0.177 C 
ATOM     10  C   UNL     1     -35.352  25.233   3.500  0.00  0.00    +0.183 C 
ATOM     11  C   UNL     1     -35.124  21.113   2.590  0.00  0.00    +0.205 C 
ATOM     12  C   UNL     1     -34.851  24.862   2.270  0.00  0.00    +0.078 C 
ATOM     13  C   UNL     1     -34.224  21.802   0.454  0.00  0.00    +0.183 C 
ATOM     14  C   UNL     1     -36.051  26.279   5.261  0.00  0.00    +0.430 C 
ENDROOT
BRANCH   7  15
ATOM     15  C   UNL     1     -34.489  19.390   0.765  0.00  0.00    +0.012 C 
ATOM     16  C   UNL     1     -35.569  18.790   0.114  0.00  0.00    +0.040 C 
ATOM     17  C   UNL     1     -33.311  18.668   0.964  0.00  0.00    +0.040 C 
ATOM     18  C   UNL     1     -35.471  17.474  -0.337  0.00  0.00    +0.175 C 
ATOM     19  C   UNL     1     -33.212  17.351   0.514  0.00  0.00    +0.171 C 
ATOM     20  C   UNL     1     -34.292  16.754  -0.136  0.00  0.00    +0.206 C 
BRANCH  18  21
ATOM     21  O   UNL     1     -36.532  16.902  -0.970  0.00  0.00    -0.468 OA
ATOM     22  C   UNL     1     -37.617  16.465  -0.153  0.00  0.00    +0.253 C 
ENDBRANCH  18  21
BRANCH  20  23
ATOM     23  O   UNL     1     -34.196  15.467  -0.576  0.00  0.00    -0.465 OA
ATOM     24  C   UNL     1     -33.720  15.271  -1.906  0.00  0.00    +0.253 C 
ENDBRANCH  20  23
BRANCH  19  25
ATOM     25  O   UNL     1     -32.057  16.659   0.717  0.00  0.00    -0.503 OA
ATOM     26  H   UNL     1     -31.274  17.114   0.960  0.00  0.00    +0.292 HD
ENDBRANCH  19  25
ENDBRANCH   7  15
BRANCH   9  27
ATOM     27  O   UNL     1     -36.150  22.076   5.117  0.00  0.00    -0.503 OA
ATOM     28  H   UNL     1     -36.152  21.155   4.941  0.00  0.00    +0.292 HD
ENDBRANCH   9  27
TORSDOF 5
ENDMDL
MODEL 2
REMARK VINA RESULT:      -6.3      5.025      8.340
REMARK  Name = 5316653
REMARK  5 active torsions:
REMARK  status: ('A' for Active; 'I' for Inactive)
REMARK    1  A    between atoms: C_7  and  C_15
REMARK    2  A    between atoms: C_9  and  O_27
REMARK    3  A    between atoms: C_18  and  O_21
REMARK    4  A    between atoms: C_19  and  O_25
REMARK    5  A    between atoms: C_20  and  O_23
REMARK                            x       y       z     vdW  Elec       q    Type
REMARK                         _______ _______ _______ _____ _____    ______ ____
ROOT
ATOM      1  O   UNL     1     -32.163  27.630   6.943  0.00  0.00    -0.450 OA
ATOM      2  O   UNL     1     -29.041  30.658   3.620  0.00  0.00    -0.431 OA
ATOM      3  O   UNL     1     -28.609  30.708   5.990  0.00  0.00    -0.434 OA
ATOM      4  O   UNL     1     -33.047  27.451   2.961  0.00  0.00    -0.286 OA
ATOM      5  C   UNL     1     -31.678  28.328   4.662  0.00  0.00    +0.110 C 
ATOM      6  C   UNL     1     -31.426  28.359   6.044  0.00  0.00    +0.155 C 
ATOM      7  C   UNL     1     -33.531  26.698   5.166  0.00  0.00    +0.077 C 
ATOM      8  C   UNL     1     -29.893  29.858   4.318  0.00  0.00    +0.210 C 
ATOM      9  C   UNL     1     -30.903  29.088   3.777  0.00  0.00    +0.177 C 
ATOM     10  C   UNL     1     -29.647  29.887   5.672  0.00  0.00    +0.183 C 
ATOM     11  C   UNL     1     -32.775  27.485   4.154  0.00  0.00    +0.205 C 
ATOM     12  C   UNL     1     -30.395  29.148   6.564  0.00  0.00    +0.078 C 
ATOM     13  C   UNL     1     -33.167  26.834   6.450  0.00  0.00    +0.183 C 
ATOM     14  C   UNL     1     -28.230  31.193   4.686  0.00  0.00    +0.430 C 
ENDROOT
BRANCH   7  15
ATOM     15  C   UNL     1     -34.623  25.786   4.786  0.00  0.00    +0.012 C 
ATOM     16  C   UNL     1     -34.418  24.406   4.795  0.00  0.00    +0.040 C 
ATOM     17  C   UNL     1     -35.868  26.301   4.416  0.00  0.00    +0.040 C 
ATOM     18  C   UNL     1     -35.453  23.542   4.436  0.00  0.00    +0.175 C 
ATOM     19  C   UNL     1     -36.902  25.438   4.056  0.00  0.00    +0.171 C 
ATOM     20  C   UNL     1     -36.695  24.058   4.065  0.00  0.00    +0.206 C 
BRANCH  18  21
ATOM     21  O   UNL     1     -35.238  22.197   4.449  0.00  0.00    -0.468 OA
ATOM     22  C   UNL     1     -35.147  21.567   5.726  0.00  0.00    +0.253 C 
ENDBRANCH  18  21
BRANCH  20  23
ATOM     23  O   UNL     1     -37.706  23.214   3.714  0.00  0.00    -0.465 OA
ATOM     24  C   UNL     1     -37.793  22.846   2.339  0.00  0.00    +0.253 C 
ENDBRANCH  20  23
BRANCH  19  25
ATOM     25  O   UNL     1     -38.110  25.954   3.695  0.00  0.00    -0.503 OA
ATOM     26  H   UNL     1     -38.835  25.907   4.287  0.00  0.00    +0.292 HD
ENDBRANCH  19  25
ENDBRANCH   7  15
BRANCH   9  27
ATOM     27  O   UNL     1     -31.100  29.098   2.433  0.00  0.00    -0.503 OA
ATOM     28  H   UNL     1     -31.802  29.598   2.066  0.00  0.00    +0.292 HD
ENDBRANCH   9  27
TORSDOF 5
ENDMDL
MODEL 3
REMARK VINA RESULT:      -6.3      0.551      2.139
REMARK  Name = 5316653
REMARK  5 active torsions:
REMARK  status: ('A' for Active; 'I' for Inactive)
REMARK    1  A    between atoms: C_7  and  C_15
REMARK    2  A    between atoms: C_9  and  O_27
REMARK    3  A    between atoms: C_18  and  O_21
REMARK    4  A    between atoms: C_19  and  O_25
REMARK    5  A    between atoms: C_20  and  O_23
REMARK                            x       y       z     vdW  Elec       q    Type
REMARK                         _______ _______ _______ _____ _____    ______ ____
ROOT
ATOM      1  O   UNL     1     -34.265  23.147   0.751  0.00  0.00    -0.450 OA
ATOM      2  O   UNL     1     -36.398  24.821   5.506  0.00  0.00    -0.431 OA
ATOM      3  O   UNL     1     -35.685  26.473   3.904  0.00  0.00    -0.434 OA
ATOM      4  O   UNL     1     -35.396  20.219   3.363  0.00  0.00    -0.286 OA
ATOM      5  C   UNL     1     -35.227  22.520   2.898  0.00  0.00    +0.110 C 
ATOM      6  C   UNL     1     -34.811  23.484   1.964  0.00  0.00    +0.155 C 
ATOM      7  C   UNL     1     -34.497  20.778   1.232  0.00  0.00    +0.077 C 
ATOM      8  C   UNL     1     -35.891  24.259   4.374  0.00  0.00    +0.210 C 
ATOM      9  C   UNL     1     -35.777  22.906   4.127  0.00  0.00    +0.177 C 
ATOM     10  C   UNL     1     -35.483  25.202   3.460  0.00  0.00    +0.183 C 
ATOM     11  C   UNL     1     -35.073  21.092   2.567  0.00  0.00    +0.205 C 
ATOM     12  C   UNL     1     -34.938  24.848   2.243  0.00  0.00    +0.078 C 
ATOM     13  C   UNL     1     -34.150  21.812   0.451  0.00  0.00    +0.183 C 
ATOM     14  C   UNL     1     -36.264  26.224   5.200  0.00  0.00    +0.430 C 
ENDROOT
BRANCH   7  15
ATOM     15  C   UNL     1     -34.328  19.392   0.762  0.00  0.00    +0.012 C 
ATOM     16  C   UNL     1     -33.144  18.702   1.025  0.00  0.00    +0.040 C 
ATOM     17  C   UNL     1     -35.354  18.765   0.051  0.00  0.00    +0.040 C 
ATOM     18  C   UNL     1     -32.984  17.390   0.581  0.00  0.00    +0.175 C 
ATOM     19  C   UNL     1     -35.195  17.453  -0.394  0.00  0.00    +0.171 C 
ATOM     20  C   UNL     1     -34.010  16.764  -0.130  0.00  0.00    +0.206 C 
BRANCH  18  21
ATOM     21  O   UNL     1     -31.823  16.730   0.845  0.00  0.00    -0.468 OA
ATOM     22  C   UNL     1     -30.662  17.147   0.128  0.00  0.00    +0.253 C 
ENDBRANCH  18  21
BRANCH  20  23
ATOM     23  O   UNL     1     -33.854  15.482  -0.565  0.00  0.00    -0.465 OA
ATOM     24  C   UNL     1     -33.363  15.304  -1.891  0.00  0.00    +0.253 C 
ENDBRANCH  20  23
BRANCH  19  25
ATOM     25  O   UNL     1     -36.203  16.854  -1.087  0.00  0.00    -0.503 OA
ATOM     26  H   UNL     1     -37.075  16.858  -0.744  0.00  0.00    +0.292 HD
ENDBRANCH  19  25
ENDBRANCH   7  15
BRANCH   9  27
ATOM     27  O   UNL     1     -36.197  22.020   5.066  0.00  0.00    -0.503 OA
ATOM     28  H   UNL     1     -36.545  22.329   5.880  0.00  0.00    +0.292 HD
ENDBRANCH   9  27
TORSDOF 5
ENDMDL
MODEL 4
REMARK VINA RESULT:      -6.2      1.759      1.944
REMARK  Name = 5316653
REMARK  5 active torsions:
REMARK  status: ('A' for Active; 'I' for Inactive)
REMARK    1  A    between atoms: C_7  and  C_15
REMARK    2  A    between atoms: C_9  and  O_27
REMARK    3  A    between atoms: C_18  and  O_21
REMARK    4  A    between atoms: C_19  and  O_25
REMARK    5  A    between atoms: C_20  and  O_23
REMARK                            x       y       z     vdW  Elec       q    Type
REMARK                         _______ _______ _______ _____ _____    ______ ____
ROOT
ATOM      1  O   UNL     1     -35.595  22.334  -0.442  0.00  0.00    -0.450 OA
ATOM      2  O   UNL     1     -37.867  24.523   4.031  0.00  0.00    -0.431 OA
ATOM      3  O   UNL     1     -38.096  25.674   1.927  0.00  0.00    -0.434 OA
ATOM      4  O   UNL     1     -35.089  20.271   3.046  0.00  0.00    -0.286 OA
ATOM      5  C   UNL     1     -36.002  22.144   1.952  0.00  0.00    +0.110 C 
ATOM      6  C   UNL     1     -36.135  22.816   0.725  0.00  0.00    +0.155 C 
ATOM      7  C   UNL     1     -34.705  20.384   0.700  0.00  0.00    +0.077 C 
ATOM      8  C   UNL     1     -37.254  23.863   3.011  0.00  0.00    +0.210 C 
ATOM      9  C   UNL     1     -36.567  22.670   3.120  0.00  0.00    +0.177 C 
ATOM     10  C   UNL     1     -37.383  24.520   1.810  0.00  0.00    +0.183 C 
ATOM     11  C   UNL     1     -35.254  20.875   1.993  0.00  0.00    +0.205 C 
ATOM     12  C   UNL     1     -36.836  24.023   0.645  0.00  0.00    +0.078 C 
ATOM     13  C   UNL     1     -34.919  21.140  -0.387  0.00  0.00    +0.183 C 
ATOM     14  C   UNL     1     -38.398  25.670   3.336  0.00  0.00    +0.430 C 
ENDROOT
BRANCH   7  15
ATOM     15  C   UNL     1     -33.973  19.110   0.597  0.00  0.00    +0.012 C 
ATOM     16  C   UNL     1     -34.577  18.001   0.003  0.00  0.00    +0.040 C 
ATOM     17  C   UNL     1     -32.673  19.008   1.096  0.00  0.00    +0.040 C 
ATOM     18  C   UNL     1     -33.884  16.795  -0.094  0.00  0.00    +0.175 C 
ATOM     19  C   UNL     1     -31.979  17.802   0.999  0.00  0.00    +0.171 C 
ATOM     20  C   UNL     1     -32.585  16.694   0.404  0.00  0.00    +0.206 C 
BRANCH  18  21
ATOM     21  O   UNL     1     -34.487  15.721  -0.677  0.00  0.00    -0.468 OA
ATOM     22  C   UNL     1     -35.801  15.393  -0.229  0.00  0.00    +0.253 C 
ENDBRANCH  18  21
BRANCH  20  23
ATOM     23  O   UNL     1     -31.907  15.515   0.310  0.00  0.00    -0.465 OA
ATOM     24  C   UNL     1     -31.159  15.293  -0.883  0.00  0.00    +0.253 C 
ENDBRANCH  20  23
BRANCH  19  25
ATOM     25  O   UNL     1     -30.712  17.717   1.491  0.00  0.00    -0.503 OA
ATOM     26  H   UNL     1     -30.074  17.188   1.053  0.00  0.00    +0.292 HD
ENDBRANCH  19  25
ENDBRANCH   7  15
BRANCH   9  27
ATOM     27  O   UNL     1     -36.472  22.065   4.332  0.00  0.00    -0.503 OA
ATOM     28  H   UNL     1     -37.018  22.345   5.040  0.00  0.00    +0.292 HD
ENDBRANCH   9  27
TORSDOF 5
ENDMDL
MODEL 5
REMARK VINA RESULT:      -6.1      5.652      8.305
REMARK  Name = 5316653
REMARK  5 active torsions:
REMARK  status: ('A' for Active; 'I' for Inactive)
REMARK    1  A    between atoms: C_7  and  C_15
REMARK    2  A    between atoms: C_9  and  O_27
REMARK    3  A    between atoms: C_18  and  O_21
REMARK    4  A    between atoms: C_19  and  O_25
REMARK    5  A    between atoms: C_20  and  O_23
REMARK                            x       y       z     vdW  Elec       q    Type
REMARK                         _______ _______ _______ _____ _____    ______ ____
ROOT
ATOM      1  O   UNL     1     -31.351  27.497   2.619  0.00  0.00    -0.450 OA
ATOM      2  O   UNL     1     -28.995  29.939   6.914  0.00  0.00    -0.431 OA
ATOM      3  O   UNL     1     -27.863  29.978   4.787  0.00  0.00    -0.434 OA
ATOM      4  O   UNL     1     -33.389  27.314   6.153  0.00  0.00    -0.286 OA
ATOM      5  C   UNL     1     -31.489  28.064   4.983  0.00  0.00    +0.110 C 
ATOM      6  C   UNL     1     -30.829  28.087   3.743  0.00  0.00    +0.155 C 
ATOM      7  C   UNL     1     -33.327  26.778   3.836  0.00  0.00    +0.077 C 
ATOM      8  C   UNL     1     -29.698  29.295   5.942  0.00  0.00    +0.210 C 
ATOM      9  C   UNL     1     -30.921  28.676   6.107  0.00  0.00    +0.177 C 
ATOM     10  C   UNL     1     -29.052  29.316   4.728  0.00  0.00    +0.183 C 
ATOM     11  C   UNL     1     -32.792  27.383   5.086  0.00  0.00    +0.205 C 
ATOM     12  C   UNL     1     -29.590  28.721   3.606  0.00  0.00    +0.078 C 
ATOM     13  C   UNL     1     -32.576  26.886   2.729  0.00  0.00    +0.183 C 
ATOM     14  C   UNL     1     -27.833  30.369   6.174  0.00  0.00    +0.430 C 
ENDROOT
BRANCH   7  15
ATOM     15  C   UNL     1     -34.635  26.104   3.794  0.00  0.00    +0.012 C 
ATOM     16  C   UNL     1     -34.791  24.839   4.363  0.00  0.00    +0.040 C 
ATOM     17  C   UNL     1     -35.725  26.729   3.183  0.00  0.00    +0.040 C 
ATOM     18  C   UNL     1     -36.030  24.201   4.323  0.00  0.00    +0.175 C 
ATOM     19  C   UNL     1     -36.964  26.091   3.142  0.00  0.00    +0.171 C 
ATOM     20  C   UNL     1     -37.118  24.827   3.712  0.00  0.00    +0.206 C 
BRANCH  18  21
ATOM     21  O   UNL     1     -36.167  22.967   4.883  0.00  0.00    -0.468 OA
ATOM     22  C   UNL     1     -35.348  22.673   6.014  0.00  0.00    +0.253 C 
ENDBRANCH  18  21
BRANCH  20  23
ATOM     23  O   UNL     1     -38.329  24.203   3.673  0.00  0.00    -0.465 OA
ATOM     24  C   UNL     1     -38.583  23.353   2.556  0.00  0.00    +0.253 C 
ENDBRANCH  20  23
BRANCH  19  25
ATOM     25  O   UNL     1     -38.017  26.712   2.542  0.00  0.00    -0.503 OA
ATOM     26  H   UNL     1     -38.561  26.239   1.943  0.00  0.00    +0.292 HD
ENDBRANCH  19  25
ENDBRANCH   7  15
BRANCH   9  27
ATOM     27  O   UNL     1     -31.513  28.687   7.329  0.00  0.00    -0.503 OA
ATOM     28  H   UNL     1     -31.216  29.284   7.988  0.00  0.00    +0.292 HD
ENDBRANCH   9  27
TORSDOF 5
ENDMDL
MODEL 6
REMARK VINA RESULT:      -6.1      2.691      4.434
REMARK  Name = 5316653
REMARK  5 active torsions:
REMARK  status: ('A' for Active; 'I' for Inactive)
REMARK    1  A    between atoms: C_7  and  C_15
REMARK    2  A    between atoms: C_9  and  O_27
REMARK    3  A    between atoms: C_18  and  O_21
REMARK    4  A    between atoms: C_19  and  O_25
REMARK    5  A    between atoms: C_20  and  O_23
REMARK                            x       y       z     vdW  Elec       q    Type
REMARK                         _______ _______ _______ _____ _____    ______ ____
ROOT
ATOM      1  O   UNL     1     -34.864  24.185   5.606  0.00  0.00    -0.450 OA
ATOM      2  O   UNL     1     -32.182  28.606   3.813  0.00  0.00    -0.431 OA
ATOM      3  O   UNL     1     -32.539  28.342   6.182  0.00  0.00    -0.434 OA
ATOM      4  O   UNL     1     -34.369  24.492   1.565  0.00  0.00    -0.286 OA
ATOM      5  C   UNL     1     -33.992  25.416   3.696  0.00  0.00    +0.110 C 
ATOM      6  C   UNL     1     -34.201  25.263   5.077  0.00  0.00    +0.155 C 
ATOM      7  C   UNL     1     -35.197  23.224   3.400  0.00  0.00    +0.077 C 
ATOM      8  C   UNL     1     -32.859  27.464   4.110  0.00  0.00    +0.210 C 
ATOM      9  C   UNL     1     -33.311  26.533   3.195  0.00  0.00    +0.177 C 
ATOM     10  C   UNL     1     -33.065  27.313   5.462  0.00  0.00    +0.183 C 
ATOM     11  C   UNL     1     -34.504  24.384   2.777  0.00  0.00    +0.205 C 
ATOM     12  C   UNL     1     -33.732  26.222   5.980  0.00  0.00    +0.078 C 
ATOM     13  C   UNL     1     -35.315  23.222   4.737  0.00  0.00    +0.183 C 
ATOM     14  C   UNL     1     -31.983  29.157   5.131  0.00  0.00    +0.430 C 
ENDROOT
BRANCH   7  15
ATOM     15  C   UNL     1     -35.719  22.105   2.598  0.00  0.00    +0.012 C 
ATOM     16  C   UNL     1     -37.043  22.118   2.155  0.00  0.00    +0.040 C 
ATOM     17  C   UNL     1     -34.891  21.027   2.279  0.00  0.00    +0.040 C 
ATOM     18  C   UNL     1     -37.537  21.058   1.395  0.00  0.00    +0.175 C 
ATOM     19  C   UNL     1     -35.384  19.966   1.520  0.00  0.00    +0.171 C 
ATOM     20  C   UNL     1     -36.708  19.981   1.078  0.00  0.00    +0.206 C 
BRANCH  18  21
ATOM     21  O   UNL     1     -38.831  21.085   0.970  0.00  0.00    -0.468 OA
ATOM     22  C   UNL     1     -39.803  21.596   1.881  0.00  0.00    +0.253 C 
ENDBRANCH  18  21
BRANCH  20  23
ATOM     23  O   UNL     1     -37.191  18.945   0.336  0.00  0.00    -0.465 OA
ATOM     24  C   UNL     1     -37.052  19.042  -1.080  0.00  0.00    +0.253 C 
ENDBRANCH  20  23
BRANCH  19  25
ATOM     25  O   UNL     1     -34.566  18.921   1.218  0.00  0.00    -0.503 OA
ATOM     26  H   UNL     1     -34.921  18.059   1.123  0.00  0.00    +0.292 HD
ENDBRANCH  19  25
ENDBRANCH   7  15
BRANCH   9  27
ATOM     27  O   UNL     1     -33.080  26.734   1.872  0.00  0.00    -0.503 OA
ATOM     28  H   UNL     1     -32.936  27.601   1.548  0.00  0.00    +0.292 HD
ENDBRANCH   9  27
TORSDOF 5
ENDMDL
MODEL 7
REMARK VINA RESULT:      -6.1      3.943      5.960
REMARK  Name = 5316653
REMARK  5 active torsions:
REMARK  status: ('A' for Active; 'I' for Inactive)
REMARK    1  A    between atoms: C_7  and  C_15
REMARK    2  A    between atoms: C_9  and  O_27
REMARK    3  A    between atoms: C_18  and  O_21
REMARK    4  A    between atoms: C_19  and  O_25
REMARK    5  A    between atoms: C_20  and  O_23
REMARK                            x       y       z     vdW  Elec       q    Type
REMARK                         _______ _______ _______ _____ _____    ______ ____
ROOT
ATOM      1  O   UNL     1     -35.081  24.847   5.873  0.00  0.00    -0.450 OA
ATOM      2  O   UNL     1     -32.073  28.904   3.762  0.00  0.00    -0.431 OA
ATOM      3  O   UNL     1     -31.845  28.381   6.103  0.00  0.00    -0.434 OA
ATOM      4  O   UNL     1     -35.610  25.620   1.898  0.00  0.00    -0.286 OA
ATOM      5  C   UNL     1     -34.496  26.152   3.902  0.00  0.00    +0.110 C 
ATOM      6  C   UNL     1     -34.363  25.848   5.267  0.00  0.00    +0.155 C 
ATOM      7  C   UNL     1     -36.181  24.283   3.782  0.00  0.00    +0.077 C 
ATOM      8  C   UNL     1     -32.880  27.876   4.144  0.00  0.00    +0.210 C 
ATOM      9  C   UNL     1     -33.746  27.182   3.322  0.00  0.00    +0.177 C 
ATOM     10  C   UNL     1     -32.750  27.578   5.481  0.00  0.00    +0.183 C 
ATOM     11  C   UNL     1     -35.442  25.370   3.085  0.00  0.00    +0.205 C 
ATOM     12  C   UNL     1     -33.478  26.568   6.075  0.00  0.00    +0.078 C 
ATOM     13  C   UNL     1     -35.942  24.116   5.091  0.00  0.00    +0.183 C 
ATOM     14  C   UNL     1     -31.420  29.219   5.009  0.00  0.00    +0.430 C 
ENDROOT
BRANCH   7  15
ATOM     15  C   UNL     1     -37.125  23.403   3.072  0.00  0.00    +0.012 C 
ATOM     16  C   UNL     1     -38.434  23.826   2.834  0.00  0.00    +0.040 C 
ATOM     17  C   UNL     1     -36.713  22.142   2.636  0.00  0.00    +0.040 C 
ATOM     18  C   UNL     1     -39.327  22.993   2.162  0.00  0.00    +0.175 C 
ATOM     19  C   UNL     1     -37.606  21.308   1.964  0.00  0.00    +0.171 C 
ATOM     20  C   UNL     1     -38.914  21.732   1.727  0.00  0.00    +0.206 C 
BRANCH  18  21
ATOM     21  O   UNL     1     -40.601  23.419   1.936  0.00  0.00    -0.468 OA
ATOM     22  C   UNL     1     -40.787  24.397   0.914  0.00  0.00    +0.253 C 
ENDBRANCH  18  21
BRANCH  20  23
ATOM     23  O   UNL     1     -39.787  20.918   1.070  0.00  0.00    -0.465 OA
ATOM     24  C   UNL     1     -39.792  20.988  -0.354  0.00  0.00    +0.253 C 
ENDBRANCH  20  23
BRANCH  19  25
ATOM     25  O   UNL     1     -37.190  20.080   1.546  0.00  0.00    -0.503 OA
ATOM     26  H   UNL     1     -36.831  19.472   2.162  0.00  0.00    +0.292 HD
ENDBRANCH  19  25
ENDBRANCH   7  15
BRANCH   9  27
ATOM     27  O   UNL     1     -33.832  27.520   2.010  0.00  0.00    -0.503 OA
ATOM     28  H   UNL     1     -33.662  26.878   1.348  0.00  0.00    +0.292 HD
ENDBRANCH   9  27
TORSDOF 5
ENDMDL
MODEL 8
REMARK VINA RESULT:      -6.1      5.401      7.779
REMARK  Name = 5316653
REMARK  5 active torsions:
REMARK  status: ('A' for Active; 'I' for Inactive)
REMARK    1  A    between atoms: C_7  and  C_15
REMARK    2  A    between atoms: C_9  and  O_27
REMARK    3  A    between atoms: C_18  and  O_21
REMARK    4  A    between atoms: C_19  and  O_25
REMARK    5  A    between atoms: C_20  and  O_23
REMARK                            x       y       z     vdW  Elec       q    Type
REMARK                         _______ _______ _______ _____ _____    ______ ____
ROOT
ATOM      1  O   UNL     1     -32.332  27.719   2.463  0.00  0.00    -0.450 OA
ATOM      2  O   UNL     1     -29.833  29.364   7.046  0.00  0.00    -0.431 OA
ATOM      3  O   UNL     1     -28.861  29.943   4.918  0.00  0.00    -0.434 OA
ATOM      4  O   UNL     1     -34.094  26.630   5.982  0.00  0.00    -0.286 OA
ATOM      5  C   UNL     1     -32.335  27.757   4.898  0.00  0.00    +0.110 C 
ATOM      6  C   UNL     1     -31.768  28.094   3.657  0.00  0.00    +0.155 C 
ATOM      7  C   UNL     1     -34.165  26.606   3.604  0.00  0.00    +0.077 C 
ATOM      8  C   UNL     1     -30.561  28.890   5.999  0.00  0.00    +0.210 C 
ATOM      9  C   UNL     1     -31.728  28.158   6.094  0.00  0.00    +0.177 C 
ATOM     10  C   UNL     1     -30.007  29.219   4.784  0.00  0.00    +0.183 C 
ATOM     11  C   UNL     1     -33.581  26.970   4.924  0.00  0.00    +0.205 C 
ATOM     12  C   UNL     1     -30.586  28.837   3.592  0.00  0.00    +0.078 C 
ATOM     13  C   UNL     1     -33.504  27.005   2.507  0.00  0.00    +0.183 C 
ATOM     14  C   UNL     1     -28.757  30.031   6.353  0.00  0.00    +0.430 C 
ENDROOT
BRANCH   7  15
ATOM     15  C   UNL     1     -35.428  25.857   3.490  0.00  0.00    +0.012 C 
ATOM     16  C   UNL     1     -36.579  26.492   3.021  0.00  0.00    +0.040 C 
ATOM     17  C   UNL     1     -35.477  24.509   3.852  0.00  0.00    +0.040 C 
ATOM     18  C   UNL     1     -37.775  25.783   2.914  0.00  0.00    +0.175 C 
ATOM     19  C   UNL     1     -36.673  23.800   3.745  0.00  0.00    +0.171 C 
ATOM     20  C   UNL     1     -37.823  24.436   3.276  0.00  0.00    +0.206 C 
BRANCH  18  21
ATOM     21  O   UNL     1     -38.890  26.417   2.455  0.00  0.00    -0.468 OA
ATOM     22  C   UNL     1     -39.004  26.589   1.043  0.00  0.00    +0.253 C 
ENDBRANCH  18  21
BRANCH  20  23
ATOM     23  O   UNL     1     -38.992  23.743   3.171  0.00  0.00    -0.465 OA
ATOM     24  C   UNL     1     -39.188  22.981   1.983  0.00  0.00    +0.253 C 
ENDBRANCH  20  23
BRANCH  19  25
ATOM     25  O   UNL     1     -36.706  22.486   4.102  0.00  0.00    -0.503 OA
ATOM     26  H   UNL     1     -37.420  21.944   3.828  0.00  0.00    +0.292 HD
ENDBRANCH  19  25
ENDBRANCH   7  15
BRANCH   9  27
ATOM     27  O   UNL     1     -32.230  27.862   7.321  0.00  0.00    -0.503 OA
ATOM     28  H   UNL     1     -31.699  27.975   8.084  0.00  0.00    +0.292 HD
ENDBRANCH   9  27
TORSDOF 5
ENDMDL
MODEL 9
REMARK VINA RESULT:      -6.0      4.330      7.678
REMARK  Name = 5316653
REMARK  5 active torsions:
REMARK  status: ('A' for Active; 'I' for Inactive)
REMARK    1  A    between atoms: C_7  and  C_15
REMARK    2  A    between atoms: C_9  and  O_27
REMARK    3  A    between atoms: C_18  and  O_21
REMARK    4  A    between atoms: C_19  and  O_25
REMARK    5  A    between atoms: C_20  and  O_23
REMARK                            x       y       z     vdW  Elec       q    Type
REMARK                         _______ _______ _______ _____ _____    ______ ____
ROOT
ATOM      1  O   UNL     1     -32.166  27.601   2.473  0.00  0.00    -0.450 OA
ATOM      2  O   UNL     1     -29.787  29.456   7.040  0.00  0.00    -0.431 OA
ATOM      3  O   UNL     1     -28.773  29.958   4.912  0.00  0.00    -0.434 OA
ATOM      4  O   UNL     1     -33.997  26.637   5.993  0.00  0.00    -0.286 OA
ATOM      5  C   UNL     1     -32.225  27.737   4.903  0.00  0.00    +0.110 C 
ATOM      6  C   UNL     1     -31.634  28.030   3.663  0.00  0.00    +0.155 C 
ATOM      7  C   UNL     1     -34.014  26.516   3.617  0.00  0.00    +0.077 C 
ATOM      8  C   UNL     1     -30.487  28.933   5.997  0.00  0.00    +0.210 C 
ATOM      9  C   UNL     1     -31.648  28.192   6.095  0.00  0.00    +0.177 C 
ATOM     10  C   UNL     1     -29.908  29.218   4.782  0.00  0.00    +0.183 C 
ATOM     11  C   UNL     1     -33.464  26.940   4.933  0.00  0.00    +0.205 C 
ATOM     12  C   UNL     1     -30.457  28.782   3.594  0.00  0.00    +0.078 C 
ATOM     13  C   UNL     1     -33.333  26.877   2.519  0.00  0.00    +0.183 C 
ATOM     14  C   UNL     1     -28.702  30.105   6.344  0.00  0.00    +0.430 C 
ENDROOT
BRANCH   7  15
ATOM     15  C   UNL     1     -35.267  25.751   3.506  0.00  0.00    +0.012 C 
ATOM     16  C   UNL     1     -35.236  24.355   3.485  0.00  0.00    +0.040 C 
ATOM     17  C   UNL     1     -36.490  26.419   3.420  0.00  0.00    +0.040 C 
ATOM     18  C   UNL     1     -36.423  23.630   3.380  0.00  0.00    +0.175 C 
ATOM     19  C   UNL     1     -37.677  25.695   3.314  0.00  0.00    +0.171 C 
ATOM     20  C   UNL     1     -37.644  24.300   3.294  0.00  0.00    +0.206 C 
BRANCH  18  21
ATOM     21  O   UNL     1     -36.377  22.269   3.361  0.00  0.00    -0.468 OA
ATOM     22  C   UNL     1     -35.659  21.659   2.289  0.00  0.00    +0.253 C 
ENDBRANCH  18  21
BRANCH  20  23
ATOM     23  O   UNL     1     -38.804  23.591   3.190  0.00  0.00    -0.465 OA
ATOM     24  C   UNL     1     -39.286  23.327   1.875  0.00  0.00    +0.253 C 
ENDBRANCH  20  23
BRANCH  19  25
ATOM     25  O   UNL     1     -38.863  26.360   3.230  0.00  0.00    -0.503 OA
ATOM     26  H   UNL     1     -38.933  27.235   3.558  0.00  0.00    +0.292 HD
ENDBRANCH  19  25
ENDBRANCH   7  15
BRANCH   9  27
ATOM     27  O   UNL     1     -32.175  27.941   7.322  0.00  0.00    -0.503 OA
ATOM     28  H   UNL     1     -32.999  27.500   7.397  0.00  0.00    +0.292 HD
ENDBRANCH   9  27
TORSDOF 5
ENDMDL
