MODEL 1
REMARK VINA RESULT:      -6.7      0.000      0.000
REMARK  Name = 5378825
REMARK  5 active torsions:
REMARK  status: ('A' for Active; 'I' for Inactive)
REMARK    1  A    between atoms: C_2  and  C_6
REMARK    2  A    between atoms: C_3  and  C_16
REMARK    3  A    between atoms: C_9  and  N_14
REMARK    4  A    between atoms: N_15  and  C_16
REMARK    5  A    between atoms: N_15  and  N_19
REMARK                            x       y       z     vdW  Elec       q    Type
REMARK                         _______ _______ _______ _____ _____    ______ ____
ROOT
ATOM      1  O   UNL     1     -32.537  27.320   4.784  0.00  0.00    -0.456 OA
ATOM      2  C   UNL     1     -33.345  26.671   5.659  0.00  0.00    +0.145 C 
ATOM      3  C   UNL     1     -31.695  28.080   5.532  0.00  0.00    +0.142 C 
ATOM      4  C   UNL     1     -33.036  27.002   6.953  0.00  0.00    +0.040 C 
ATOM      5  C   UNL     1     -31.960  27.919   6.872  0.00  0.00    +0.038 C 
ENDROOT
BRANCH   2   6
ATOM      6  C   UNL     1     -34.325  25.799   5.058  0.00  0.00    +0.035 C 
ATOM      7  C   UNL     1     -33.922  24.811   4.161  0.00  0.00    +0.005 C 
ATOM      8  C   UNL     1     -35.676  25.945   5.374  0.00  0.00    +0.005 C 
ATOM      9  C   UNL     1     -36.220  24.114   3.896  0.00  0.00    +0.143 C 
ATOM     10  C   UNL     1     -34.870  23.969   3.579  0.00  0.00    +0.024 C 
ATOM     11  C   UNL     1     -36.623  25.103   4.793  0.00  0.00    +0.024 C 
BRANCH   9  14
ATOM     12  O   UNL     1     -36.818  22.138   2.869  0.00  0.00    -0.126 OA
ATOM     13  O   UNL     1     -38.377  23.641   3.231  0.00  0.00    -0.126 OA
ATOM     14  N   UNL     1     -37.185  23.257   3.303  0.00  0.00    +0.058 N 
ENDBRANCH   9  14
ENDBRANCH   2   6
BRANCH   3  15
ATOM     15  C   UNL     1     -30.731  28.873   4.849  0.00  0.00    +0.176 C 
BRANCH  15  16
ATOM     16  N   UNL     1     -29.456  28.572   4.808  0.00  0.00    -0.118 NA
BRANCH  16  19
ATOM     17  O   UNL     1     -27.560  30.311   8.767  0.00  0.00    -0.273 OA
ATOM     18  O   UNL     1     -28.066  26.510   6.247  0.00  0.00    -0.251 OA
ATOM     19  N   UNL     1     -28.803  28.723   5.977  0.00  0.00    -0.181 N 
ATOM     20  N   UNL     1     -27.611  28.216   7.763  0.00  0.00    -0.237 N 
ATOM     21  C   UNL     1     -28.722  29.976   6.663  0.00  0.00    +0.199 C 
ATOM     22  C   UNL     1     -27.899  29.557   7.867  0.00  0.00    +0.251 C 
ATOM     23  C   UNL     1     -28.151  27.674   6.613  0.00  0.00    +0.325 C 
ATOM     24  H   UNL     1     -27.086  27.707   8.423  0.00  0.00    +0.159 HD
ENDBRANCH  16  19
ENDBRANCH  15  16
ENDBRANCH   3  15
TORSDOF 5
ENDMDL
MODEL 2
REMARK VINA RESULT:      -6.7      5.267      8.653
REMARK  Name = 5378825
REMARK  5 active torsions:
REMARK  status: ('A' for Active; 'I' for Inactive)
REMARK    1  A    between atoms: C_2  and  C_6
REMARK    2  A    between atoms: C_3  and  C_16
REMARK    3  A    between atoms: C_9  and  N_14
REMARK    4  A    between atoms: N_15  and  C_16
REMARK    5  A    between atoms: N_15  and  N_19
REMARK                            x       y       z     vdW  Elec       q    Type
REMARK                         _______ _______ _______ _____ _____    ______ ____
ROOT
ATOM      1  O   UNL     1     -35.034  20.627   2.620  0.00  0.00    -0.456 OA
ATOM      2  C   UNL     1     -34.782  20.487   1.295  0.00  0.00    +0.145 C 
ATOM      3  C   UNL     1     -35.558  21.871   2.779  0.00  0.00    +0.142 C 
ATOM      4  C   UNL     1     -35.134  21.617   0.604  0.00  0.00    +0.040 C 
ATOM      5  C   UNL     1     -35.640  22.520   1.570  0.00  0.00    +0.038 C 
ENDROOT
BRANCH   2   6
ATOM      6  C   UNL     1     -34.214  19.217   0.911  0.00  0.00    +0.035 C 
ATOM      7  C   UNL     1     -32.931  18.871   1.331  0.00  0.00    +0.005 C 
ATOM      8  C   UNL     1     -34.950  18.335   0.118  0.00  0.00    +0.005 C 
ATOM      9  C   UNL     1     -33.117  16.762   0.168  0.00  0.00    +0.143 C 
ATOM     10  C   UNL     1     -32.382  17.644   0.960  0.00  0.00    +0.024 C 
ATOM     11  C   UNL     1     -34.401  17.108  -0.253  0.00  0.00    +0.024 C 
BRANCH   9  14
ATOM     12  O   UNL     1     -31.471  15.153   0.302  0.00  0.00    -0.126 OA
ATOM     13  O   UNL     1     -33.167  14.803  -1.047  0.00  0.00    -0.126 OA
ATOM     14  N   UNL     1     -32.558  15.513  -0.211  0.00  0.00    +0.058 N 
ENDBRANCH   9  14
ENDBRANCH   2   6
BRANCH   3  15
ATOM     15  C   UNL     1     -35.916  22.278   4.095  0.00  0.00    +0.176 C 
BRANCH  15  16
ATOM     16  N   UNL     1     -36.753  23.257   4.339  0.00  0.00    -0.118 NA
BRANCH  16  19
ATOM     17  O   UNL     1     -33.918  26.554   6.180  0.00  0.00    -0.273 OA
ATOM     18  O   UNL     1     -37.629  25.881   3.565  0.00  0.00    -0.251 OA
ATOM     19  N   UNL     1     -36.172  24.422   4.688  0.00  0.00    -0.181 N 
ATOM     20  N   UNL     1     -35.807  26.593   4.827  0.00  0.00    -0.237 N 
ATOM     21  C   UNL     1     -35.007  24.489   5.517  0.00  0.00    +0.199 C 
ATOM     22  C   UNL     1     -34.816  25.993   5.569  0.00  0.00    +0.251 C 
ATOM     23  C   UNL     1     -36.657  25.656   4.273  0.00  0.00    +0.325 C 
ATOM     24  H   UNL     1     -35.900  27.566   4.707  0.00  0.00    +0.159 HD
ENDBRANCH  16  19
ENDBRANCH  15  16
ENDBRANCH   3  15
TORSDOF 5
ENDMDL
MODEL 3
REMARK VINA RESULT:      -6.6      2.465      3.195
REMARK  Name = 5378825
REMARK  5 active torsions:
REMARK  status: ('A' for Active; 'I' for Inactive)
REMARK    1  A    between atoms: C_2  and  C_6
REMARK    2  A    between atoms: C_3  and  C_16
REMARK    3  A    between atoms: C_9  and  N_14
REMARK    4  A    between atoms: N_15  and  C_16
REMARK    5  A    between atoms: N_15  and  N_19
REMARK                            x       y       z     vdW  Elec       q    Type
REMARK                         _______ _______ _______ _____ _____    ______ ____
ROOT
ATOM      1  O   UNL     1     -33.813  27.961   3.932  0.00  0.00    -0.456 OA
ATOM      2  C   UNL     1     -34.715  27.195   3.270  0.00  0.00    +0.145 C 
ATOM      3  C   UNL     1     -33.768  29.151   3.276  0.00  0.00    +0.142 C 
ATOM      4  C   UNL     1     -35.247  27.871   2.203  0.00  0.00    +0.040 C 
ATOM      5  C   UNL     1     -34.631  29.146   2.206  0.00  0.00    +0.038 C 
ENDROOT
BRANCH   2   6
ATOM      6  C   UNL     1     -34.914  25.874   3.816  0.00  0.00    +0.035 C 
ATOM      7  C   UNL     1     -35.104  25.707   5.187  0.00  0.00    +0.005 C 
ATOM      8  C   UNL     1     -34.916  24.763   2.971  0.00  0.00    +0.005 C 
ATOM      9  C   UNL     1     -35.298  23.320   4.870  0.00  0.00    +0.143 C 
ATOM     10  C   UNL     1     -35.296  24.430   5.714  0.00  0.00    +0.024 C 
ATOM     11  C   UNL     1     -35.107  23.487   3.499  0.00  0.00    +0.024 C 
BRANCH   9  14
ATOM     12  O   UNL     1     -35.144  21.023   4.729  0.00  0.00    -0.126 OA
ATOM     13  O   UNL     1     -36.005  21.904   6.547  0.00  0.00    -0.126 OA
ATOM     14  N   UNL     1     -35.492  22.020   5.407  0.00  0.00    +0.058 N 
ENDBRANCH   9  14
ENDBRANCH   2   6
BRANCH   3  15
ATOM     15  C   UNL     1     -32.886  30.151   3.773  0.00  0.00    +0.176 C 
BRANCH  15  16
ATOM     16  N   UNL     1     -32.765  30.430   5.048  0.00  0.00    -0.118 NA
BRANCH  16  19
ATOM     17  O   UNL     1     -28.248  29.942   6.332  0.00  0.00    -0.273 OA
ATOM     18  O   UNL     1     -32.472  28.231   6.873  0.00  0.00    -0.251 OA
ATOM     19  N   UNL     1     -31.614  30.015   5.610  0.00  0.00    -0.181 N 
ATOM     20  N   UNL     1     -30.222  28.825   6.840  0.00  0.00    -0.237 N 
ATOM     21  C   UNL     1     -30.355  30.645   5.353  0.00  0.00    +0.199 C 
ATOM     22  C   UNL     1     -29.455  29.785   6.221  0.00  0.00    +0.251 C 
ATOM     23  C   UNL     1     -31.552  28.938   6.486  0.00  0.00    +0.325 C 
ATOM     24  H   UNL     1     -29.868  28.143   7.457  0.00  0.00    +0.159 HD
ENDBRANCH  16  19
ENDBRANCH  15  16
ENDBRANCH   3  15
TORSDOF 5
ENDMDL
MODEL 4
REMARK VINA RESULT:      -6.5      1.354      1.767
REMARK  Name = 5378825
REMARK  5 active torsions:
REMARK  status: ('A' for Active; 'I' for Inactive)
REMARK    1  A    between atoms: C_2  and  C_6
REMARK    2  A    between atoms: C_3  and  C_16
REMARK    3  A    between atoms: C_9  and  N_14
REMARK    4  A    between atoms: N_15  and  C_16
REMARK    5  A    between atoms: N_15  and  N_19
REMARK                            x       y       z     vdW  Elec       q    Type
REMARK                         _______ _______ _______ _____ _____    ______ ____
ROOT
ATOM      1  O   UNL     1     -31.495  27.405   4.204  0.00  0.00    -0.456 OA
ATOM      2  C   UNL     1     -32.814  27.599   3.958  0.00  0.00    +0.145 C 
ATOM      3  C   UNL     1     -30.879  28.589   3.947  0.00  0.00    +0.142 C 
ATOM      4  C   UNL     1     -33.054  28.885   3.549  0.00  0.00    +0.040 C 
ATOM      5  C   UNL     1     -31.795  29.531   3.541  0.00  0.00    +0.038 C 
ENDROOT
BRANCH   2   6
ATOM      6  C   UNL     1     -33.654  26.446   4.175  0.00  0.00    +0.035 C 
ATOM      7  C   UNL     1     -33.794  25.488   3.172  0.00  0.00    +0.005 C 
ATOM      8  C   UNL     1     -34.326  26.290   5.387  0.00  0.00    +0.005 C 
ATOM      9  C   UNL     1     -35.278  24.217   4.593  0.00  0.00    +0.143 C 
ATOM     10  C   UNL     1     -34.606  24.373   3.380  0.00  0.00    +0.024 C 
ATOM     11  C   UNL     1     -35.138  25.175   5.596  0.00  0.00    +0.024 C 
BRANCH   9  14
ATOM     12  O   UNL     1     -36.925  22.753   3.913  0.00  0.00    -0.126 OA
ATOM     13  O   UNL     1     -35.993  22.440   5.876  0.00  0.00    -0.126 OA
ATOM     14  N   UNL     1     -36.105  23.083   4.805  0.00  0.00    +0.058 N 
ENDBRANCH   9  14
ENDBRANCH   2   6
BRANCH   3  15
ATOM     15  C   UNL     1     -29.469  28.659   4.128  0.00  0.00    +0.176 C 
BRANCH  15  16
ATOM     16  N   UNL     1     -28.792  27.777   4.822  0.00  0.00    -0.118 NA
BRANCH  16  19
ATOM     17  O   UNL     1     -27.638  30.383   8.586  0.00  0.00    -0.273 OA
ATOM     18  O   UNL     1     -28.110  26.087   7.043  0.00  0.00    -0.251 OA
ATOM     19  N   UNL     1     -28.417  28.191   6.048  0.00  0.00    -0.181 N 
ATOM     20  N   UNL     1     -27.769  28.103   8.155  0.00  0.00    -0.237 N 
ATOM     21  C   UNL     1     -28.310  29.575   6.398  0.00  0.00    +0.199 C 
ATOM     22  C   UNL     1     -27.866  29.439   7.843  0.00  0.00    +0.251 C 
ATOM     23  C   UNL     1     -28.100  27.310   7.074  0.00  0.00    +0.325 C 
ATOM     24  H   UNL     1     -27.498  27.756   9.035  0.00  0.00    +0.159 HD
ENDBRANCH  16  19
ENDBRANCH  15  16
ENDBRANCH   3  15
TORSDOF 5
ENDMDL
MODEL 5
REMARK VINA RESULT:      -6.5      5.239      8.926
REMARK  Name = 5378825
REMARK  5 active torsions:
REMARK  status: ('A' for Active; 'I' for Inactive)
REMARK    1  A    between atoms: C_2  and  C_6
REMARK    2  A    between atoms: C_3  and  C_16
REMARK    3  A    between atoms: C_9  and  N_14
REMARK    4  A    between atoms: N_15  and  C_16
REMARK    5  A    between atoms: N_15  and  N_19
REMARK                            x       y       z     vdW  Elec       q    Type
REMARK                         _______ _______ _______ _____ _____    ______ ____
ROOT
ATOM      1  O   UNL     1     -34.808  21.239   1.899  0.00  0.00    -0.456 OA
ATOM      2  C   UNL     1     -34.727  20.057   1.240  0.00  0.00    +0.145 C 
ATOM      3  C   UNL     1     -36.133  21.486   2.080  0.00  0.00    +0.142 C 
ATOM      4  C   UNL     1     -35.974  19.543   0.996  0.00  0.00    +0.040 C 
ATOM      5  C   UNL     1     -36.891  20.473   1.543  0.00  0.00    +0.038 C 
ENDROOT
BRANCH   2   6
ATOM      6  C   UNL     1     -33.387  19.610   0.947  0.00  0.00    +0.035 C 
ATOM      7  C   UNL     1     -32.537  20.408   0.182  0.00  0.00    +0.005 C 
ATOM      8  C   UNL     1     -32.942  18.379   1.429  0.00  0.00    +0.005 C 
ATOM      9  C   UNL     1     -30.796  18.745   0.380  0.00  0.00    +0.143 C 
ATOM     10  C   UNL     1     -31.242  19.976  -0.102  0.00  0.00    +0.024 C 
ATOM     11  C   UNL     1     -31.646  17.946   1.145  0.00  0.00    +0.024 C 
BRANCH   9  14
ATOM     12  O   UNL     1     -28.761  18.993  -0.675  0.00  0.00    -0.126 OA
ATOM     13  O   UNL     1     -29.065  17.240   0.610  0.00  0.00    -0.126 OA
ATOM     14  N   UNL     1     -29.478  18.304   0.091  0.00  0.00    +0.058 N 
ENDBRANCH   9  14
ENDBRANCH   2   6
BRANCH   3  15
ATOM     15  C   UNL     1     -36.500  22.683   2.757  0.00  0.00    +0.176 C 
BRANCH  15  16
ATOM     16  N   UNL     1     -36.501  22.796   4.062  0.00  0.00    -0.118 NA
BRANCH  16  19
ATOM     17  O   UNL     1     -34.317  26.523   5.967  0.00  0.00    -0.273 OA
ATOM     18  O   UNL     1     -38.214  25.102   4.006  0.00  0.00    -0.251 OA
ATOM     19  N   UNL     1     -36.193  24.024   4.523  0.00  0.00    -0.181 N 
ATOM     20  N   UNL     1     -36.410  26.162   5.024  0.00  0.00    -0.237 N 
ATOM     21  C   UNL     1     -34.929  24.334   5.118  0.00  0.00    +0.199 C 
ATOM     22  C   UNL     1     -35.147  25.802   5.433  0.00  0.00    +0.251 C 
ATOM     23  C   UNL     1     -37.079  25.093   4.462  0.00  0.00    +0.325 C 
ATOM     24  H   UNL     1     -36.789  27.065   5.121  0.00  0.00    +0.159 HD
ENDBRANCH  16  19
ENDBRANCH  15  16
ENDBRANCH   3  15
TORSDOF 5
ENDMDL
MODEL 6
REMARK VINA RESULT:      -6.5      1.322      2.471
REMARK  Name = 5378825
REMARK  5 active torsions:
REMARK  status: ('A' for Active; 'I' for Inactive)
REMARK    1  A    between atoms: C_2  and  C_6
REMARK    2  A    between atoms: C_3  and  C_16
REMARK    3  A    between atoms: C_9  and  N_14
REMARK    4  A    between atoms: N_15  and  C_16
REMARK    5  A    between atoms: N_15  and  N_19
REMARK                            x       y       z     vdW  Elec       q    Type
REMARK                         _______ _______ _______ _____ _____    ______ ____
ROOT
ATOM      1  O   UNL     1     -32.374  27.972   5.625  0.00  0.00    -0.456 OA
ATOM      2  C   UNL     1     -33.054  27.692   4.486  0.00  0.00    +0.145 C 
ATOM      3  C   UNL     1     -31.712  29.138   5.399  0.00  0.00    +0.142 C 
ATOM      4  C   UNL     1     -32.839  28.655   3.535  0.00  0.00    +0.040 C 
ATOM      5  C   UNL     1     -31.965  29.598   4.128  0.00  0.00    +0.038 C 
ENDROOT
BRANCH   2   6
ATOM      6  C   UNL     1     -33.832  26.478   4.520  0.00  0.00    +0.035 C 
ATOM      7  C   UNL     1     -34.636  26.196   5.624  0.00  0.00    +0.005 C 
ATOM      8  C   UNL     1     -33.782  25.586   3.449  0.00  0.00    +0.005 C 
ATOM      9  C   UNL     1     -35.338  24.130   4.586  0.00  0.00    +0.143 C 
ATOM     10  C   UNL     1     -35.388  25.022   5.658  0.00  0.00    +0.024 C 
ATOM     11  C   UNL     1     -34.534  24.412   3.482  0.00  0.00    +0.024 C 
BRANCH   9  14
ATOM     12  O   UNL     1     -36.981  22.749   3.744  0.00  0.00    -0.126 OA
ATOM     13  O   UNL     1     -35.879  22.095   5.526  0.00  0.00    -0.126 OA
ATOM     14  N   UNL     1     -36.103  22.934   4.621  0.00  0.00    +0.058 N 
ENDBRANCH   9  14
ENDBRANCH   2   6
BRANCH   3  15
ATOM     15  C   UNL     1     -30.911  29.663   6.451  0.00  0.00    +0.176 C 
BRANCH  15  16
ATOM     16  N   UNL     1     -29.634  29.927   6.315  0.00  0.00    -0.118 NA
BRANCH  16  19
ATOM     17  O   UNL     1     -27.150  25.923   6.618  0.00  0.00    -0.273 OA
ATOM     18  O   UNL     1     -28.045  29.909   8.709  0.00  0.00    -0.251 OA
ATOM     19  N   UNL     1     -28.808  28.939   6.711  0.00  0.00    -0.181 N 
ATOM     20  N   UNL     1     -27.359  27.821   7.943  0.00  0.00    -0.237 N 
ATOM     21  C   UNL     1     -28.620  27.737   5.956  0.00  0.00    +0.199 C 
ATOM     22  C   UNL     1     -27.623  27.026   6.852  0.00  0.00    +0.251 C 
ATOM     23  C   UNL     1     -28.071  29.003   7.887  0.00  0.00    +0.325 C 
ATOM     24  H   UNL     1     -26.742  27.579   8.671  0.00  0.00    +0.159 HD
ENDBRANCH  16  19
ENDBRANCH  15  16
ENDBRANCH   3  15
TORSDOF 5
ENDMDL
MODEL 7
REMARK VINA RESULT:      -6.4      5.191      8.387
REMARK  Name = 5378825
REMARK  5 active torsions:
REMARK  status: ('A' for Active; 'I' for Inactive)
REMARK    1  A    between atoms: C_2  and  C_6
REMARK    2  A    between atoms: C_3  and  C_16
REMARK    3  A    between atoms: C_9  and  N_14
REMARK    4  A    between atoms: N_15  and  C_16
REMARK    5  A    between atoms: N_15  and  N_19
REMARK                            x       y       z     vdW  Elec       q    Type
REMARK                         _______ _______ _______ _____ _____    ______ ____
ROOT
ATOM      1  O   UNL     1     -35.361  21.671   1.711  0.00  0.00    -0.456 OA
ATOM      2  C   UNL     1     -34.399  21.686   0.755  0.00  0.00    +0.145 C 
ATOM      3  C   UNL     1     -36.089  22.805   1.537  0.00  0.00    +0.142 C 
ATOM      4  C   UNL     1     -34.498  22.808  -0.026  0.00  0.00    +0.040 C 
ATOM      5  C   UNL     1     -35.599  23.538   0.482  0.00  0.00    +0.038 C 
ENDROOT
BRANCH   2   6
ATOM      6  C   UNL     1     -33.507  20.552   0.766  0.00  0.00    +0.035 C 
ATOM      7  C   UNL     1     -33.858  19.395   1.461  0.00  0.00    +0.005 C 
ATOM      8  C   UNL     1     -32.292  20.613   0.083  0.00  0.00    +0.005 C 
ATOM      9  C   UNL     1     -31.782  18.360   0.788  0.00  0.00    +0.143 C 
ATOM     10  C   UNL     1     -32.996  18.299   1.472  0.00  0.00    +0.024 C 
ATOM     11  C   UNL     1     -31.430  19.517   0.094  0.00  0.00    +0.024 C 
BRANCH   9  14
ATOM     12  O   UNL     1     -29.747  17.386   1.268  0.00  0.00    -0.126 OA
ATOM     13  O   UNL     1     -31.308  16.147   0.346  0.00  0.00    -0.126 OA
ATOM     14  N   UNL     1     -30.903  17.244   0.801  0.00  0.00    +0.058 N 
ENDBRANCH   9  14
ENDBRANCH   2   6
BRANCH   3  15
ATOM     15  C   UNL     1     -37.178  23.039   2.424  0.00  0.00    +0.176 C 
BRANCH  15  16
ATOM     16  N   UNL     1     -37.070  22.956   3.727  0.00  0.00    -0.118 NA
BRANCH  16  19
ATOM     17  O   UNL     1     -35.069  27.079   4.864  0.00  0.00    -0.273 OA
ATOM     18  O   UNL     1     -35.173  22.599   5.856  0.00  0.00    -0.251 OA
ATOM     19  N   UNL     1     -36.323  23.923   4.294  0.00  0.00    -0.181 N 
ATOM     20  N   UNL     1     -34.859  24.894   5.629  0.00  0.00    -0.237 N 
ATOM     21  C   UNL     1     -36.390  25.293   3.885  0.00  0.00    +0.199 C 
ATOM     22  C   UNL     1     -35.370  25.894   4.834  0.00  0.00    +0.251 C 
ATOM     23  C   UNL     1     -35.423  23.672   5.322  0.00  0.00    +0.325 C 
ATOM     24  H   UNL     1     -34.178  25.032   6.326  0.00  0.00    +0.159 HD
ENDBRANCH  16  19
ENDBRANCH  15  16
ENDBRANCH   3  15
TORSDOF 5
ENDMDL
MODEL 8
REMARK VINA RESULT:      -6.4      4.758      8.212
REMARK  Name = 5378825
REMARK  5 active torsions:
REMARK  status: ('A' for Active; 'I' for Inactive)
REMARK    1  A    between atoms: C_2  and  C_6
REMARK    2  A    between atoms: C_3  and  C_16
REMARK    3  A    between atoms: C_9  and  N_14
REMARK    4  A    between atoms: N_15  and  C_16
REMARK    5  A    between atoms: N_15  and  N_19
REMARK                            x       y       z     vdW  Elec       q    Type
REMARK                         _______ _______ _______ _____ _____    ______ ____
ROOT
ATOM      1  O   UNL     1     -36.729  22.280   2.025  0.00  0.00    -0.456 OA
ATOM      2  C   UNL     1     -37.106  21.128   1.418  0.00  0.00    +0.145 C 
ATOM      3  C   UNL     1     -37.857  23.026   2.165  0.00  0.00    +0.142 C 
ATOM      4  C   UNL     1     -38.454  21.122   1.168  0.00  0.00    +0.040 C 
ATOM      5  C   UNL     1     -38.945  22.357   1.655  0.00  0.00    +0.038 C 
ENDROOT
BRANCH   2   6
ATOM      6  C   UNL     1     -36.041  20.187   1.174  0.00  0.00    +0.035 C 
ATOM      7  C   UNL     1     -34.863  20.259   1.918  0.00  0.00    +0.005 C 
ATOM      8  C   UNL     1     -36.188  19.203   0.196  0.00  0.00    +0.005 C 
ATOM      9  C   UNL     1     -33.980  18.366   0.704  0.00  0.00    +0.143 C 
ATOM     10  C   UNL     1     -33.832  19.349   1.682  0.00  0.00    +0.024 C 
ATOM     11  C   UNL     1     -35.157  18.294  -0.040  0.00  0.00    +0.024 C 
BRANCH   9  14
ATOM     12  O   UNL     1     -31.945  17.424   1.241  0.00  0.00    -0.126 OA
ATOM     13  O   UNL     1     -33.018  16.663  -0.517  0.00  0.00    -0.126 OA
ATOM     14  N   UNL     1     -32.930  17.441   0.464  0.00  0.00    +0.058 N 
ENDBRANCH   9  14
ENDBRANCH   2   6
BRANCH   3  15
ATOM     15  C   UNL     1     -37.738  24.303   2.783  0.00  0.00    +0.176 C 
BRANCH  15  16
ATOM     16  N   UNL     1     -37.781  24.477   4.081  0.00  0.00    -0.118 NA
BRANCH  16  19
ATOM     17  O   UNL     1     -33.940  26.735   5.645  0.00  0.00    -0.273 OA
ATOM     18  O   UNL     1     -36.019  22.650   5.426  0.00  0.00    -0.251 OA
ATOM     19  N   UNL     1     -36.599  24.787   4.648  0.00  0.00    -0.181 N 
ATOM     20  N   UNL     1     -34.690  24.537   5.725  0.00  0.00    -0.237 N 
ATOM     21  C   UNL     1     -36.063  26.115   4.644  0.00  0.00    +0.199 C 
ATOM     22  C   UNL     1     -34.766  25.870   5.393  0.00  0.00    +0.251 C 
ATOM     23  C   UNL     1     -35.799  23.845   5.281  0.00  0.00    +0.325 C 
ATOM     24  H   UNL     1     -33.940  24.128   6.216  0.00  0.00    +0.159 HD
ENDBRANCH  16  19
ENDBRANCH  15  16
ENDBRANCH   3  15
TORSDOF 5
ENDMDL
MODEL 9
REMARK VINA RESULT:      -6.3      6.485      9.436
REMARK  Name = 5378825
REMARK  5 active torsions:
REMARK  status: ('A' for Active; 'I' for Inactive)
REMARK    1  A    between atoms: C_2  and  C_6
REMARK    2  A    between atoms: C_3  and  C_16
REMARK    3  A    between atoms: C_9  and  N_14
REMARK    4  A    between atoms: N_15  and  C_16
REMARK    5  A    between atoms: N_15  and  N_19
REMARK                            x       y       z     vdW  Elec       q    Type
REMARK                         _______ _______ _______ _____ _____    ______ ____
ROOT
ATOM      1  O   UNL     1     -34.924  20.943   1.839  0.00  0.00    -0.456 OA
ATOM      2  C   UNL     1     -34.087  21.055   0.779  0.00  0.00    +0.145 C 
ATOM      3  C   UNL     1     -35.828  21.952   1.721  0.00  0.00    +0.142 C 
ATOM      4  C   UNL     1     -34.438  22.116  -0.016  0.00  0.00    +0.040 C 
ATOM      5  C   UNL     1     -35.572  22.701   0.597  0.00  0.00    +0.038 C 
ENDROOT
BRANCH   2   6
ATOM      6  C   UNL     1     -33.040  20.064   0.717  0.00  0.00    +0.035 C 
ATOM      7  C   UNL     1     -31.858  20.340   0.030  0.00  0.00    +0.005 C 
ATOM      8  C   UNL     1     -33.209  18.830   1.346  0.00  0.00    +0.005 C 
ATOM      9  C   UNL     1     -31.016  18.148   0.599  0.00  0.00    +0.143 C 
ATOM     10  C   UNL     1     -30.847  19.382  -0.030  0.00  0.00    +0.024 C 
ATOM     11  C   UNL     1     -32.198  17.872   1.286  0.00  0.00    +0.024 C 
BRANCH   9  14
ATOM     12  O   UNL     1     -28.791  17.553   0.494  0.00  0.00    -0.126 OA
ATOM     13  O   UNL     1     -30.299  15.958   0.530  0.00  0.00    -0.126 OA
ATOM     14  N   UNL     1     -29.986  17.173   0.537  0.00  0.00    +0.058 N 
ENDBRANCH   9  14
ENDBRANCH   2   6
BRANCH   3  15
ATOM     15  C   UNL     1     -36.834  22.063   2.721  0.00  0.00    +0.176 C 
BRANCH  15  16
ATOM     16  N   UNL     1     -36.709  22.823   3.782  0.00  0.00    -0.118 NA
BRANCH  16  19
ATOM     17  O   UNL     1     -39.242  26.574   2.437  0.00  0.00    -0.273 OA
ATOM     18  O   UNL     1     -35.967  25.138   5.312  0.00  0.00    -0.251 OA
ATOM     19  N   UNL     1     -37.233  24.057   3.657  0.00  0.00    -0.181 N 
ATOM     20  N   UNL     1     -37.579  26.207   4.018  0.00  0.00    -0.237 N 
ATOM     21  C   UNL     1     -38.260  24.371   2.710  0.00  0.00    +0.199 C 
ATOM     22  C   UNL     1     -38.445  25.846   3.012  0.00  0.00    +0.251 C 
ATOM     23  C   UNL     1     -36.820  25.131   4.436  0.00  0.00    +0.325 C 
ATOM     24  H   UNL     1     -37.508  27.114   4.392  0.00  0.00    +0.159 HD
ENDBRANCH  16  19
ENDBRANCH  15  16
ENDBRANCH   3  15
TORSDOF 5
ENDMDL
