MODEL 1
REMARK VINA RESULT:      -5.9      0.000      0.000
REMARK  Name = 5492310
REMARK  6 active torsions:
REMARK  status: ('A' for Active; 'I' for Inactive)
REMARK    1  A    between atoms: C_3  and  C_12
REMARK    2  A    between atoms: C_6  and  O_22
REMARK    3  A    between atoms: C_8  and  O_24
REMARK    4  A    between atoms: C_10  and  O_26
REMARK    5  A    between atoms: C_15  and  O_18
REMARK    6  A    between atoms: C_16  and  O_20
REMARK                            x       y       z     vdW  Elec       q    Type
REMARK                         _______ _______ _______ _____ _____    ______ ____
ROOT
ATOM      1  O   UNL     1     -37.613  23.201   2.362  0.00  0.00    -0.450 OA
ATOM      2  O   UNL     1     -35.157  20.602   4.315  0.00  0.00    -0.283 OA
ATOM      3  C   UNL     1     -37.485  21.882   1.954  0.00  0.00    +0.182 A 
ATOM      4  C   UNL     1     -36.025  22.789   4.151  0.00  0.00    +0.110 A 
ATOM      5  C   UNL     1     -36.883  23.626   3.442  0.00  0.00    +0.155 A 
ATOM      6  C   UNL     1     -36.700  20.972   2.557  0.00  0.00    +0.208 A 
ATOM      7  C   UNL     1     -35.892  21.386   3.730  0.00  0.00    +0.238 A 
ATOM      8  C   UNL     1     -35.306  23.278   5.245  0.00  0.00    +0.143 C 
ATOM      9  C   UNL     1     -37.028  24.960   3.823  0.00  0.00    +0.074 C 
ATOM     10  C   UNL     1     -36.312  25.452   4.915  0.00  0.00    +0.140 C 
ATOM     11  C   UNL     1     -35.453  24.613   5.624  0.00  0.00    +0.073 C 
ENDROOT
BRANCH   3  12
ATOM     12  C   UNL     1     -38.324  21.558   0.787  0.00  0.00    +0.044 C 
ATOM     13  C   UNL     1     -39.680  21.271   0.959  0.00  0.00    +0.040 C 
ATOM     14  C   UNL     1     -37.766  21.535  -0.492  0.00  0.00    +0.040 C 
ATOM     15  C   UNL     1     -38.560  21.228  -1.596  0.00  0.00    +0.142 C 
ATOM     16  C   UNL     1     -40.474  20.964  -0.146  0.00  0.00    +0.142 C 
ATOM     17  C   UNL     1     -39.914  20.943  -1.423  0.00  0.00    +0.074 C 
BRANCH  15  18
ATOM     18  O   UNL     1     -38.014  21.207  -2.843  0.00  0.00    -0.471 OA
ATOM     19  C   UNL     1     -36.606  21.418  -2.938  0.00  0.00    +0.252 C 
ENDBRANCH  15  18
BRANCH  16  20
ATOM     20  O   UNL     1     -41.795  20.686   0.023  0.00  0.00    -0.471 OA
ATOM     21  C   UNL     1     -42.579  20.510  -1.156  0.00  0.00    +0.252 C 
ENDBRANCH  16  20
ENDBRANCH   3  12
BRANCH   6  22
ATOM     22  O   UNL     1     -36.620  19.658   2.147  0.00  0.00    -0.501 OA
ATOM     23  H   UNL     1     -36.307  19.454   1.288  0.00  0.00    +0.292 HD
ENDBRANCH   6  22
BRANCH   8  24
ATOM     24  O   UNL     1     -34.456  22.501   5.971  0.00  0.00    -0.505 OA
ATOM     25  H   UNL     1     -34.352  21.594   5.759  0.00  0.00    +0.292 HD
ENDBRANCH   8  24
BRANCH  10  26
ATOM     26  O   UNL     1     -36.453  26.754   5.288  0.00  0.00    -0.505 OA
ATOM     27  H   UNL     1     -36.324  27.002   6.183  0.00  0.00    +0.292 HD
ENDBRANCH  10  26
TORSDOF 6
ENDMDL
MODEL 2
REMARK VINA RESULT:      -5.9      0.025      2.485
REMARK  Name = 5492310
REMARK  6 active torsions:
REMARK  status: ('A' for Active; 'I' for Inactive)
REMARK    1  A    between atoms: C_3  and  C_12
REMARK    2  A    between atoms: C_6  and  O_22
REMARK    3  A    between atoms: C_8  and  O_24
REMARK    4  A    between atoms: C_10  and  O_26
REMARK    5  A    between atoms: C_15  and  O_18
REMARK    6  A    between atoms: C_16  and  O_20
REMARK                            x       y       z     vdW  Elec       q    Type
REMARK                         _______ _______ _______ _____ _____    ______ ____
ROOT
ATOM      1  O   UNL     1     -37.616  23.205   2.353  0.00  0.00    -0.450 OA
ATOM      2  O   UNL     1     -35.166  20.600   4.305  0.00  0.00    -0.283 OA
ATOM      3  C   UNL     1     -37.491  21.886   1.945  0.00  0.00    +0.182 A 
ATOM      4  C   UNL     1     -36.029  22.788   4.142  0.00  0.00    +0.110 A 
ATOM      5  C   UNL     1     -36.885  23.628   3.433  0.00  0.00    +0.155 A 
ATOM      6  C   UNL     1     -36.708  20.974   2.547  0.00  0.00    +0.208 A 
ATOM      7  C   UNL     1     -35.899  21.385   3.720  0.00  0.00    +0.238 A 
ATOM      8  C   UNL     1     -35.309  23.275   5.236  0.00  0.00    +0.143 C 
ATOM      9  C   UNL     1     -37.028  24.962   3.815  0.00  0.00    +0.074 C 
ATOM     10  C   UNL     1     -36.311  25.452   4.907  0.00  0.00    +0.140 C 
ATOM     11  C   UNL     1     -35.453  24.610   5.616  0.00  0.00    +0.073 C 
ENDROOT
BRANCH   3  12
ATOM     12  C   UNL     1     -38.331  21.564   0.778  0.00  0.00    +0.044 C 
ATOM     13  C   UNL     1     -37.776  21.557  -0.503  0.00  0.00    +0.040 C 
ATOM     14  C   UNL     1     -39.684  21.265   0.950  0.00  0.00    +0.040 C 
ATOM     15  C   UNL     1     -40.478  20.960  -0.154  0.00  0.00    +0.142 C 
ATOM     16  C   UNL     1     -38.571  21.252  -1.608  0.00  0.00    +0.142 C 
ATOM     17  C   UNL     1     -39.923  20.953  -1.433  0.00  0.00    +0.074 C 
BRANCH  15  18
ATOM     18  O   UNL     1     -41.798  20.668   0.016  0.00  0.00    -0.471 OA
ATOM     19  C   UNL     1     -42.565  20.424  -1.161  0.00  0.00    +0.252 C 
ENDBRANCH  15  18
BRANCH  16  20
ATOM     20  O   UNL     1     -38.029  21.245  -2.855  0.00  0.00    -0.471 OA
ATOM     21  C   UNL     1     -36.619  21.444  -2.953  0.00  0.00    +0.252 C 
ENDBRANCH  16  20
ENDBRANCH   3  12
BRANCH   6  22
ATOM     22  O   UNL     1     -36.631  19.660   2.137  0.00  0.00    -0.501 OA
ATOM     23  H   UNL     1     -35.989  19.404   1.503  0.00  0.00    +0.292 HD
ENDBRANCH   6  22
BRANCH   8  24
ATOM     24  O   UNL     1     -34.460  22.496   5.962  0.00  0.00    -0.505 OA
ATOM     25  H   UNL     1     -34.089  21.725   5.580  0.00  0.00    +0.292 HD
ENDBRANCH   8  24
BRANCH  10  26
ATOM     26  O   UNL     1     -36.449  26.753   5.281  0.00  0.00    -0.505 OA
ATOM     27  H   UNL     1     -36.601  26.970   6.180  0.00  0.00    +0.292 HD
ENDBRANCH  10  26
TORSDOF 6
ENDMDL
MODEL 3
REMARK VINA RESULT:      -5.9      3.608      7.313
REMARK  Name = 5492310
REMARK  6 active torsions:
REMARK  status: ('A' for Active; 'I' for Inactive)
REMARK    1  A    between atoms: C_3  and  C_12
REMARK    2  A    between atoms: C_6  and  O_22
REMARK    3  A    between atoms: C_8  and  O_24
REMARK    4  A    between atoms: C_10  and  O_26
REMARK    5  A    between atoms: C_15  and  O_18
REMARK    6  A    between atoms: C_16  and  O_20
REMARK                            x       y       z     vdW  Elec       q    Type
REMARK                         _______ _______ _______ _____ _____    ______ ____
ROOT
ATOM      1  O   UNL     1     -34.050  19.993   1.644  0.00  0.00    -0.450 OA
ATOM      2  O   UNL     1     -37.007  17.951  -0.276  0.00  0.00    -0.283 OA
ATOM      3  C   UNL     1     -35.344  20.485   1.581  0.00  0.00    +0.182 A 
ATOM      4  C   UNL     1     -34.738  18.052   0.360  0.00  0.00    +0.110 A 
ATOM      5  C   UNL     1     -33.773  18.797   1.033  0.00  0.00    +0.155 A 
ATOM      6  C   UNL     1     -36.367  19.860   0.972  0.00  0.00    +0.208 A 
ATOM      7  C   UNL     1     -36.116  18.563   0.298  0.00  0.00    +0.238 A 
ATOM      8  C   UNL     1     -34.399  16.838  -0.244  0.00  0.00    +0.143 C 
ATOM      9  C   UNL     1     -32.460  18.332   1.109  0.00  0.00    +0.074 C 
ATOM     10  C   UNL     1     -32.117  17.121   0.507  0.00  0.00    +0.140 C 
ATOM     11  C   UNL     1     -33.084  16.376  -0.168  0.00  0.00    +0.073 C 
ENDROOT
BRANCH   3  12
ATOM     12  C   UNL     1     -35.504  21.773   2.279  0.00  0.00    +0.044 C 
ATOM     13  C   UNL     1     -35.454  22.969   1.561  0.00  0.00    +0.040 C 
ATOM     14  C   UNL     1     -35.704  21.800   3.660  0.00  0.00    +0.040 C 
ATOM     15  C   UNL     1     -35.856  23.019   4.321  0.00  0.00    +0.142 C 
ATOM     16  C   UNL     1     -35.606  24.188   2.221  0.00  0.00    +0.142 C 
ATOM     17  C   UNL     1     -35.807  24.213   3.601  0.00  0.00    +0.074 C 
BRANCH  15  18
ATOM     18  O   UNL     1     -36.051  23.044   5.668  0.00  0.00    -0.471 OA
ATOM     19  C   UNL     1     -35.438  22.007   6.432  0.00  0.00    +0.252 C 
ENDBRANCH  15  18
BRANCH  16  20
ATOM     20  O   UNL     1     -35.558  25.352   1.519  0.00  0.00    -0.471 OA
ATOM     21  C   UNL     1     -35.923  26.545   2.212  0.00  0.00    +0.252 C 
ENDBRANCH  16  20
ENDBRANCH   3  12
BRANCH   6  22
ATOM     22  O   UNL     1     -37.652  20.360   0.956  0.00  0.00    -0.501 OA
ATOM     23  H   UNL     1     -37.886  21.030   0.344  0.00  0.00    +0.292 HD
ENDBRANCH   6  22
BRANCH   8  24
ATOM     24  O   UNL     1     -35.304  16.072  -0.913  0.00  0.00    -0.505 OA
ATOM     25  H   UNL     1     -36.090  15.794  -0.485  0.00  0.00    +0.292 HD
ENDBRANCH   8  24
BRANCH  10  26
ATOM     26  O   UNL     1     -30.836  16.666   0.579  0.00  0.00    -0.505 OA
ATOM     27  H   UNL     1     -30.139  17.163   0.196  0.00  0.00    +0.292 HD
ENDBRANCH  10  26
TORSDOF 6
ENDMDL
MODEL 4
REMARK VINA RESULT:      -5.8      3.601      7.119
REMARK  Name = 5492310
REMARK  6 active torsions:
REMARK  status: ('A' for Active; 'I' for Inactive)
REMARK    1  A    between atoms: C_3  and  C_12
REMARK    2  A    between atoms: C_6  and  O_22
REMARK    3  A    between atoms: C_8  and  O_24
REMARK    4  A    between atoms: C_10  and  O_26
REMARK    5  A    between atoms: C_15  and  O_18
REMARK    6  A    between atoms: C_16  and  O_20
REMARK                            x       y       z     vdW  Elec       q    Type
REMARK                         _______ _______ _______ _____ _____    ______ ____
ROOT
ATOM      1  O   UNL     1     -34.058  20.003   1.641  0.00  0.00    -0.450 OA
ATOM      2  O   UNL     1     -37.006  17.944  -0.276  0.00  0.00    -0.283 OA
ATOM      3  C   UNL     1     -35.355  20.489   1.576  0.00  0.00    +0.182 A 
ATOM      4  C   UNL     1     -34.738  18.056   0.361  0.00  0.00    +0.110 A 
ATOM      5  C   UNL     1     -33.776  18.807   1.033  0.00  0.00    +0.155 A 
ATOM      6  C   UNL     1     -36.375  19.858   0.968  0.00  0.00    +0.208 A 
ATOM      7  C   UNL     1     -36.118  18.561   0.297  0.00  0.00    +0.238 A 
ATOM      8  C   UNL     1     -34.393  16.842  -0.240  0.00  0.00    +0.143 C 
ATOM      9  C   UNL     1     -32.461  18.348   1.110  0.00  0.00    +0.074 C 
ATOM     10  C   UNL     1     -32.113  17.137   0.512  0.00  0.00    +0.140 C 
ATOM     11  C   UNL     1     -33.076  16.386  -0.162  0.00  0.00    +0.073 C 
ENDROOT
BRANCH   3  12
ATOM     12  C   UNL     1     -35.520  21.778   2.271  0.00  0.00    +0.044 C 
ATOM     13  C   UNL     1     -35.713  21.808   3.653  0.00  0.00    +0.040 C 
ATOM     14  C   UNL     1     -35.486  22.972   1.548  0.00  0.00    +0.040 C 
ATOM     15  C   UNL     1     -35.642  24.192   2.206  0.00  0.00    +0.142 C 
ATOM     16  C   UNL     1     -35.869  23.028   4.311  0.00  0.00    +0.142 C 
ATOM     17  C   UNL     1     -35.834  24.220   3.587  0.00  0.00    +0.074 C 
BRANCH  15  18
ATOM     18  O   UNL     1     -35.608  25.355   1.499  0.00  0.00    -0.471 OA
ATOM     19  C   UNL     1     -36.111  26.522   2.146  0.00  0.00    +0.252 C 
ENDBRANCH  15  18
BRANCH  16  20
ATOM     20  O   UNL     1     -36.056  23.056   5.658  0.00  0.00    -0.471 OA
ATOM     21  C   UNL     1     -35.440  22.020   6.421  0.00  0.00    +0.252 C 
ENDBRANCH  16  20
ENDBRANCH   3  12
BRANCH   6  22
ATOM     22  O   UNL     1     -37.661  20.353   0.950  0.00  0.00    -0.501 OA
ATOM     23  H   UNL     1     -37.934  20.973   1.598  0.00  0.00    +0.292 HD
ENDBRANCH   6  22
BRANCH   8  24
ATOM     24  O   UNL     1     -35.294  16.071  -0.907  0.00  0.00    -0.505 OA
ATOM     25  H   UNL     1     -35.709  16.398  -1.681  0.00  0.00    +0.292 HD
ENDBRANCH   8  24
BRANCH  10  26
ATOM     26  O   UNL     1     -30.830  16.687   0.585  0.00  0.00    -0.505 OA
ATOM     27  H   UNL     1     -30.557  15.960   0.061  0.00  0.00    +0.292 HD
ENDBRANCH  10  26
TORSDOF 6
ENDMDL
MODEL 5
REMARK VINA RESULT:      -5.8      3.016      7.842
REMARK  Name = 5492310
REMARK  6 active torsions:
REMARK  status: ('A' for Active; 'I' for Inactive)
REMARK    1  A    between atoms: C_3  and  C_12
REMARK    2  A    between atoms: C_6  and  O_22
REMARK    3  A    between atoms: C_8  and  O_24
REMARK    4  A    between atoms: C_10  and  O_26
REMARK    5  A    between atoms: C_15  and  O_18
REMARK    6  A    between atoms: C_16  and  O_20
REMARK                            x       y       z     vdW  Elec       q    Type
REMARK                         _______ _______ _______ _____ _____    ______ ____
ROOT
ATOM      1  O   UNL     1     -34.824  23.625   2.802  0.00  0.00    -0.450 OA
ATOM      2  O   UNL     1     -38.882  23.627   3.167  0.00  0.00    -0.283 OA
ATOM      3  C   UNL     1     -35.508  24.736   3.272  0.00  0.00    +0.182 A 
ATOM      4  C   UNL     1     -36.934  22.451   2.548  0.00  0.00    +0.110 A 
ATOM      5  C   UNL     1     -35.546  22.514   2.448  0.00  0.00    +0.155 A 
ATOM      6  C   UNL     1     -36.842  24.801   3.424  0.00  0.00    +0.208 A 
ATOM      7  C   UNL     1     -37.664  23.623   3.054  0.00  0.00    +0.238 A 
ATOM      8  C   UNL     1     -37.617  21.292   2.172  0.00  0.00    +0.143 C 
ATOM      9  C   UNL     1     -34.830  21.415   1.974  0.00  0.00    +0.074 C 
ATOM     10  C   UNL     1     -35.508  20.255   1.598  0.00  0.00    +0.140 C 
ATOM     11  C   UNL     1     -36.899  20.194   1.696  0.00  0.00    +0.073 C 
ENDROOT
BRANCH   3  12
ATOM     12  C   UNL     1     -34.614  25.856   3.618  0.00  0.00    +0.044 C 
ATOM     13  C   UNL     1     -34.063  25.941   4.898  0.00  0.00    +0.040 C 
ATOM     14  C   UNL     1     -34.318  26.834   2.668  0.00  0.00    +0.040 C 
ATOM     15  C   UNL     1     -33.472  27.894   2.996  0.00  0.00    +0.142 C 
ATOM     16  C   UNL     1     -33.217  27.000   5.226  0.00  0.00    +0.142 C 
ATOM     17  C   UNL     1     -32.922  27.976   4.274  0.00  0.00    +0.074 C 
BRANCH  15  18
ATOM     18  O   UNL     1     -33.184  28.847   2.067  0.00  0.00    -0.471 OA
ATOM     19  C   UNL     1     -32.209  29.825   2.423  0.00  0.00    +0.252 C 
ENDBRANCH  15  18
BRANCH  16  20
ATOM     20  O   UNL     1     -32.679  27.081   6.473  0.00  0.00    -0.471 OA
ATOM     21  C   UNL     1     -31.840  28.201   6.748  0.00  0.00    +0.252 C 
ENDBRANCH  16  20
ENDBRANCH   3  12
BRANCH   6  22
ATOM     22  O   UNL     1     -37.489  25.910   3.925  0.00  0.00    -0.501 OA
ATOM     23  H   UNL     1     -37.086  26.755   3.865  0.00  0.00    +0.292 HD
ENDBRANCH   6  22
BRANCH   8  24
ATOM     24  O   UNL     1     -38.972  21.180   2.250  0.00  0.00    -0.505 OA
ATOM     25  H   UNL     1     -39.476  21.039   1.473  0.00  0.00    +0.292 HD
ENDBRANCH   8  24
BRANCH  10  26
ATOM     26  O   UNL     1     -34.812  19.181   1.133  0.00  0.00    -0.505 OA
ATOM     27  H   UNL     1     -34.737  19.034   0.211  0.00  0.00    +0.292 HD
ENDBRANCH  10  26
TORSDOF 6
ENDMDL
MODEL 6
REMARK VINA RESULT:      -5.8      3.006      7.911
REMARK  Name = 5492310
REMARK  6 active torsions:
REMARK  status: ('A' for Active; 'I' for Inactive)
REMARK    1  A    between atoms: C_3  and  C_12
REMARK    2  A    between atoms: C_6  and  O_22
REMARK    3  A    between atoms: C_8  and  O_24
REMARK    4  A    between atoms: C_10  and  O_26
REMARK    5  A    between atoms: C_15  and  O_18
REMARK    6  A    between atoms: C_16  and  O_20
REMARK                            x       y       z     vdW  Elec       q    Type
REMARK                         _______ _______ _______ _____ _____    ______ ____
ROOT
ATOM      1  O   UNL     1     -34.833  23.632   2.801  0.00  0.00    -0.450 OA
ATOM      2  O   UNL     1     -38.890  23.625   3.169  0.00  0.00    -0.283 OA
ATOM      3  C   UNL     1     -35.518  24.741   3.272  0.00  0.00    +0.182 A 
ATOM      4  C   UNL     1     -36.940  22.454   2.547  0.00  0.00    +0.110 A 
ATOM      5  C   UNL     1     -35.553  22.520   2.447  0.00  0.00    +0.155 A 
ATOM      6  C   UNL     1     -36.853  24.803   3.425  0.00  0.00    +0.208 A 
ATOM      7  C   UNL     1     -37.672  23.624   3.055  0.00  0.00    +0.238 A 
ATOM      8  C   UNL     1     -37.621  21.293   2.171  0.00  0.00    +0.143 C 
ATOM      9  C   UNL     1     -34.835  21.422   1.971  0.00  0.00    +0.074 C 
ATOM     10  C   UNL     1     -35.511  20.261   1.594  0.00  0.00    +0.140 C 
ATOM     11  C   UNL     1     -36.901  20.197   1.694  0.00  0.00    +0.073 C 
ENDROOT
BRANCH   3  12
ATOM     12  C   UNL     1     -34.626  25.862   3.619  0.00  0.00    +0.044 C 
ATOM     13  C   UNL     1     -34.343  26.849   2.673  0.00  0.00    +0.040 C 
ATOM     14  C   UNL     1     -34.062  25.939   4.894  0.00  0.00    +0.040 C 
ATOM     15  C   UNL     1     -33.219  27.000   5.222  0.00  0.00    +0.142 C 
ATOM     16  C   UNL     1     -33.499  27.910   3.001  0.00  0.00    +0.142 C 
ATOM     17  C   UNL     1     -32.938  27.985   4.276  0.00  0.00    +0.074 C 
BRANCH  15  18
ATOM     18  O   UNL     1     -32.670  27.074   6.465  0.00  0.00    -0.471 OA
ATOM     19  C   UNL     1     -31.858  28.212   6.750  0.00  0.00    +0.252 C 
ENDBRANCH  15  18
BRANCH  16  20
ATOM     20  O   UNL     1     -33.225  28.871   2.079  0.00  0.00    -0.471 OA
ATOM     21  C   UNL     1     -33.682  30.193   2.361  0.00  0.00    +0.252 C 
ENDBRANCH  16  20
ENDBRANCH   3  12
BRANCH   6  22
ATOM     22  O   UNL     1     -37.501  25.911   3.928  0.00  0.00    -0.501 OA
ATOM     23  H   UNL     1     -37.364  26.752   3.538  0.00  0.00    +0.292 HD
ENDBRANCH   6  22
BRANCH   8  24
ATOM     24  O   UNL     1     -38.976  21.178   2.250  0.00  0.00    -0.505 OA
ATOM     25  H   UNL     1     -39.361  20.593   2.872  0.00  0.00    +0.292 HD
ENDBRANCH   8  24
BRANCH  10  26
ATOM     26  O   UNL     1     -34.813  19.190   1.128  0.00  0.00    -0.505 OA
ATOM     27  H   UNL     1     -34.191  18.758   1.682  0.00  0.00    +0.292 HD
ENDBRANCH  10  26
TORSDOF 6
ENDMDL
MODEL 7
REMARK VINA RESULT:      -5.8      2.784      4.445
REMARK  Name = 5492310
REMARK  6 active torsions:
REMARK  status: ('A' for Active; 'I' for Inactive)
REMARK    1  A    between atoms: C_3  and  C_12
REMARK    2  A    between atoms: C_6  and  O_22
REMARK    3  A    between atoms: C_8  and  O_24
REMARK    4  A    between atoms: C_10  and  O_26
REMARK    5  A    between atoms: C_15  and  O_18
REMARK    6  A    between atoms: C_16  and  O_20
REMARK                            x       y       z     vdW  Elec       q    Type
REMARK                         _______ _______ _______ _____ _____    ______ ____
ROOT
ATOM      1  O   UNL     1     -35.455  23.150   1.776  0.00  0.00    -0.450 OA
ATOM      2  O   UNL     1     -35.731  23.128   5.841  0.00  0.00    -0.283 OA
ATOM      3  C   UNL     1     -35.491  21.963   2.492  0.00  0.00    +0.182 A 
ATOM      4  C   UNL     1     -35.598  24.393   3.856  0.00  0.00    +0.110 A 
ATOM      5  C   UNL     1     -35.504  24.333   2.468  0.00  0.00    +0.155 A 
ATOM      6  C   UNL     1     -35.589  21.884   3.831  0.00  0.00    +0.208 A 
ATOM      7  C   UNL     1     -35.646  23.138   4.621  0.00  0.00    +0.238 A 
ATOM      8  C   UNL     1     -35.645  25.629   4.507  0.00  0.00    +0.143 C 
ATOM      9  C   UNL     1     -35.460  25.510   1.720  0.00  0.00    +0.074 C 
ATOM     10  C   UNL     1     -35.507  26.745   2.366  0.00  0.00    +0.140 C 
ATOM     11  C   UNL     1     -35.599  26.804   3.757  0.00  0.00    +0.073 C 
ENDROOT
BRANCH   3  12
ATOM     12  C   UNL     1     -35.433  20.770   1.629  0.00  0.00    +0.044 C 
ATOM     13  C   UNL     1     -34.204  20.175   1.338  0.00  0.00    +0.040 C 
ATOM     14  C   UNL     1     -36.608  20.233   1.099  0.00  0.00    +0.040 C 
ATOM     15  C   UNL     1     -36.553  19.104   0.282  0.00  0.00    +0.142 C 
ATOM     16  C   UNL     1     -34.150  19.046   0.522  0.00  0.00    +0.142 C 
ATOM     17  C   UNL     1     -35.325  18.510  -0.006  0.00  0.00    +0.074 C 
BRANCH  15  18
ATOM     18  O   UNL     1     -37.700  18.580  -0.233  0.00  0.00    -0.471 OA
ATOM     19  C   UNL     1     -37.765  17.161  -0.361  0.00  0.00    +0.252 C 
ENDBRANCH  15  18
BRANCH  16  20
ATOM     20  O   UNL     1     -32.951  18.467   0.240  0.00  0.00    -0.471 OA
ATOM     21  C   UNL     1     -32.109  18.145   1.346  0.00  0.00    +0.252 C 
ENDBRANCH  16  20
ENDBRANCH   3  12
BRANCH   6  22
ATOM     22  O   UNL     1     -35.656  20.687   4.511  0.00  0.00    -0.501 OA
ATOM     23  H   UNL     1     -36.452  20.192   4.512  0.00  0.00    +0.292 HD
ENDBRANCH   6  22
BRANCH   8  24
ATOM     24  O   UNL     1     -35.736  25.742   5.861  0.00  0.00    -0.505 OA
ATOM     25  H   UNL     1     -36.427  26.247   6.244  0.00  0.00    +0.292 HD
ENDBRANCH   8  24
BRANCH  10  26
ATOM     26  O   UNL     1     -35.463  27.895   1.638  0.00  0.00    -0.505 OA
ATOM     27  H   UNL     1     -35.093  28.671   2.009  0.00  0.00    +0.292 HD
ENDBRANCH  10  26
TORSDOF 6
ENDMDL
MODEL 8
REMARK VINA RESULT:      -5.8      2.725      3.781
REMARK  Name = 5492310
REMARK  6 active torsions:
REMARK  status: ('A' for Active; 'I' for Inactive)
REMARK    1  A    between atoms: C_3  and  C_12
REMARK    2  A    between atoms: C_6  and  O_22
REMARK    3  A    between atoms: C_8  and  O_24
REMARK    4  A    between atoms: C_10  and  O_26
REMARK    5  A    between atoms: C_15  and  O_18
REMARK    6  A    between atoms: C_16  and  O_20
REMARK                            x       y       z     vdW  Elec       q    Type
REMARK                         _______ _______ _______ _____ _____    ______ ____
ROOT
ATOM      1  O   UNL     1     -36.084  23.037   1.854  0.00  0.00    -0.450 OA
ATOM      2  O   UNL     1     -35.512  23.065   5.888  0.00  0.00    -0.283 OA
ATOM      3  C   UNL     1     -35.742  21.885   2.544  0.00  0.00    +0.182 A 
ATOM      4  C   UNL     1     -36.037  24.282   3.938  0.00  0.00    +0.110 A 
ATOM      5  C   UNL     1     -36.220  24.206   2.559  0.00  0.00    +0.155 A 
ATOM      6  C   UNL     1     -35.546  21.822   3.873  0.00  0.00    +0.208 A 
ATOM      7  C   UNL     1     -35.683  23.060   4.677  0.00  0.00    +0.238 A 
ATOM      8  C   UNL     1     -36.189  25.501   4.604  0.00  0.00    +0.143 C 
ATOM      9  C   UNL     1     -36.559  25.350   1.837  0.00  0.00    +0.074 C 
ATOM     10  C   UNL     1     -36.712  26.569   2.498  0.00  0.00    +0.140 C 
ATOM     11  C   UNL     1     -36.527  26.644   3.879  0.00  0.00    +0.073 C 
ENDROOT
BRANCH   3  12
ATOM     12  C   UNL     1     -35.632  20.704   1.669  0.00  0.00    +0.044 C 
ATOM     13  C   UNL     1     -36.781  20.126   1.126  0.00  0.00    +0.040 C 
ATOM     14  C   UNL     1     -34.379  20.160   1.382  0.00  0.00    +0.040 C 
ATOM     15  C   UNL     1     -34.275  19.042   0.554  0.00  0.00    +0.142 C 
ATOM     16  C   UNL     1     -36.677  19.009   0.298  0.00  0.00    +0.142 C 
ATOM     17  C   UNL     1     -35.424  18.467   0.012  0.00  0.00    +0.074 C 
BRANCH  15  18
ATOM     18  O   UNL     1     -33.052  18.513   0.276  0.00  0.00    -0.471 OA
ATOM     19  C   UNL     1     -32.286  18.033   1.379  0.00  0.00    +0.252 C 
ENDBRANCH  15  18
BRANCH  16  20
ATOM     20  O   UNL     1     -37.798  18.448  -0.231  0.00  0.00    -0.471 OA
ATOM     21  C   UNL     1     -37.813  17.027  -0.365  0.00  0.00    +0.252 C 
ENDBRANCH  16  20
ENDBRANCH   3  12
BRANCH   6  22
ATOM     22  O   UNL     1     -35.239  20.652   4.533  0.00  0.00    -0.501 OA
ATOM     23  H   UNL     1     -35.576  19.835   4.221  0.00  0.00    +0.292 HD
ENDBRANCH   6  22
BRANCH   8  24
ATOM     24  O   UNL     1     -36.021  25.629   5.949  0.00  0.00    -0.505 OA
ATOM     25  H   UNL     1     -35.686  26.428   6.306  0.00  0.00    +0.292 HD
ENDBRANCH   8  24
BRANCH  10  26
ATOM     26  O   UNL     1     -37.042  27.686   1.794  0.00  0.00    -0.505 OA
ATOM     27  H   UNL     1     -36.376  28.296   1.543  0.00  0.00    +0.292 HD
ENDBRANCH  10  26
TORSDOF 6
ENDMDL
MODEL 9
REMARK VINA RESULT:      -5.7      2.977      4.793
REMARK  Name = 5492310
REMARK  6 active torsions:
REMARK  status: ('A' for Active; 'I' for Inactive)
REMARK    1  A    between atoms: C_3  and  C_12
REMARK    2  A    between atoms: C_6  and  O_22
REMARK    3  A    between atoms: C_8  and  O_24
REMARK    4  A    between atoms: C_10  and  O_26
REMARK    5  A    between atoms: C_15  and  O_18
REMARK    6  A    between atoms: C_16  and  O_20
REMARK                            x       y       z     vdW  Elec       q    Type
REMARK                         _______ _______ _______ _____ _____    ______ ____
ROOT
ATOM      1  O   UNL     1     -34.959  22.271   2.448  0.00  0.00    -0.450 OA
ATOM      2  O   UNL     1     -38.978  22.823   2.821  0.00  0.00    -0.283 OA
ATOM      3  C   UNL     1     -35.865  21.358   1.931  0.00  0.00    +0.182 A 
ATOM      4  C   UNL     1     -36.804  23.619   3.267  0.00  0.00    +0.110 A 
ATOM      5  C   UNL     1     -35.443  23.374   3.105  0.00  0.00    +0.155 A 
ATOM      6  C   UNL     1     -37.202  21.483   2.012  0.00  0.00    +0.208 A 
ATOM      7  C   UNL     1     -37.771  22.660   2.712  0.00  0.00    +0.238 A 
ATOM      8  C   UNL     1     -37.240  24.761   3.945  0.00  0.00    +0.143 C 
ATOM      9  C   UNL     1     -34.506  24.270   3.619  0.00  0.00    +0.074 C 
ATOM     10  C   UNL     1     -34.937  25.411   4.297  0.00  0.00    +0.140 C 
ATOM     11  C   UNL     1     -36.300  25.655   4.460  0.00  0.00    +0.073 C 
ENDROOT
BRANCH   3  12
ATOM     12  C   UNL     1     -35.213  20.225   1.250  0.00  0.00    +0.044 C 
ATOM     13  C   UNL     1     -34.084  19.627   1.812  0.00  0.00    +0.040 C 
ATOM     14  C   UNL     1     -35.724  19.749   0.041  0.00  0.00    +0.040 C 
ATOM     15  C   UNL     1     -35.107  18.676  -0.603  0.00  0.00    +0.142 C 
ATOM     16  C   UNL     1     -33.468  18.555   1.167  0.00  0.00    +0.142 C 
ATOM     17  C   UNL     1     -33.980  18.079  -0.040  0.00  0.00    +0.074 C 
BRANCH  15  18
ATOM     18  O   UNL     1     -35.606  18.212  -1.782  0.00  0.00    -0.471 OA
ATOM     19  C   UNL     1     -36.580  17.172  -1.709  0.00  0.00    +0.252 C 
ENDBRANCH  15  18
BRANCH  16  20
ATOM     20  O   UNL     1     -32.368  17.972   1.717  0.00  0.00    -0.471 OA
ATOM     21  C   UNL     1     -31.170  17.986   0.942  0.00  0.00    +0.252 C 
ENDBRANCH  16  20
ENDBRANCH   3  12
BRANCH   6  22
ATOM     22  O   UNL     1     -38.077  20.574   1.458  0.00  0.00    -0.501 OA
ATOM     23  H   UNL     1     -37.861  20.147   0.651  0.00  0.00    +0.292 HD
ENDBRANCH   6  22
BRANCH   8  24
ATOM     24  O   UNL     1     -38.558  25.047   4.131  0.00  0.00    -0.505 OA
ATOM     25  H   UNL     1     -39.143  25.054   3.399  0.00  0.00    +0.292 HD
ENDBRANCH   8  24
BRANCH  10  26
ATOM     26  O   UNL     1     -34.024  26.287   4.800  0.00  0.00    -0.505 OA
ATOM     27  H   UNL     1     -34.311  27.041   5.278  0.00  0.00    +0.292 HD
ENDBRANCH  10  26
TORSDOF 6
ENDMDL
