MODEL 1
REMARK VINA RESULT:      -5.2      0.000      0.000
REMARK  Name = 5328806
REMARK  8 active torsions:
REMARK  status: ('A' for Active; 'I' for Inactive)
REMARK    1  A    between atoms: C_1  and  C_3
REMARK    2  A    between atoms: C_2  and  C_14
REMARK    3  A    between atoms: C_2  and  C_15
REMARK    4  A    between atoms: C_6  and  O_9
REMARK    5  A    between atoms: C_7  and  O_11
REMARK    6  A    between atoms: C_15  and  N_17
REMARK    7  A    between atoms: C_16  and  C_21
REMARK    8  A    between atoms: C_16  and  C_23
REMARK                            x       y       z     vdW  Elec       q    Type
REMARK                         _______ _______ _______ _____ _____    ______ ____
ROOT
ATOM      1  C   UNL     1     -36.141  25.570   3.645  0.00  0.00    +0.012 C 
ATOM      2  C   UNL     1     -35.218  26.425   3.158  0.00  0.00    +0.083 C 
ENDROOT
BRANCH   1   3
ATOM      3  C   UNL     1     -35.875  24.241   4.217  0.00  0.00    +0.004 C 
ATOM      4  C   UNL     1     -35.996  23.116   3.414  0.00  0.00    +0.040 C 
ATOM      5  C   UNL     1     -35.508  24.136   5.551  0.00  0.00    +0.003 C 
ATOM      6  C   UNL     1     -35.745  21.857   3.957  0.00  0.00    +0.167 C 
ATOM      7  C   UNL     1     -35.375  21.736   5.297  0.00  0.00    +0.167 C 
ATOM      8  C   UNL     1     -35.256  22.875   6.093  0.00  0.00    +0.040 C 
BRANCH   6   9
ATOM      9  O   UNL     1     -35.864  20.751   3.170  0.00  0.00    -0.503 OA
ATOM     10  H   UNL     1     -36.324  19.999   3.484  0.00  0.00    +0.292 HD
ENDBRANCH   6   9
BRANCH   7  11
ATOM     11  O   UNL     1     -35.125  20.511   5.839  0.00  0.00    -0.503 OA
ATOM     12  H   UNL     1     -34.430  19.983   5.502  0.00  0.00    +0.292 HD
ENDBRANCH   7  11
ENDBRANCH   1   3
BRANCH   2  14
ATOM     13  N   UNL     1     -32.724  25.725   3.207  0.00  0.00    -0.191 NA
ATOM     14  C   UNL     1     -33.842  26.038   3.185  0.00  0.00    +0.102 C 
ENDBRANCH   2  14
BRANCH   2  15
ATOM     15  C   UNL     1     -35.521  27.744   2.582  0.00  0.00    +0.071 C 
ATOM     16  C   UNL     1     -36.127  27.865   1.373  0.00  0.00    +0.150 C 
BRANCH  15  17
ATOM     17  N   UNL     1     -35.137  28.810   3.361  0.00  0.00    -0.355 N 
ATOM     18  H   UNL     1     -34.450  29.436   3.036  0.00  0.00    +0.142 HD
ATOM     19  H   UNL     1     -35.549  28.948   4.245  0.00  0.00    +0.142 HD
ENDBRANCH  15  17
BRANCH  16  21
ATOM     20  N   UNL     1     -36.664  30.206   0.402  0.00  0.00    -0.190 NA
ATOM     21  C   UNL     1     -36.422  29.158   0.837  0.00  0.00    +0.112 C 
ENDBRANCH  16  21
BRANCH  16  23
ATOM     22  N   UNL     1     -36.760  25.794  -0.051  0.00  0.00    -0.190 NA
ATOM     23  C   UNL     1     -36.480  26.720   0.588  0.00  0.00    +0.112 C 
ENDBRANCH  16  23
ENDBRANCH   2  15
TORSDOF 8
ENDMDL
MODEL 2
REMARK VINA RESULT:      -5.1      4.130      6.331
REMARK  Name = 5328806
REMARK  8 active torsions:
REMARK  status: ('A' for Active; 'I' for Inactive)
REMARK    1  A    between atoms: C_1  and  C_3
REMARK    2  A    between atoms: C_2  and  C_14
REMARK    3  A    between atoms: C_2  and  C_15
REMARK    4  A    between atoms: C_6  and  O_9
REMARK    5  A    between atoms: C_7  and  O_11
REMARK    6  A    between atoms: C_15  and  N_17
REMARK    7  A    between atoms: C_16  and  C_21
REMARK    8  A    between atoms: C_16  and  C_23
REMARK                            x       y       z     vdW  Elec       q    Type
REMARK                         _______ _______ _______ _____ _____    ______ ____
ROOT
ATOM      1  C   UNL     1     -35.928  21.599   3.151  0.00  0.00    +0.012 C 
ATOM      2  C   UNL     1     -35.297  21.344   1.987  0.00  0.00    +0.083 C 
ENDROOT
BRANCH   1   3
ATOM      3  C   UNL     1     -36.044  22.911   3.806  0.00  0.00    +0.004 C 
ATOM      4  C   UNL     1     -37.041  23.789   3.404  0.00  0.00    +0.040 C 
ATOM      5  C   UNL     1     -35.155  23.248   4.816  0.00  0.00    +0.003 C 
ATOM      6  C   UNL     1     -37.150  25.032   4.025  0.00  0.00    +0.167 C 
ATOM      7  C   UNL     1     -36.262  25.384   5.042  0.00  0.00    +0.167 C 
ATOM      8  C   UNL     1     -35.265  24.492   5.437  0.00  0.00    +0.040 C 
BRANCH   6   9
ATOM      9  O   UNL     1     -38.128  25.895   3.631  0.00  0.00    -0.503 OA
ATOM     10  H   UNL     1     -39.026  25.693   3.802  0.00  0.00    +0.292 HD
ENDBRANCH   6   9
BRANCH   7  11
ATOM     11  O   UNL     1     -36.359  26.596   5.658  0.00  0.00    -0.503 OA
ATOM     12  H   UNL     1     -35.711  26.858   6.281  0.00  0.00    +0.292 HD
ENDBRANCH   7  11
ENDBRANCH   1   3
BRANCH   2  14
ATOM     13  N   UNL     1     -34.159  23.305   0.733  0.00  0.00    -0.191 NA
ATOM     14  C   UNL     1     -34.669  22.427   1.295  0.00  0.00    +0.102 C 
ENDBRANCH   2  14
BRANCH   2  15
ATOM     15  C   UNL     1     -35.191  20.016   1.365  0.00  0.00    +0.071 C 
ATOM     16  C   UNL     1     -36.141  19.559   0.509  0.00  0.00    +0.150 C 
BRANCH  15  17
ATOM     17  N   UNL     1     -34.073  19.301   1.728  0.00  0.00    -0.355 N 
ATOM     18  H   UNL     1     -33.272  19.772   2.055  0.00  0.00    +0.142 HD
ATOM     19  H   UNL     1     -34.073  18.319   1.660  0.00  0.00    +0.142 HD
ENDBRANCH  15  17
BRANCH  16  21
ATOM     20  N   UNL     1     -35.909  17.218  -0.578  0.00  0.00    -0.190 NA
ATOM     21  C   UNL     1     -36.012  18.267  -0.093  0.00  0.00    +0.112 C 
ENDBRANCH  16  21
BRANCH  16  23
ATOM     22  N   UNL     1     -38.247  20.955  -0.069  0.00  0.00    -0.190 NA
ATOM     23  C   UNL     1     -37.303  20.332   0.187  0.00  0.00    +0.112 C 
ENDBRANCH  16  23
ENDBRANCH   2  15
TORSDOF 8
ENDMDL
MODEL 3
REMARK VINA RESULT:      -5.0      3.348      5.243
REMARK  Name = 5328806
REMARK  8 active torsions:
REMARK  status: ('A' for Active; 'I' for Inactive)
REMARK    1  A    between atoms: C_1  and  C_3
REMARK    2  A    between atoms: C_2  and  C_14
REMARK    3  A    between atoms: C_2  and  C_15
REMARK    4  A    between atoms: C_6  and  O_9
REMARK    5  A    between atoms: C_7  and  O_11
REMARK    6  A    between atoms: C_15  and  N_17
REMARK    7  A    between atoms: C_16  and  C_21
REMARK    8  A    between atoms: C_16  and  C_23
REMARK                            x       y       z     vdW  Elec       q    Type
REMARK                         _______ _______ _______ _____ _____    ______ ____
ROOT
ATOM      1  C   UNL     1     -36.628  24.024   2.450  0.00  0.00    +0.012 C 
ATOM      2  C   UNL     1     -36.827  25.201   3.078  0.00  0.00    +0.083 C 
ENDROOT
BRANCH   1   3
ATOM      3  C   UNL     1     -37.631  23.271   1.681  0.00  0.00    +0.004 C 
ATOM      4  C   UNL     1     -38.519  22.440   2.349  0.00  0.00    +0.040 C 
ATOM      5  C   UNL     1     -37.671  23.405   0.301  0.00  0.00    +0.003 C 
ATOM      6  C   UNL     1     -39.469  21.725   1.619  0.00  0.00    +0.167 C 
ATOM      7  C   UNL     1     -39.521  21.851   0.231  0.00  0.00    +0.167 C 
ATOM      8  C   UNL     1     -38.623  22.690  -0.428  0.00  0.00    +0.040 C 
BRANCH   6   9
ATOM      9  O   UNL     1     -40.342  20.909   2.274  0.00  0.00    -0.503 OA
ATOM     10  H   UNL     1     -40.972  20.414   1.790  0.00  0.00    +0.292 HD
ENDBRANCH   6   9
BRANCH   7  11
ATOM     11  O   UNL     1     -40.445  21.159  -0.493  0.00  0.00    -0.503 OA
ATOM     12  H   UNL     1     -40.186  20.701  -1.267  0.00  0.00    +0.292 HD
ENDBRANCH   7  11
ENDBRANCH   1   3
BRANCH   2  14
ATOM     13  N   UNL     1     -39.173  26.293   2.958  0.00  0.00    -0.191 NA
ATOM     14  C   UNL     1     -38.122  25.804   3.011  0.00  0.00    +0.102 C 
ENDBRANCH   2  14
BRANCH   2  15
ATOM     15  C   UNL     1     -35.803  25.922   3.848  0.00  0.00    +0.071 C 
ATOM     16  C   UNL     1     -35.228  25.372   4.948  0.00  0.00    +0.150 C 
BRANCH  15  17
ATOM     17  N   UNL     1     -35.498  27.173   3.363  0.00  0.00    -0.355 N 
ATOM     18  H   UNL     1     -35.838  27.976   3.821  0.00  0.00    +0.142 HD
ATOM     19  H   UNL     1     -34.938  27.266   2.559  0.00  0.00    +0.142 HD
ENDBRANCH  15  17
BRANCH  16  21
ATOM     20  N   UNL     1     -33.411  26.666   6.265  0.00  0.00    -0.190 NA
ATOM     21  C   UNL     1     -34.226  26.087   5.676  0.00  0.00    +0.112 C 
ENDBRANCH  16  21
BRANCH  16  23
ATOM     22  N   UNL     1     -35.915  23.028   5.815  0.00  0.00    -0.190 NA
ATOM     23  C   UNL     1     -35.604  24.076   5.428  0.00  0.00    +0.112 C 
ENDBRANCH  16  23
ENDBRANCH   2  15
TORSDOF 8
ENDMDL
MODEL 4
REMARK VINA RESULT:      -5.0      4.518      6.134
REMARK  Name = 5328806
REMARK  8 active torsions:
REMARK  status: ('A' for Active; 'I' for Inactive)
REMARK    1  A    between atoms: C_1  and  C_3
REMARK    2  A    between atoms: C_2  and  C_14
REMARK    3  A    between atoms: C_2  and  C_15
REMARK    4  A    between atoms: C_6  and  O_9
REMARK    5  A    between atoms: C_7  and  O_11
REMARK    6  A    between atoms: C_15  and  N_17
REMARK    7  A    between atoms: C_16  and  C_21
REMARK    8  A    between atoms: C_16  and  C_23
REMARK                            x       y       z     vdW  Elec       q    Type
REMARK                         _______ _______ _______ _____ _____    ______ ____
ROOT
ATOM      1  C   UNL     1     -36.217  23.347   2.726  0.00  0.00    +0.012 C 
ATOM      2  C   UNL     1     -36.265  22.014   2.922  0.00  0.00    +0.083 C 
ENDROOT
BRANCH   1   3
ATOM      3  C   UNL     1     -35.525  24.325   3.580  0.00  0.00    +0.004 C 
ATOM      4  C   UNL     1     -34.290  24.821   3.187  0.00  0.00    +0.040 C 
ATOM      5  C   UNL     1     -36.120  24.736   4.764  0.00  0.00    +0.003 C 
ATOM      6  C   UNL     1     -33.635  25.748   3.997  0.00  0.00    +0.167 C 
ATOM      7  C   UNL     1     -34.222  26.170   5.190  0.00  0.00    +0.167 C 
ATOM      8  C   UNL     1     -35.464  25.664   5.574  0.00  0.00    +0.040 C 
BRANCH   6   9
ATOM      9  O   UNL     1     -32.423  26.235   3.612  0.00  0.00    -0.503 OA
ATOM     10  H   UNL     1     -32.158  26.176   2.716  0.00  0.00    +0.292 HD
ENDBRANCH   6   9
BRANCH   7  11
ATOM     11  O   UNL     1     -33.592  27.076   5.990  0.00  0.00    -0.503 OA
ATOM     12  H   UNL     1     -32.657  27.112   6.009  0.00  0.00    +0.292 HD
ENDBRANCH   7  11
ENDBRANCH   1   3
BRANCH   2  14
ATOM     13  N   UNL     1     -35.043  21.017   4.978  0.00  0.00    -0.191 NA
ATOM     14  C   UNL     1     -35.590  21.462   4.056  0.00  0.00    +0.102 C 
ENDBRANCH   2  14
BRANCH   2  15
ATOM     15  C   UNL     1     -36.976  21.065   2.053  0.00  0.00    +0.071 C 
ATOM     16  C   UNL     1     -36.311  20.301   1.148  0.00  0.00    +0.150 C 
BRANCH  15  17
ATOM     17  N   UNL     1     -38.339  21.031   2.236  0.00  0.00    -0.355 N 
ATOM     18  H   UNL     1     -38.796  20.171   2.376  0.00  0.00    +0.142 HD
ATOM     19  H   UNL     1     -38.858  21.868   2.228  0.00  0.00    +0.142 HD
ENDBRANCH  15  17
BRANCH  16  21
ATOM     20  N   UNL     1     -37.599  18.625  -0.351  0.00  0.00    -0.190 NA
ATOM     21  C   UNL     1     -37.023  19.377   0.320  0.00  0.00    +0.112 C 
ENDBRANCH  16  21
BRANCH  16  23
ATOM     22  N   UNL     1     -33.745  20.476   0.830  0.00  0.00    -0.190 NA
ATOM     23  C   UNL     1     -34.893  20.396   0.975  0.00  0.00    +0.112 C 
ENDBRANCH  16  23
ENDBRANCH   2  15
TORSDOF 8
ENDMDL
MODEL 5
REMARK VINA RESULT:      -4.9      1.244      1.735
REMARK  Name = 5328806
REMARK  8 active torsions:
REMARK  status: ('A' for Active; 'I' for Inactive)
REMARK    1  A    between atoms: C_1  and  C_3
REMARK    2  A    between atoms: C_2  and  C_14
REMARK    3  A    between atoms: C_2  and  C_15
REMARK    4  A    between atoms: C_6  and  O_9
REMARK    5  A    between atoms: C_7  and  O_11
REMARK    6  A    between atoms: C_15  and  N_17
REMARK    7  A    between atoms: C_16  and  C_21
REMARK    8  A    between atoms: C_16  and  C_23
REMARK                            x       y       z     vdW  Elec       q    Type
REMARK                         _______ _______ _______ _____ _____    ______ ____
ROOT
ATOM      1  C   UNL     1     -35.014  25.379   3.101  0.00  0.00    +0.012 C 
ATOM      2  C   UNL     1     -36.031  26.170   2.700  0.00  0.00    +0.083 C 
ENDROOT
BRANCH   1   3
ATOM      3  C   UNL     1     -35.138  24.121   3.852  0.00  0.00    +0.004 C 
ATOM      4  C   UNL     1     -35.397  22.941   3.169  0.00  0.00    +0.040 C 
ATOM      5  C   UNL     1     -34.992  24.135   5.232  0.00  0.00    +0.003 C 
ATOM      6  C   UNL     1     -35.514  21.749   3.882  0.00  0.00    +0.167 C 
ATOM      7  C   UNL     1     -35.370  21.748   5.270  0.00  0.00    +0.167 C 
ATOM      8  C   UNL     1     -35.109  22.941   5.944  0.00  0.00    +0.040 C 
BRANCH   6   9
ATOM      9  O   UNL     1     -35.769  20.590   3.212  0.00  0.00    -0.503 OA
ATOM     10  H   UNL     1     -35.060  20.041   2.941  0.00  0.00    +0.292 HD
ENDBRANCH   6   9
BRANCH   7  11
ATOM     11  O   UNL     1     -35.482  20.589   5.977  0.00  0.00    -0.503 OA
ATOM     12  H   UNL     1     -35.678  19.788   5.535  0.00  0.00    +0.292 HD
ENDBRANCH   7  11
ENDBRANCH   1   3
BRANCH   2  14
ATOM     13  N   UNL     1     -38.455  25.461   3.276  0.00  0.00    -0.191 NA
ATOM     14  C   UNL     1     -37.369  25.779   3.017  0.00  0.00    +0.102 C 
ENDBRANCH   2  14
BRANCH   2  15
ATOM     15  C   UNL     1     -35.870  27.429   1.959  0.00  0.00    +0.071 C 
ATOM     16  C   UNL     1     -35.983  27.473   0.606  0.00  0.00    +0.150 C 
BRANCH  15  17
ATOM     17  N   UNL     1     -35.598  28.525   2.744  0.00  0.00    -0.355 N 
ATOM     18  H   UNL     1     -35.747  28.484   3.717  0.00  0.00    +0.142 HD
ATOM     19  H   UNL     1     -35.253  29.352   2.334  0.00  0.00    +0.142 HD
ENDBRANCH  15  17
BRANCH  16  21
ATOM     20  N   UNL     1     -35.714  29.716  -0.662  0.00  0.00    -0.190 NA
ATOM     21  C   UNL     1     -35.833  28.711  -0.093  0.00  0.00    +0.112 C 
ENDBRANCH  16  21
BRANCH  16  23
ATOM     22  N   UNL     1     -36.445  25.345  -0.800  0.00  0.00    -0.190 NA
ATOM     23  C   UNL     1     -36.238  26.295  -0.168  0.00  0.00    +0.112 C 
ENDBRANCH  16  23
ENDBRANCH   2  15
TORSDOF 8
ENDMDL
MODEL 6
REMARK VINA RESULT:      -4.9      0.993      1.930
REMARK  Name = 5328806
REMARK  8 active torsions:
REMARK  status: ('A' for Active; 'I' for Inactive)
REMARK    1  A    between atoms: C_1  and  C_3
REMARK    2  A    between atoms: C_2  and  C_14
REMARK    3  A    between atoms: C_2  and  C_15
REMARK    4  A    between atoms: C_6  and  O_9
REMARK    5  A    between atoms: C_7  and  O_11
REMARK    6  A    between atoms: C_15  and  N_17
REMARK    7  A    between atoms: C_16  and  C_21
REMARK    8  A    between atoms: C_16  and  C_23
REMARK                            x       y       z     vdW  Elec       q    Type
REMARK                         _______ _______ _______ _____ _____    ______ ____
ROOT
ATOM      1  C   UNL     1     -36.494  25.486   3.443  0.00  0.00    +0.012 C 
ATOM      2  C   UNL     1     -35.828  26.134   2.466  0.00  0.00    +0.083 C 
ENDROOT
BRANCH   1   3
ATOM      3  C   UNL     1     -36.091  24.221   4.075  0.00  0.00    +0.004 C 
ATOM      4  C   UNL     1     -36.239  23.031   3.376  0.00  0.00    +0.040 C 
ATOM      5  C   UNL     1     -35.569  24.238   5.360  0.00  0.00    +0.003 C 
ATOM      6  C   UNL     1     -35.857  21.832   3.976  0.00  0.00    +0.167 C 
ATOM      7  C   UNL     1     -35.331  21.835   5.268  0.00  0.00    +0.167 C 
ATOM      8  C   UNL     1     -35.187  23.038   5.960  0.00  0.00    +0.040 C 
BRANCH   6   9
ATOM      9  O   UNL     1     -36.002  20.663   3.290  0.00  0.00    -0.503 OA
ATOM     10  H   UNL     1     -35.335  20.385   2.695  0.00  0.00    +0.292 HD
ENDBRANCH   6   9
BRANCH   7  11
ATOM     11  O   UNL     1     -34.953  20.670   5.865  0.00  0.00    -0.503 OA
ATOM     12  H   UNL     1     -34.149  20.628   6.343  0.00  0.00    +0.292 HD
ENDBRANCH   7  11
ENDBRANCH   1   3
BRANCH   2  14
ATOM     13  N   UNL     1     -33.623  25.107   1.573  0.00  0.00    -0.191 NA
ATOM     14  C   UNL     1     -34.610  25.568   1.973  0.00  0.00    +0.102 C 
ENDBRANCH   2  14
BRANCH   2  15
ATOM     15  C   UNL     1     -36.266  27.394   1.848  0.00  0.00    +0.071 C 
ATOM     16  C   UNL     1     -35.639  28.569   2.115  0.00  0.00    +0.150 C 
BRANCH  15  17
ATOM     17  N   UNL     1     -37.344  27.272   1.001  0.00  0.00    -0.355 N 
ATOM     18  H   UNL     1     -37.833  26.419   0.945  0.00  0.00    +0.142 HD
ATOM     19  H   UNL     1     -37.627  28.038   0.451  0.00  0.00    +0.142 HD
ENDBRANCH  15  17
BRANCH  16  21
ATOM     20  N   UNL     1     -36.434  30.763   0.990  0.00  0.00    -0.190 NA
ATOM     21  C   UNL     1     -36.076  29.781   1.494  0.00  0.00    +0.112 C 
ENDBRANCH  16  21
BRANCH  16  23
ATOM     22  N   UNL     1     -33.645  28.713   3.764  0.00  0.00    -0.190 NA
ATOM     23  C   UNL     1     -34.539  28.646   3.028  0.00  0.00    +0.112 C 
ENDBRANCH  16  23
ENDBRANCH   2  15
TORSDOF 8
ENDMDL
MODEL 7
REMARK VINA RESULT:      -4.9      1.362      2.532
REMARK  Name = 5328806
REMARK  8 active torsions:
REMARK  status: ('A' for Active; 'I' for Inactive)
REMARK    1  A    between atoms: C_1  and  C_3
REMARK    2  A    between atoms: C_2  and  C_14
REMARK    3  A    between atoms: C_2  and  C_15
REMARK    4  A    between atoms: C_6  and  O_9
REMARK    5  A    between atoms: C_7  and  O_11
REMARK    6  A    between atoms: C_15  and  N_17
REMARK    7  A    between atoms: C_16  and  C_21
REMARK    8  A    between atoms: C_16  and  C_23
REMARK                            x       y       z     vdW  Elec       q    Type
REMARK                         _______ _______ _______ _____ _____    ______ ____
ROOT
ATOM      1  C   UNL     1     -35.686  25.104   2.609  0.00  0.00    +0.012 C 
ATOM      2  C   UNL     1     -36.810  25.827   2.425  0.00  0.00    +0.083 C 
ENDROOT
BRANCH   1   3
ATOM      3  C   UNL     1     -35.551  23.911   3.457  0.00  0.00    +0.004 C 
ATOM      4  C   UNL     1     -35.754  22.654   2.905  0.00  0.00    +0.040 C 
ATOM      5  C   UNL     1     -35.223  24.061   4.797  0.00  0.00    +0.003 C 
ATOM      6  C   UNL     1     -35.626  21.523   3.710  0.00  0.00    +0.167 C 
ATOM      7  C   UNL     1     -35.297  21.660   5.058  0.00  0.00    +0.167 C 
ATOM      8  C   UNL     1     -35.095  22.929   5.602  0.00  0.00    +0.040 C 
BRANCH   6   9
ATOM      9  O   UNL     1     -35.824  20.289   3.168  0.00  0.00    -0.503 OA
ATOM     10  H   UNL     1     -36.006  19.557   3.723  0.00  0.00    +0.292 HD
ENDBRANCH   6   9
BRANCH   7  11
ATOM     11  O   UNL     1     -35.168  20.562   5.855  0.00  0.00    -0.503 OA
ATOM     12  H   UNL     1     -34.361  20.088   5.873  0.00  0.00    +0.292 HD
ENDBRANCH   7  11
ENDBRANCH   1   3
BRANCH   2  14
ATOM     13  N   UNL     1     -38.970  25.097   3.654  0.00  0.00    -0.191 NA
ATOM     14  C   UNL     1     -38.003  25.425   3.104  0.00  0.00    +0.102 C 
ENDBRANCH   2  14
BRANCH   2  15
ATOM     15  C   UNL     1     -36.906  27.024   1.576  0.00  0.00    +0.071 C 
ATOM     16  C   UNL     1     -36.105  28.101   1.780  0.00  0.00    +0.150 C 
BRANCH  15  17
ATOM     17  N   UNL     1     -37.861  26.950   0.589  0.00  0.00    -0.355 N 
ATOM     18  H   UNL     1     -37.928  27.663  -0.086  0.00  0.00    +0.142 HD
ATOM     19  H   UNL     1     -38.477  26.182   0.556  0.00  0.00    +0.142 HD
ENDBRANCH  15  17
BRANCH  16  21
ATOM     20  N   UNL     1     -36.294  30.181   0.247  0.00  0.00    -0.190 NA
ATOM     21  C   UNL     1     -36.208  29.250   0.935  0.00  0.00    +0.112 C 
ENDBRANCH  16  21
BRANCH  16  23
ATOM     22  N   UNL     1     -34.372  28.174   3.706  0.00  0.00    -0.190 NA
ATOM     23  C   UNL     1     -35.146  28.139   2.843  0.00  0.00    +0.112 C 
ENDBRANCH  16  23
ENDBRANCH   2  15
TORSDOF 8
ENDMDL
MODEL 8
REMARK VINA RESULT:      -4.9      3.834      5.495
REMARK  Name = 5328806
REMARK  8 active torsions:
REMARK  status: ('A' for Active; 'I' for Inactive)
REMARK    1  A    between atoms: C_1  and  C_3
REMARK    2  A    between atoms: C_2  and  C_14
REMARK    3  A    between atoms: C_2  and  C_15
REMARK    4  A    between atoms: C_6  and  O_9
REMARK    5  A    between atoms: C_7  and  O_11
REMARK    6  A    between atoms: C_15  and  N_17
REMARK    7  A    between atoms: C_16  and  C_21
REMARK    8  A    between atoms: C_16  and  C_23
REMARK                            x       y       z     vdW  Elec       q    Type
REMARK                         _______ _______ _______ _____ _____    ______ ____
ROOT
ATOM      1  C   UNL     1     -37.173  23.636   3.541  0.00  0.00    +0.012 C 
ATOM      2  C   UNL     1     -37.012  22.849   2.457  0.00  0.00    +0.083 C 
ENDROOT
BRANCH   1   3
ATOM      3  C   UNL     1     -36.175  24.560   4.099  0.00  0.00    +0.004 C 
ATOM      4  C   UNL     1     -36.113  25.863   3.627  0.00  0.00    +0.040 C 
ATOM      5  C   UNL     1     -35.311  24.113   5.088  0.00  0.00    +0.003 C 
ATOM      6  C   UNL     1     -35.166  26.739   4.155  0.00  0.00    +0.167 C 
ATOM      7  C   UNL     1     -34.291  26.303   5.151  0.00  0.00    +0.167 C 
ATOM      8  C   UNL     1     -34.364  24.990   5.617  0.00  0.00    +0.040 C 
BRANCH   6   9
ATOM      9  O   UNL     1     -35.104  28.019   3.693  0.00  0.00    -0.503 OA
ATOM     10  H   UNL     1     -35.608  28.271   2.945  0.00  0.00    +0.292 HD
ENDBRANCH   6   9
BRANCH   7  11
ATOM     11  O   UNL     1     -33.362  27.150   5.676  0.00  0.00    -0.503 OA
ATOM     12  H   UNL     1     -32.473  26.870   5.771  0.00  0.00    +0.292 HD
ENDBRANCH   7  11
ENDBRANCH   1   3
BRANCH   2  14
ATOM     13  N   UNL     1     -34.754  22.925   1.189  0.00  0.00    -0.191 NA
ATOM     14  C   UNL     1     -35.766  22.892   1.758  0.00  0.00    +0.102 C 
ENDBRANCH   2  14
BRANCH   2  15
ATOM     15  C   UNL     1     -38.031  21.927   1.933  0.00  0.00    +0.071 C 
ATOM     16  C   UNL     1     -39.080  22.377   1.197  0.00  0.00    +0.150 C 
BRANCH  15  17
ATOM     17  N   UNL     1     -37.825  20.605   2.254  0.00  0.00    -0.355 N 
ATOM     18  H   UNL     1     -37.260  20.040   1.679  0.00  0.00    +0.142 HD
ATOM     19  H   UNL     1     -38.244  20.224   3.060  0.00  0.00    +0.142 HD
ENDBRANCH  15  17
BRANCH  16  21
ATOM     20  N   UNL     1     -40.844  20.717   0.278  0.00  0.00    -0.190 NA
ATOM     21  C   UNL     1     -40.053  21.460   0.689  0.00  0.00    +0.112 C 
ENDBRANCH  16  21
BRANCH  16  23
ATOM     22  N   UNL     1     -39.406  24.897   0.687  0.00  0.00    -0.190 NA
ATOM     23  C   UNL     1     -39.263  23.769   0.917  0.00  0.00    +0.112 C 
ENDBRANCH  16  23
ENDBRANCH   2  15
TORSDOF 8
ENDMDL
MODEL 9
REMARK VINA RESULT:      -4.9      2.842      3.667
REMARK  Name = 5328806
REMARK  8 active torsions:
REMARK  status: ('A' for Active; 'I' for Inactive)
REMARK    1  A    between atoms: C_1  and  C_3
REMARK    2  A    between atoms: C_2  and  C_14
REMARK    3  A    between atoms: C_2  and  C_15
REMARK    4  A    between atoms: C_6  and  O_9
REMARK    5  A    between atoms: C_7  and  O_11
REMARK    6  A    between atoms: C_15  and  N_17
REMARK    7  A    between atoms: C_16  and  C_21
REMARK    8  A    between atoms: C_16  and  C_23
REMARK                            x       y       z     vdW  Elec       q    Type
REMARK                         _______ _______ _______ _____ _____    ______ ____
ROOT
ATOM      1  C   UNL     1     -35.533  24.459   2.496  0.00  0.00    +0.012 C 
ATOM      2  C   UNL     1     -35.127  24.938   3.690  0.00  0.00    +0.083 C 
ENDROOT
BRANCH   1   3
ATOM      3  C   UNL     1     -35.858  23.058   2.188  0.00  0.00    +0.004 C 
ATOM      4  C   UNL     1     -37.161  22.608   2.351  0.00  0.00    +0.040 C 
ATOM      5  C   UNL     1     -34.856  22.210   1.739  0.00  0.00    +0.003 C 
ATOM      6  C   UNL     1     -37.468  21.279   2.059  0.00  0.00    +0.167 C 
ATOM      7  C   UNL     1     -36.470  20.416   1.607  0.00  0.00    +0.167 C 
ATOM      8  C   UNL     1     -35.165  20.881   1.447  0.00  0.00    +0.040 C 
BRANCH   6   9
ATOM      9  O   UNL     1     -38.747  20.837   2.219  0.00  0.00    -0.503 OA
ATOM     10  H   UNL     1     -38.946  19.930   2.099  0.00  0.00    +0.292 HD
ENDBRANCH   6   9
BRANCH   7  11
ATOM     11  O   UNL     1     -36.758  19.116   1.317  0.00  0.00    -0.503 OA
ATOM     12  H   UNL     1     -37.086  18.549   1.986  0.00  0.00    +0.292 HD
ENDBRANCH   7  11
ENDBRANCH   1   3
BRANCH   2  14
ATOM     13  N   UNL     1     -34.878  23.287   5.671  0.00  0.00    -0.191 NA
ATOM     14  C   UNL     1     -34.989  24.026   4.783  0.00  0.00    +0.102 C 
ENDBRANCH   2  14
BRANCH   2  15
ATOM     15  C   UNL     1     -34.800  26.345   3.960  0.00  0.00    +0.071 C 
ATOM     16  C   UNL     1     -33.641  26.898   3.519  0.00  0.00    +0.150 C 
BRANCH  15  17
ATOM     17  N   UNL     1     -35.752  27.026   4.683  0.00  0.00    -0.355 N 
ATOM     18  H   UNL     1     -35.646  27.990   4.854  0.00  0.00    +0.142 HD
ATOM     19  H   UNL     1     -36.540  26.549   5.032  0.00  0.00    +0.142 HD
ENDBRANCH  15  17
BRANCH  16  21
ATOM     20  N   UNL     1     -33.114  29.389   4.000  0.00  0.00    -0.190 NA
ATOM     21  C   UNL     1     -33.348  28.273   3.784  0.00  0.00    +0.112 C 
ENDBRANCH  16  21
BRANCH  16  23
ATOM     22  N   UNL     1     -31.879  25.525   2.205  0.00  0.00    -0.190 NA
ATOM     23  C   UNL     1     -32.669  26.137   2.794  0.00  0.00    +0.112 C 
ENDBRANCH  16  23
ENDBRANCH   2  15
TORSDOF 8
ENDMDL
