MODEL 1
REMARK VINA RESULT:      -7.3      0.000      0.000
REMARK  Name = 195434
REMARK  7 active torsions:
REMARK  status: ('A' for Active; 'I' for Inactive)
REMARK    1  A    between atoms: C_14  and  O_22
REMARK    2  A    between atoms: O_22  and  C_26
REMARK    3  A    between atoms: C_24  and  O_29
REMARK    4  A    between atoms: C_25  and  O_31
REMARK    5  A    between atoms: C_27  and  O_33
REMARK    6  A    between atoms: C_28  and  C_36
REMARK    7  A    between atoms: C_36  and  O_37
REMARK                            x       y       z     vdW  Elec       q    Type
REMARK                         _______ _______ _______ _____ _____    ______ ____
ROOT
ATOM      1  O   UNL     1     -32.496  25.395   1.554  0.00  0.00    -0.226 OA
ATOM      2  N   UNL     1     -33.854  30.281   1.782  0.00  0.00    -0.288 N 
ATOM      3  N   UNL     1     -33.679  27.392   1.683  0.00  0.00    -0.242 N 
ATOM      4  N   UNL     1     -35.110  32.173   1.130  0.00  0.00    -0.229 NA
ATOM      5  C   UNL     1     -32.557  29.626   2.014  0.00  0.00    +0.116 C 
ATOM      6  C   UNL     1     -32.520  28.223   1.371  0.00  0.00    +0.121 C 
ATOM      7  C   UNL     1     -34.976  29.468   1.298  0.00  0.00    +0.114 C 
ATOM      8  C   UNL     1     -34.945  28.077   1.920  0.00  0.00    +0.118 C 
ATOM      9  C   UNL     1     -32.218  29.710   3.492  0.00  0.00    -0.006 C 
ATOM     10  C   UNL     1     -34.006  31.671   1.765  0.00  0.00    +0.128 C 
ATOM     11  C   UNL     1     -31.914  30.981   4.021  0.00  0.00    -0.020 C 
ATOM     12  C   UNL     1     -31.829  32.182   3.110  0.00  0.00    +0.055 C 
ATOM     13  C   UNL     1     -33.103  32.564   2.380  0.00  0.00    +0.014 C 
ATOM     14  C   UNL     1     -33.548  26.001   1.747  0.00  0.00    +0.407 C 
ATOM     15  C   UNL     1     -32.231  28.608   4.359  0.00  0.00    -0.003 C 
ATOM     16  C   UNL     1     -31.641  31.124   5.391  0.00  0.00    -0.004 C 
ATOM     17  C   UNL     1     -33.358  33.949   2.279  0.00  0.00    +0.000 C 
ATOM     18  C   UNL     1     -31.956  28.761   5.720  0.00  0.00    -0.000 C 
ATOM     19  C   UNL     1     -31.666  30.018   6.237  0.00  0.00    -0.000 C 
ATOM     20  C   UNL     1     -34.476  34.432   1.623  0.00  0.00    +0.020 C 
ATOM     21  C   UNL     1     -35.321  33.504   1.070  0.00  0.00    +0.100 C 
ENDROOT
BRANCH  14  22
ATOM     22  O   UNL     1     -34.727  25.380   2.063  0.00  0.00    -0.408 OA
BRANCH  22  26
ATOM     23  O   UNL     1     -35.646  23.240   2.262  0.00  0.00    -0.307 OA
ATOM     24  C   UNL     1     -34.741  24.345   4.224  0.00  0.00    +0.211 C 
ATOM     25  C   UNL     1     -34.767  23.023   4.989  0.00  0.00    +0.173 C 
ATOM     26  C   UNL     1     -34.614  24.111   2.718  0.00  0.00    +0.322 C 
ATOM     27  C   UNL     1     -35.764  22.041   4.373  0.00  0.00    +0.178 C 
ATOM     28  C   UNL     1     -35.573  21.952   2.864  0.00  0.00    +0.246 C 
BRANCH  24  29
ATOM     29  O   UNL     1     -33.621  25.119   4.653  0.00  0.00    -0.377 OA
ATOM     30  H   UNL     1     -33.108  25.401   3.879  0.00  0.00    +0.211 HD
ENDBRANCH  24  29
BRANCH  25  31
ATOM     31  O   UNL     1     -35.161  23.262   6.342  0.00  0.00    -0.379 OA
ATOM     32  H   UNL     1     -34.487  22.907   6.942  0.00  0.00    +0.211 HD
ENDBRANCH  25  31
BRANCH  27  33
ATOM     33  O   UNL     1     -35.555  20.747   4.937  0.00  0.00    -0.379 OA
ATOM     34  H   UNL     1     -35.311  20.123   4.235  0.00  0.00    +0.211 HD
ENDBRANCH  27  33
BRANCH  28  36
ATOM     35  O   UNL     1     -37.533  21.704   1.478  0.00  0.00    -0.247 OA
ATOM     36  C   UNL     1     -36.701  21.210   2.224  0.00  0.00    +0.344 C 
BRANCH  36  37
ATOM     37  O   UNL     1     -36.681  19.903   2.587  0.00  0.00    -0.478 OA
ATOM     38  H   UNL     1     -36.513  19.667   3.478  0.00  0.00    +0.295 HD
ENDBRANCH  36  37
ENDBRANCH  28  36
ENDBRANCH  22  26
ENDBRANCH  14  22
TORSDOF 7
ENDMDL
MODEL 2
REMARK VINA RESULT:      -7.3      3.265      8.921
REMARK  Name = 195434
REMARK  7 active torsions:
REMARK  status: ('A' for Active; 'I' for Inactive)
REMARK    1  A    between atoms: C_14  and  O_22
REMARK    2  A    between atoms: O_22  and  C_26
REMARK    3  A    between atoms: C_24  and  O_29
REMARK    4  A    between atoms: C_25  and  O_31
REMARK    5  A    between atoms: C_27  and  O_33
REMARK    6  A    between atoms: C_28  and  C_36
REMARK    7  A    between atoms: C_36  and  O_37
REMARK                            x       y       z     vdW  Elec       q    Type
REMARK                         _______ _______ _______ _____ _____    ______ ____
ROOT
ATOM      1  O   UNL     1     -36.034  27.594   2.086  0.00  0.00    -0.226 OA
ATOM      2  N   UNL     1     -34.356  22.906   1.101  0.00  0.00    -0.288 N 
ATOM      3  N   UNL     1     -34.742  25.744   1.531  0.00  0.00    -0.242 N 
ATOM      4  N   UNL     1     -33.243  21.272  -0.193  0.00  0.00    -0.229 NA
ATOM      5  C   UNL     1     -35.557  23.373   1.811  0.00  0.00    +0.116 C 
ATOM      6  C   UNL     1     -35.883  24.838   1.445  0.00  0.00    +0.121 C 
ATOM      7  C   UNL     1     -33.495  23.897   0.446  0.00  0.00    +0.114 C 
ATOM      8  C   UNL     1     -33.422  25.179   1.267  0.00  0.00    +0.118 C 
ATOM      9  C   UNL     1     -35.414  23.053   3.289  0.00  0.00    -0.006 C 
ATOM     10  C   UNL     1     -34.126  21.556   0.814  0.00  0.00    +0.128 C 
ATOM     11  C   UNL     1     -35.455  21.696   3.670  0.00  0.00    -0.020 C 
ATOM     12  C   UNL     1     -35.740  20.627   2.642  0.00  0.00    +0.055 C 
ATOM     13  C   UNL     1     -34.733  20.493   1.515  0.00  0.00    +0.014 C 
ATOM     14  C   UNL     1     -34.937  27.089   1.857  0.00  0.00    +0.407 C 
ATOM     15  C   UNL     1     -35.205  24.022   4.280  0.00  0.00    -0.003 C 
ATOM     16  C   UNL     1     -35.280  21.340   5.017  0.00  0.00    -0.004 C 
ATOM     17  C   UNL     1     -34.432  19.172   1.119  0.00  0.00    +0.000 C 
ATOM     18  C   UNL     1     -35.033  23.657   5.618  0.00  0.00    -0.000 C 
ATOM     19  C   UNL     1     -35.066  22.317   5.985  0.00  0.00    -0.000 C 
ATOM     20  C   UNL     1     -33.543  18.910   0.091  0.00  0.00    +0.020 C 
ATOM     21  C   UNL     1     -32.975  19.993  -0.529  0.00  0.00    +0.100 C 
ENDROOT
BRANCH  14  22
ATOM     22  O   UNL     1     -33.761  27.791   1.905  0.00  0.00    -0.408 OA
BRANCH  22  26
ATOM     23  O   UNL     1     -33.132  29.877   2.748  0.00  0.00    -0.307 OA
ATOM     24  C   UNL     1     -32.433  27.858   3.899  0.00  0.00    +0.211 C 
ATOM     25  C   UNL     1     -32.033  28.684   5.120  0.00  0.00    +0.173 C 
ATOM     26  C   UNL     1     -33.533  28.555   3.095  0.00  0.00    +0.322 C 
ATOM     27  C   UNL     1     -31.773  30.144   4.746  0.00  0.00    +0.178 C 
ATOM     28  C   UNL     1     -32.910  30.694   3.893  0.00  0.00    +0.246 C 
BRANCH  24  29
ATOM     29  O   UNL     1     -32.927  26.589   4.326  0.00  0.00    -0.377 OA
ATOM     30  H   UNL     1     -33.579  26.718   5.033  0.00  0.00    +0.211 HD
ENDBRANCH  24  29
BRANCH  25  31
ATOM     31  O   UNL     1     -30.833  28.152   5.684  0.00  0.00    -0.379 OA
ATOM     32  H   UNL     1     -31.025  27.777   6.557  0.00  0.00    +0.211 HD
ENDBRANCH  25  31
BRANCH  27  33
ATOM     33  O   UNL     1     -31.679  30.922   5.938  0.00  0.00    -0.379 OA
ATOM     34  H   UNL     1     -32.562  31.233   6.193  0.00  0.00    +0.211 HD
ENDBRANCH  27  33
BRANCH  28  36
ATOM     35  O   UNL     1     -31.481  32.594   3.476  0.00  0.00    -0.247 OA
ATOM     36  C   UNL     1     -32.545  32.017   3.305  0.00  0.00    +0.344 C 
BRANCH  36  37
ATOM     37  O   UNL     1     -33.562  32.503   2.550  0.00  0.00    -0.478 OA
ATOM     38  H   UNL     1     -33.422  33.247   1.999  0.00  0.00    +0.295 HD
ENDBRANCH  36  37
ENDBRANCH  28  36
ENDBRANCH  22  26
ENDBRANCH  14  22
TORSDOF 7
ENDMDL
MODEL 3
REMARK VINA RESULT:      -7.1      2.544      4.168
REMARK  Name = 195434
REMARK  7 active torsions:
REMARK  status: ('A' for Active; 'I' for Inactive)
REMARK    1  A    between atoms: C_14  and  O_22
REMARK    2  A    between atoms: O_22  and  C_26
REMARK    3  A    between atoms: C_24  and  O_29
REMARK    4  A    between atoms: C_25  and  O_31
REMARK    5  A    between atoms: C_27  and  O_33
REMARK    6  A    between atoms: C_28  and  C_36
REMARK    7  A    between atoms: C_36  and  O_37
REMARK                            x       y       z     vdW  Elec       q    Type
REMARK                         _______ _______ _______ _____ _____    ______ ____
ROOT
ATOM      1  O   UNL     1     -32.881  28.803   1.146  0.00  0.00    -0.226 OA
ATOM      2  N   UNL     1     -36.062  32.742   1.514  0.00  0.00    -0.288 N 
ATOM      3  N   UNL     1     -34.557  30.282   1.783  0.00  0.00    -0.242 N 
ATOM      4  N   UNL     1     -38.192  33.745   1.710  0.00  0.00    -0.229 NA
ATOM      5  C   UNL     1     -34.776  32.600   0.813  0.00  0.00    +0.116 C 
ATOM      6  C   UNL     1     -34.426  31.113   0.589  0.00  0.00    +0.121 C 
ATOM      7  C   UNL     1     -36.648  31.559   2.156  0.00  0.00    +0.114 C 
ATOM      8  C   UNL     1     -35.562  30.679   2.763  0.00  0.00    +0.118 C 
ATOM      9  C   UNL     1     -33.733  33.450   1.517  0.00  0.00    -0.006 C 
ATOM     10  C   UNL     1     -36.867  33.879   1.392  0.00  0.00    +0.128 C 
ATOM     11  C   UNL     1     -33.868  34.851   1.435  0.00  0.00    -0.020 C 
ATOM     12  C   UNL     1     -34.956  35.460   0.583  0.00  0.00    +0.055 C 
ATOM     13  C   UNL     1     -36.382  35.140   0.985  0.00  0.00    +0.014 C 
ATOM     14  C   UNL     1     -33.737  29.162   1.952  0.00  0.00    +0.407 C 
ATOM     15  C   UNL     1     -32.676  32.920   2.272  0.00  0.00    -0.003 C 
ATOM     16  C   UNL     1     -32.959  35.683   2.108  0.00  0.00    -0.004 C 
ATOM     17  C   UNL     1     -37.300  36.209   0.884  0.00  0.00    +0.000 C 
ATOM     18  C   UNL     1     -31.777  33.758   2.936  0.00  0.00    -0.000 C 
ATOM     19  C   UNL     1     -31.921  35.138   2.858  0.00  0.00    -0.000 C 
ATOM     20  C   UNL     1     -38.636  36.047   1.203  0.00  0.00    +0.020 C 
ATOM     21  C   UNL     1     -39.030  34.799   1.613  0.00  0.00    +0.100 C 
ENDROOT
BRANCH  14  22
ATOM     22  O   UNL     1     -33.984  28.507   3.129  0.00  0.00    -0.408 OA
BRANCH  22  26
ATOM     23  O   UNL     1     -35.990  27.368   2.753  0.00  0.00    -0.307 OA
ATOM     24  C   UNL     1     -34.381  26.473   4.332  0.00  0.00    +0.211 C 
ATOM     25  C   UNL     1     -35.123  25.137   4.342  0.00  0.00    +0.173 C 
ATOM     26  C   UNL     1     -34.598  27.217   3.014  0.00  0.00    +0.322 C 
ATOM     27  C   UNL     1     -36.575  25.302   3.892  0.00  0.00    +0.178 C 
ATOM     28  C   UNL     1     -36.653  26.117   2.606  0.00  0.00    +0.246 C 
BRANCH  24  29
ATOM     29  O   UNL     1     -32.982  26.238   4.489  0.00  0.00    -0.377 OA
ATOM     30  H   UNL     1     -32.576  26.994   4.943  0.00  0.00    +0.211 HD
ENDBRANCH  24  29
BRANCH  25  31
ATOM     31  O   UNL     1     -35.130  24.604   5.668  0.00  0.00    -0.379 OA
ATOM     32  H   UNL     1     -35.898  24.947   6.150  0.00  0.00    +0.211 HD
ENDBRANCH  25  31
BRANCH  27  33
ATOM     33  O   UNL     1     -37.139  24.014   3.651  0.00  0.00    -0.379 OA
ATOM     34  H   UNL     1     -36.483  23.330   3.859  0.00  0.00    +0.211 HD
ENDBRANCH  27  33
BRANCH  28  36
ATOM     35  O   UNL     1     -38.462  26.922   1.227  0.00  0.00    -0.247 OA
ATOM     36  C   UNL     1     -38.063  26.508   2.305  0.00  0.00    +0.344 C 
BRANCH  36  37
ATOM     37  O   UNL     1     -38.849  26.345   3.398  0.00  0.00    -0.478 OA
ATOM     38  H   UNL     1     -38.574  26.683   4.227  0.00  0.00    +0.295 HD
ENDBRANCH  36  37
ENDBRANCH  28  36
ENDBRANCH  22  26
ENDBRANCH  14  22
TORSDOF 7
ENDMDL
MODEL 4
REMARK VINA RESULT:      -7.1      3.689      8.172
REMARK  Name = 195434
REMARK  7 active torsions:
REMARK  status: ('A' for Active; 'I' for Inactive)
REMARK    1  A    between atoms: C_14  and  O_22
REMARK    2  A    between atoms: O_22  and  C_26
REMARK    3  A    between atoms: C_24  and  O_29
REMARK    4  A    between atoms: C_25  and  O_31
REMARK    5  A    between atoms: C_27  and  O_33
REMARK    6  A    between atoms: C_28  and  C_36
REMARK    7  A    between atoms: C_36  and  O_37
REMARK                            x       y       z     vdW  Elec       q    Type
REMARK                         _______ _______ _______ _____ _____    ______ ____
ROOT
ATOM      1  O   UNL     1     -33.776  26.029   6.114  0.00  0.00    -0.226 OA
ATOM      2  N   UNL     1     -37.439  26.042   2.600  0.00  0.00    -0.288 N 
ATOM      3  N   UNL     1     -35.041  26.361   4.193  0.00  0.00    -0.242 N 
ATOM      4  N   UNL     1     -38.874  27.065   1.027  0.00  0.00    -0.229 NA
ATOM      5  C   UNL     1     -37.240  25.195   3.787  0.00  0.00    +0.116 C 
ATOM      6  C   UNL     1     -36.276  25.862   4.791  0.00  0.00    +0.121 C 
ATOM      7  C   UNL     1     -36.524  27.167   2.378  0.00  0.00    +0.114 C 
ATOM      8  C   UNL     1     -35.106  26.805   2.805  0.00  0.00    +0.118 C 
ATOM      9  C   UNL     1     -36.891  23.787   3.335  0.00  0.00    -0.006 C 
ATOM     10  C   UNL     1     -38.593  25.979   1.812  0.00  0.00    +0.128 C 
ATOM     11  C   UNL     1     -37.901  23.034   2.701  0.00  0.00    -0.020 C 
ATOM     12  C   UNL     1     -39.300  23.589   2.584  0.00  0.00    +0.055 C 
ATOM     13  C   UNL     1     -39.453  24.861   1.773  0.00  0.00    +0.014 C 
ATOM     14  C   UNL     1     -33.863  26.397   4.944  0.00  0.00    +0.407 C 
ATOM     15  C   UNL     1     -35.618  23.216   3.478  0.00  0.00    -0.003 C 
ATOM     16  C   UNL     1     -37.618  21.746   2.221  0.00  0.00    -0.004 C 
ATOM     17  C   UNL     1     -40.598  24.926   0.948  0.00  0.00    +0.000 C 
ATOM     18  C   UNL     1     -35.348  21.932   2.997  0.00  0.00    -0.000 C 
ATOM     19  C   UNL     1     -36.346  21.199   2.366  0.00  0.00    -0.000 C 
ATOM     20  C   UNL     1     -40.865  26.039   0.170  0.00  0.00    +0.020 C 
ATOM     21  C   UNL     1     -39.972  27.077   0.242  0.00  0.00    +0.100 C 
ENDROOT
BRANCH  14  22
ATOM     22  O   UNL     1     -32.801  26.881   4.227  0.00  0.00    -0.408 OA
BRANCH  22  26
ATOM     23  O   UNL     1     -33.362  29.122   3.875  0.00  0.00    -0.307 OA
ATOM     24  C   UNL     1     -31.027  28.463   3.924  0.00  0.00    +0.211 C 
ATOM     25  C   UNL     1     -30.609  29.928   4.044  0.00  0.00    +0.173 C 
ATOM     26  C   UNL     1     -32.429  28.239   4.492  0.00  0.00    +0.322 C 
ATOM     27  C   UNL     1     -31.702  30.864   3.530  0.00  0.00    +0.178 C 
ATOM     28  C   UNL     1     -33.056  30.490   4.122  0.00  0.00    +0.246 C 
BRANCH  24  29
ATOM     29  O   UNL     1     -30.112  27.647   4.655  0.00  0.00    -0.377 OA
ATOM     30  H   UNL     1     -30.539  27.329   5.466  0.00  0.00    +0.211 HD
ENDBRANCH  24  29
BRANCH  25  31
ATOM     31  O   UNL     1     -29.432  30.154   3.266  0.00  0.00    -0.379 OA
ATOM     32  H   UNL     1     -28.797  29.439   3.426  0.00  0.00    +0.211 HD
ENDBRANCH  25  31
BRANCH  27  33
ATOM     33  O   UNL     1     -31.390  32.202   3.914  0.00  0.00    -0.379 OA
ATOM     34  H   UNL     1     -31.168  32.722   3.125  0.00  0.00    +0.211 HD
ENDBRANCH  27  33
BRANCH  28  36
ATOM     35  O   UNL     1     -34.010  32.125   2.625  0.00  0.00    -0.247 OA
ATOM     36  C   UNL     1     -34.162  31.218   3.430  0.00  0.00    +0.344 C 
BRANCH  36  37
ATOM     37  O   UNL     1     -35.369  30.738   3.820  0.00  0.00    -0.478 OA
ATOM     38  H   UNL     1     -35.487  30.422   4.694  0.00  0.00    +0.295 HD
ENDBRANCH  36  37
ENDBRANCH  28  36
ENDBRANCH  22  26
ENDBRANCH  14  22
TORSDOF 7
ENDMDL
MODEL 5
REMARK VINA RESULT:      -7.0      3.985      9.118
REMARK  Name = 195434
REMARK  7 active torsions:
REMARK  status: ('A' for Active; 'I' for Inactive)
REMARK    1  A    between atoms: C_14  and  O_22
REMARK    2  A    between atoms: O_22  and  C_26
REMARK    3  A    between atoms: C_24  and  O_29
REMARK    4  A    between atoms: C_25  and  O_31
REMARK    5  A    between atoms: C_27  and  O_33
REMARK    6  A    between atoms: C_28  and  C_36
REMARK    7  A    between atoms: C_36  and  O_37
REMARK                            x       y       z     vdW  Elec       q    Type
REMARK                         _______ _______ _______ _____ _____    ______ ____
ROOT
ATOM      1  O   UNL     1     -37.816  27.097   1.826  0.00  0.00    -0.226 OA
ATOM      2  N   UNL     1     -34.869  23.022   1.130  0.00  0.00    -0.288 N 
ATOM      3  N   UNL     1     -36.053  25.656   1.361  0.00  0.00    -0.242 N 
ATOM      4  N   UNL     1     -33.353  21.675  -0.081  0.00  0.00    -0.229 NA
ATOM      5  C   UNL     1     -36.143  23.183   1.849  0.00  0.00    +0.116 C 
ATOM      6  C   UNL     1     -36.885  24.456   1.388  0.00  0.00    +0.121 C 
ATOM      7  C   UNL     1     -34.343  24.161   0.369  0.00  0.00    +0.114 C 
ATOM      8  C   UNL     1     -34.631  25.473   1.088  0.00  0.00    +0.118 C 
ATOM      9  C   UNL     1     -35.890  23.041   3.341  0.00  0.00    -0.006 C 
ATOM     10  C   UNL     1     -34.263  21.777   0.936  0.00  0.00    +0.128 C 
ATOM     11  C   UNL     1     -35.531  21.766   3.824  0.00  0.00    -0.020 C 
ATOM     12  C   UNL     1     -35.511  20.579   2.890  0.00  0.00    +0.055 C 
ATOM     13  C   UNL     1     -34.527  20.646   1.739  0.00  0.00    +0.014 C 
ATOM     14  C   UNL     1     -36.623  26.911   1.592  0.00  0.00    +0.407 C 
ATOM     15  C   UNL     1     -35.955  24.108   4.248  0.00  0.00    -0.003 C 
ATOM     16  C   UNL     1     -35.239  21.588   5.185  0.00  0.00    -0.004 C 
ATOM     17  C   UNL     1     -33.863  19.438   1.431  0.00  0.00    +0.000 C 
ATOM     18  C   UNL     1     -35.663  23.920   5.601  0.00  0.00    -0.000 C 
ATOM     19  C   UNL     1     -35.302  22.663   6.069  0.00  0.00    -0.000 C 
ATOM     20  C   UNL     1     -32.952  19.358   0.392  0.00  0.00    +0.020 C 
ATOM     21  C   UNL     1     -32.731  20.504  -0.329  0.00  0.00    +0.100 C 
ENDROOT
BRANCH  14  22
ATOM     22  O   UNL     1     -35.700  27.922   1.542  0.00  0.00    -0.408 OA
BRANCH  22  26
ATOM     23  O   UNL     1     -36.335  29.506  -0.054  0.00  0.00    -0.307 OA
ATOM     24  C   UNL     1     -35.259  30.233   1.996  0.00  0.00    +0.211 C 
ATOM     25  C   UNL     1     -35.673  31.676   1.709  0.00  0.00    +0.173 C 
ATOM     26  C   UNL     1     -36.222  29.241   1.341  0.00  0.00    +0.322 C 
ATOM     27  C   UNL     1     -35.955  31.891   0.222  0.00  0.00    +0.178 C 
ATOM     28  C   UNL     1     -36.870  30.799  -0.318  0.00  0.00    +0.246 C 
BRANCH  24  29
ATOM     29  O   UNL     1     -35.273  30.007   3.405  0.00  0.00    -0.377 OA
ATOM     30  H   UNL     1     -35.507  29.082   3.582  0.00  0.00    +0.211 HD
ENDBRANCH  24  29
BRANCH  25  31
ATOM     31  O   UNL     1     -34.618  32.560   2.091  0.00  0.00    -0.379 OA
ATOM     32  H   UNL     1     -34.264  33.000   1.303  0.00  0.00    +0.211 HD
ENDBRANCH  25  31
BRANCH  27  33
ATOM     33  O   UNL     1     -36.596  33.153   0.045  0.00  0.00    -0.379 OA
ATOM     34  H   UNL     1     -37.177  33.115  -0.731  0.00  0.00    +0.211 HD
ENDBRANCH  27  33
BRANCH  28  36
ATOM     35  O   UNL     1     -37.061  31.861  -2.477  0.00  0.00    -0.247 OA
ATOM     36  C   UNL     1     -36.936  30.845  -1.810  0.00  0.00    +0.344 C 
BRANCH  36  37
ATOM     37  O   UNL     1     -36.840  29.597  -2.332  0.00  0.00    -0.478 OA
ATOM     38  H   UNL     1     -36.458  28.906  -1.828  0.00  0.00    +0.295 HD
ENDBRANCH  36  37
ENDBRANCH  28  36
ENDBRANCH  22  26
ENDBRANCH  14  22
TORSDOF 7
ENDMDL
MODEL 6
REMARK VINA RESULT:      -6.9      6.096     10.956
REMARK  Name = 195434
REMARK  7 active torsions:
REMARK  status: ('A' for Active; 'I' for Inactive)
REMARK    1  A    between atoms: C_14  and  O_22
REMARK    2  A    between atoms: O_22  and  C_26
REMARK    3  A    between atoms: C_24  and  O_29
REMARK    4  A    between atoms: C_25  and  O_31
REMARK    5  A    between atoms: C_27  and  O_33
REMARK    6  A    between atoms: C_28  and  C_36
REMARK    7  A    between atoms: C_36  and  O_37
REMARK                            x       y       z     vdW  Elec       q    Type
REMARK                         _______ _______ _______ _____ _____    ______ ____
ROOT
ATOM      1  O   UNL     1     -38.201  22.213  -0.477  0.00  0.00    -0.226 OA
ATOM      2  N   UNL     1     -34.216  19.134   0.163  0.00  0.00    -0.288 N 
ATOM      3  N   UNL     1     -36.420  20.999   0.393  0.00  0.00    -0.242 N 
ATOM      4  N   UNL     1     -32.042  18.597   0.914  0.00  0.00    -0.229 NA
ATOM      5  C   UNL     1     -35.211  19.216  -0.918  0.00  0.00    +0.116 C 
ATOM      6  C   UNL     1     -35.923  20.586  -0.916  0.00  0.00    +0.121 C 
ATOM      7  C   UNL     1     -34.248  20.146   1.226  0.00  0.00    +0.114 C 
ATOM      8  C   UNL     1     -35.682  20.533   1.563  0.00  0.00    +0.118 C 
ATOM      9  C   UNL     1     -36.099  17.984  -0.867  0.00  0.00    -0.006 C 
ATOM     10  C   UNL     1     -33.100  18.294   0.101  0.00  0.00    +0.128 C 
ATOM     11  C   UNL     1     -35.517  16.745  -1.205  0.00  0.00    -0.020 C 
ATOM     12  C   UNL     1     -34.092  16.686  -1.700  0.00  0.00    +0.055 C 
ATOM     13  C   UNL     1     -33.024  17.156  -0.731  0.00  0.00    +0.014 C 
ATOM     14  C   UNL     1     -37.558  21.806   0.489  0.00  0.00    +0.407 C 
ATOM     15  C   UNL     1     -37.443  18.008  -0.467  0.00  0.00    -0.003 C 
ATOM     16  C   UNL     1     -36.279  15.569  -1.129  0.00  0.00    -0.004 C 
ATOM     17  C   UNL     1     -31.834  16.396  -0.717  0.00  0.00    +0.000 C 
ATOM     18  C   UNL     1     -38.192  16.831  -0.396  0.00  0.00    -0.000 C 
ATOM     19  C   UNL     1     -37.610  15.612  -0.722  0.00  0.00    -0.000 C 
ATOM     20  C   UNL     1     -30.774  16.728   0.108  0.00  0.00    +0.020 C 
ATOM     21  C   UNL     1     -30.929  17.833   0.905  0.00  0.00    +0.100 C 
ENDROOT
BRANCH  14  22
ATOM     22  O   UNL     1     -37.891  22.088   1.787  0.00  0.00    -0.408 OA
BRANCH  22  26
ATOM     23  O   UNL     1     -36.774  23.058   3.596  0.00  0.00    -0.307 OA
ATOM     24  C   UNL     1     -38.513  24.304   2.452  0.00  0.00    +0.211 C 
ATOM     25  C   UNL     1     -38.057  25.588   3.144  0.00  0.00    +0.173 C 
ATOM     26  C   UNL     1     -37.361  23.307   2.322  0.00  0.00    +0.322 C 
ATOM     27  C   UNL     1     -37.279  25.286   4.425  0.00  0.00    +0.178 C 
ATOM     28  C   UNL     1     -36.209  24.232   4.171  0.00  0.00    +0.246 C 
BRANCH  24  29
ATOM     29  O   UNL     1     -38.987  24.615   1.142  0.00  0.00    -0.377 OA
ATOM     30  H   UNL     1     -38.638  25.478   0.869  0.00  0.00    +0.211 HD
ENDBRANCH  24  29
BRANCH  25  31
ATOM     31  O   UNL     1     -39.199  26.372   3.496  0.00  0.00    -0.379 OA
ATOM     32  H   UNL     1     -39.143  27.237   3.061  0.00  0.00    +0.211 HD
ENDBRANCH  25  31
BRANCH  27  33
ATOM     33  O   UNL     1     -36.644  26.481   4.879  0.00  0.00    -0.379 OA
ATOM     34  H   UNL     1     -37.311  27.081   5.250  0.00  0.00    +0.211 HD
ENDBRANCH  27  33
BRANCH  28  36
ATOM     35  O   UNL     1     -35.993  22.739   6.054  0.00  0.00    -0.247 OA
ATOM     36  C   UNL     1     -35.627  23.739   5.455  0.00  0.00    +0.344 C 
BRANCH  36  37
ATOM     37  O   UNL     1     -34.630  24.557   5.875  0.00  0.00    -0.478 OA
ATOM     38  H   UNL     1     -33.849  24.644   5.364  0.00  0.00    +0.295 HD
ENDBRANCH  36  37
ENDBRANCH  28  36
ENDBRANCH  22  26
ENDBRANCH  14  22
TORSDOF 7
ENDMDL
MODEL 7
REMARK VINA RESULT:      -6.9      2.692      3.528
REMARK  Name = 195434
REMARK  7 active torsions:
REMARK  status: ('A' for Active; 'I' for Inactive)
REMARK    1  A    between atoms: C_14  and  O_22
REMARK    2  A    between atoms: O_22  and  C_26
REMARK    3  A    between atoms: C_24  and  O_29
REMARK    4  A    between atoms: C_25  and  O_31
REMARK    5  A    between atoms: C_27  and  O_33
REMARK    6  A    between atoms: C_28  and  C_36
REMARK    7  A    between atoms: C_36  and  O_37
REMARK                            x       y       z     vdW  Elec       q    Type
REMARK                         _______ _______ _______ _____ _____    ______ ____
ROOT
ATOM      1  O   UNL     1     -32.073  26.240   2.982  0.00  0.00    -0.226 OA
ATOM      2  N   UNL     1     -31.139  31.219   3.297  0.00  0.00    -0.288 N 
ATOM      3  N   UNL     1     -32.230  28.536   3.300  0.00  0.00    -0.242 N 
ATOM      4  N   UNL     1     -31.595  33.500   2.882  0.00  0.00    -0.229 NA
ATOM      5  C   UNL     1     -30.227  30.067   3.235  0.00  0.00    +0.116 C 
ATOM      6  C   UNL     1     -30.943  28.820   2.672  0.00  0.00    +0.121 C 
ATOM      7  C   UNL     1     -32.579  30.985   3.145  0.00  0.00    +0.114 C 
ATOM      8  C   UNL     1     -32.989  29.675   3.807  0.00  0.00    +0.118 C 
ATOM      9  C   UNL     1     -29.536  29.910   4.579  0.00  0.00    -0.006 C 
ATOM     10  C   UNL     1     -30.688  32.543   3.251  0.00  0.00    +0.128 C 
ATOM     11  C   UNL     1     -28.605  30.900   4.954  0.00  0.00    -0.020 C 
ATOM     12  C   UNL     1     -28.245  32.007   3.992  0.00  0.00    +0.055 C 
ATOM     13  C   UNL     1     -29.373  32.933   3.580  0.00  0.00    +0.014 C 
ATOM     14  C   UNL     1     -32.688  27.219   3.398  0.00  0.00    +0.407 C 
ATOM     15  C   UNL     1     -29.802  28.865   5.475  0.00  0.00    -0.003 C 
ATOM     16  C   UNL     1     -27.973  30.830   6.206  0.00  0.00    -0.004 C 
ATOM     17  C   UNL     1     -29.035  34.300   3.477  0.00  0.00    +0.000 C 
ATOM     18  C   UNL     1     -29.167  28.804   6.718  0.00  0.00    -0.000 C 
ATOM     19  C   UNL     1     -28.257  29.788   7.085  0.00  0.00    -0.000 C 
ATOM     20  C   UNL     1     -29.967  35.248   3.094  0.00  0.00    +0.020 C 
ATOM     21  C   UNL     1     -31.231  34.797   2.811  0.00  0.00    +0.100 C 
ENDROOT
BRANCH  14  22
ATOM     22  O   UNL     1     -33.904  27.134   4.024  0.00  0.00    -0.408 OA
BRANCH  22  26
ATOM     23  O   UNL     1     -36.048  26.625   3.245  0.00  0.00    -0.307 OA
ATOM     24  C   UNL     1     -34.899  25.063   4.704  0.00  0.00    +0.211 C 
ATOM     25  C   UNL     1     -35.917  23.977   4.356  0.00  0.00    +0.173 C 
ATOM     26  C   UNL     1     -34.771  26.085   3.574  0.00  0.00    +0.322 C 
ATOM     27  C   UNL     1     -37.224  24.582   3.842  0.00  0.00    +0.178 C 
ATOM     28  C   UNL     1     -36.949  25.630   2.770  0.00  0.00    +0.246 C 
BRANCH  24  29
ATOM     29  O   UNL     1     -33.620  24.463   4.913  0.00  0.00    -0.377 OA
ATOM     30  H   UNL     1     -33.422  23.861   4.178  0.00  0.00    +0.211 HD
ENDBRANCH  24  29
BRANCH  25  31
ATOM     31  O   UNL     1     -36.214  23.209   5.523  0.00  0.00    -0.379 OA
ATOM     32  H   UNL     1     -35.962  23.711   6.313  0.00  0.00    +0.211 HD
ENDBRANCH  25  31
BRANCH  27  33
ATOM     33  O   UNL     1     -38.026  23.548   3.275  0.00  0.00    -0.379 OA
ATOM     34  H   UNL     1     -38.955  23.689   3.519  0.00  0.00    +0.211 HD
ENDBRANCH  27  33
BRANCH  28  36
ATOM     35  O   UNL     1     -38.368  27.053   1.432  0.00  0.00    -0.247 OA
ATOM     36  C   UNL     1     -38.184  26.410   2.455  0.00  0.00    +0.344 C 
BRANCH  36  37
ATOM     37  O   UNL     1     -39.083  26.311   3.466  0.00  0.00    -0.478 OA
ATOM     38  H   UNL     1     -39.633  27.041   3.676  0.00  0.00    +0.295 HD
ENDBRANCH  36  37
ENDBRANCH  28  36
ENDBRANCH  22  26
ENDBRANCH  14  22
TORSDOF 7
ENDMDL
MODEL 8
REMARK VINA RESULT:      -6.8      3.617      8.252
REMARK  Name = 195434
REMARK  7 active torsions:
REMARK  status: ('A' for Active; 'I' for Inactive)
REMARK    1  A    between atoms: C_14  and  O_22
REMARK    2  A    between atoms: O_22  and  C_26
REMARK    3  A    between atoms: C_24  and  O_29
REMARK    4  A    between atoms: C_25  and  O_31
REMARK    5  A    between atoms: C_27  and  O_33
REMARK    6  A    between atoms: C_28  and  C_36
REMARK    7  A    between atoms: C_36  and  O_37
REMARK                            x       y       z     vdW  Elec       q    Type
REMARK                         _______ _______ _______ _____ _____    ______ ____
ROOT
ATOM      1  O   UNL     1     -33.556  25.596   5.074  0.00  0.00    -0.226 OA
ATOM      2  N   UNL     1     -37.850  25.822   2.376  0.00  0.00    -0.288 N 
ATOM      3  N   UNL     1     -35.174  26.035   3.465  0.00  0.00    -0.242 N 
ATOM      4  N   UNL     1     -39.550  26.936   1.172  0.00  0.00    -0.229 NA
ATOM      5  C   UNL     1     -37.434  24.915   3.458  0.00  0.00    +0.116 C 
ATOM      6  C   UNL     1     -36.274  25.522   4.277  0.00  0.00    +0.121 C 
ATOM      7  C   UNL     1     -36.974  26.946   2.025  0.00  0.00    +0.114 C 
ATOM      8  C   UNL     1     -35.508  26.547   2.140  0.00  0.00    +0.118 C 
ATOM      9  C   UNL     1     -37.213  23.527   2.882  0.00  0.00    -0.006 C 
ATOM     10  C   UNL     1     -39.140  25.811   1.835  0.00  0.00    +0.128 C 
ATOM     11  C   UNL     1     -38.345  22.818   2.432  0.00  0.00    -0.020 C 
ATOM     12  C   UNL     1     -39.727  23.395   2.625  0.00  0.00    +0.055 C 
ATOM     13  C   UNL     1     -40.013  24.706   1.920  0.00  0.00    +0.014 C 
ATOM     14  C   UNL     1     -33.868  26.021   3.964  0.00  0.00    +0.407 C 
ATOM     15  C   UNL     1     -35.949  22.935   2.739  0.00  0.00    -0.003 C 
ATOM     16  C   UNL     1     -38.192  21.551   1.847  0.00  0.00    -0.004 C 
ATOM     17  C   UNL     1     -41.299  24.825   1.347  0.00  0.00    +0.000 C 
ATOM     18  C   UNL     1     -35.809  21.674   2.156  0.00  0.00    -0.000 C 
ATOM     19  C   UNL     1     -36.928  20.984   1.707  0.00  0.00    -0.000 C 
ATOM     20  C   UNL     1     -41.694  25.976   0.690  0.00  0.00    +0.020 C 
ATOM     21  C   UNL     1     -40.783  26.999   0.627  0.00  0.00    +0.100 C 
ENDROOT
BRANCH  14  22
ATOM     22  O   UNL     1     -32.962  26.526   3.069  0.00  0.00    -0.408 OA
BRANCH  22  26
ATOM     23  O   UNL     1     -32.333  27.821   4.910  0.00  0.00    -0.307 OA
ATOM     24  C   UNL     1     -32.858  28.906   2.803  0.00  0.00    +0.211 C 
ATOM     25  C   UNL     1     -32.232  30.205   3.308  0.00  0.00    +0.173 C 
ATOM     26  C   UNL     1     -32.240  27.689   3.494  0.00  0.00    +0.322 C 
ATOM     27  C   UNL     1     -32.188  30.247   4.836  0.00  0.00    +0.178 C 
ATOM     28  C   UNL     1     -31.614  28.950   5.396  0.00  0.00    +0.246 C 
BRANCH  24  29
ATOM     29  O   UNL     1     -32.632  28.786   1.399  0.00  0.00    -0.377 OA
ATOM     30  H   UNL     1     -32.046  28.032   1.229  0.00  0.00    +0.211 HD
ENDBRANCH  24  29
BRANCH  25  31
ATOM     31  O   UNL     1     -33.009  31.316   2.858  0.00  0.00    -0.379 OA
ATOM     32  H   UNL     1     -32.865  31.447   1.909  0.00  0.00    +0.211 HD
ENDBRANCH  25  31
BRANCH  27  33
ATOM     33  O   UNL     1     -31.357  31.330   5.250  0.00  0.00    -0.379 OA
ATOM     34  H   UNL     1     -31.696  31.698   6.082  0.00  0.00    +0.211 HD
ENDBRANCH  27  33
BRANCH  28  36
ATOM     35  O   UNL     1     -31.438  29.713   7.679  0.00  0.00    -0.247 OA
ATOM     36  C   UNL     1     -31.812  28.872   6.874  0.00  0.00    +0.344 C 
BRANCH  36  37
ATOM     37  O   UNL     1     -32.466  27.733   7.210  0.00  0.00    -0.478 OA
ATOM     38  H   UNL     1     -32.875  27.214   6.546  0.00  0.00    +0.295 HD
ENDBRANCH  36  37
ENDBRANCH  28  36
ENDBRANCH  22  26
ENDBRANCH  14  22
TORSDOF 7
ENDMDL
MODEL 9
REMARK VINA RESULT:      -6.8      2.746      3.921
REMARK  Name = 195434
REMARK  7 active torsions:
REMARK  status: ('A' for Active; 'I' for Inactive)
REMARK    1  A    between atoms: C_14  and  O_22
REMARK    2  A    between atoms: O_22  and  C_26
REMARK    3  A    between atoms: C_24  and  O_29
REMARK    4  A    between atoms: C_25  and  O_31
REMARK    5  A    between atoms: C_27  and  O_33
REMARK    6  A    between atoms: C_28  and  C_36
REMARK    7  A    between atoms: C_36  and  O_37
REMARK                            x       y       z     vdW  Elec       q    Type
REMARK                         _______ _______ _______ _____ _____    ______ ____
ROOT
ATOM      1  O   UNL     1     -34.765  23.541   2.878  0.00  0.00    -0.226 OA
ATOM      2  N   UNL     1     -34.321  28.593   2.656  0.00  0.00    -0.288 N 
ATOM      3  N   UNL     1     -35.170  25.828   2.821  0.00  0.00    -0.242 N 
ATOM      4  N   UNL     1     -34.854  30.741   1.831  0.00  0.00    -0.229 NA
ATOM      5  C   UNL     1     -33.328  27.547   2.950  0.00  0.00    +0.116 C 
ATOM      6  C   UNL     1     -33.803  26.170   2.438  0.00  0.00    +0.121 C 
ATOM      7  C   UNL     1     -35.670  28.186   2.245  0.00  0.00    +0.114 C 
ATOM      8  C   UNL     1     -36.109  26.933   2.991  0.00  0.00    +0.118 C 
ATOM      9  C   UNL     1     -32.938  27.634   4.416  0.00  0.00    -0.006 C 
ATOM     10  C   UNL     1     -33.977  29.941   2.513  0.00  0.00    +0.128 C 
ATOM     11  C   UNL     1     -32.194  28.758   4.828  0.00  0.00    -0.020 C 
ATOM     12  C   UNL     1     -31.721  29.769   3.811  0.00  0.00    +0.055 C 
ATOM     13  C   UNL     1     -32.801  30.509   3.047  0.00  0.00    +0.014 C 
ATOM     14  C   UNL     1     -35.532  24.492   3.012  0.00  0.00    +0.407 C 
ATOM     15  C   UNL     1     -33.311  26.685   5.379  0.00  0.00    -0.003 C 
ATOM     16  C   UNL     1     -31.848  28.913   6.180  0.00  0.00    -0.004 C 
ATOM     17  C   UNL     1     -32.558  31.881   2.819  0.00  0.00    +0.000 C 
ATOM     18  C   UNL     1     -32.960  26.849   6.722  0.00  0.00    -0.000 C 
ATOM     19  C   UNL     1     -32.234  27.963   7.123  0.00  0.00    -0.000 C 
ATOM     20  C   UNL     1     -33.456  32.668   2.119  0.00  0.00    +0.020 C 
ATOM     21  C   UNL     1     -34.588  32.052   1.650  0.00  0.00    +0.100 C 
ENDROOT
BRANCH  14  22
ATOM     22  O   UNL     1     -36.845  24.353   3.379  0.00  0.00    -0.408 OA
BRANCH  22  26
ATOM     23  O   UNL     1     -38.803  24.978   2.267  0.00  0.00    -0.307 OA
ATOM     24  C   UNL     1     -38.332  22.626   2.638  0.00  0.00    +0.211 C 
ATOM     25  C   UNL     1     -39.420  22.243   1.637  0.00  0.00    +0.173 C 
ATOM     26  C   UNL     1     -37.759  24.010   2.330  0.00  0.00    +0.322 C 
ATOM     27  C   UNL     1     -40.438  23.371   1.459  0.00  0.00    +0.178 C 
ATOM     28  C   UNL     1     -39.734  24.702   1.226  0.00  0.00    +0.246 C 
BRANCH  24  29
ATOM     29  O   UNL     1     -37.269  21.676   2.569  0.00  0.00    -0.377 OA
ATOM     30  H   UNL     1     -37.609  20.795   2.791  0.00  0.00    +0.211 HD
ENDBRANCH  24  29
BRANCH  25  31
ATOM     31  O   UNL     1     -40.118  21.089   2.107  0.00  0.00    -0.379 OA
ATOM     32  H   UNL     1     -39.738  20.804   2.952  0.00  0.00    +0.211 HD
ENDBRANCH  25  31
BRANCH  27  33
ATOM     33  O   UNL     1     -41.260  23.084   0.329  0.00  0.00    -0.379 OA
ATOM     34  H   UNL     1     -41.519  22.149   0.346  0.00  0.00    +0.211 HD
ENDBRANCH  27  33
BRANCH  28  36
ATOM     35  O   UNL     1     -40.406  27.020   1.188  0.00  0.00    -0.247 OA
ATOM     36  C   UNL     1     -40.698  25.840   1.318  0.00  0.00    +0.344 C 
BRANCH  36  37
ATOM     37  O   UNL     1     -41.951  25.387   1.569  0.00  0.00    -0.478 OA
ATOM     38  H   UNL     1     -42.301  24.675   1.070  0.00  0.00    +0.295 HD
ENDBRANCH  36  37
ENDBRANCH  28  36
ENDBRANCH  22  26
ENDBRANCH  14  22
TORSDOF 7
ENDMDL
