MODEL 1
REMARK VINA RESULT:      -6.0      0.000      0.000
REMARK  Name = 5492258
REMARK  7 active torsions:
REMARK  status: ('A' for Active; 'I' for Inactive)
REMARK    1  A    between atoms: C_4  and  C_7
REMARK    2  A    between atoms: C_5  and  C_18
REMARK    3  A    between atoms: C_7  and  N_9
REMARK    4  A    between atoms: N_9  and  C_12
REMARK    5  A    between atoms: C_12  and  C_15
REMARK    6  A    between atoms: C_15  and  C_17
REMARK    7  A    between atoms: C_18  and  N_21
REMARK                            x       y       z     vdW  Elec       q    Type
REMARK                         _______ _______ _______ _____ _____    ______ ____
ROOT
ATOM      1  O   UNL     1     -39.003  23.790   2.713  0.00  0.00    -0.277 OA
ATOM      2  O   UNL     1     -37.270  24.786   4.676  0.00  0.00    -0.273 OA
ATOM      3  N   UNL     1     -36.990  22.845   3.416  0.00  0.00    -0.256 N 
ATOM      4  C   UNL     1     -38.153  22.904   2.644  0.00  0.00    +0.208 C 
ATOM      5  C   UNL     1     -36.620  23.786   4.380  0.00  0.00    +0.246 C 
ATOM      6  H   UNL     1     -36.384  22.083   3.268  0.00  0.00    +0.157 HD
ENDROOT
BRANCH   4   7
ATOM      7  C   UNL     1     -38.273  21.718   1.697  0.00  0.00    +0.018 C 
ATOM      8  C   UNL     1     -39.725  21.302   1.497  0.00  0.00    -0.014 C 
BRANCH   7   9
ATOM      9  N   UNL     1     -37.523  20.619   2.303  0.00  0.00    +0.397 N 
ATOM     10  H   UNL     1     -38.172  19.882   2.576  0.00  0.00    -0.083 HD
ATOM     11  H   UNL     1     -37.025  20.974   3.119  0.00  0.00    -0.083 HD
BRANCH   9  12
ATOM     12  C   UNL     1     -36.552  20.077   1.363  0.00  0.00    -0.001 C 
ATOM     13  C   UNL     1     -36.562  20.881   0.072  0.00  0.00    -0.016 C 
BRANCH  12  15
ATOM     14  O   UNL     1     -35.033  20.374   3.214  0.00  0.00    -0.297 OA
ATOM     15  C   UNL     1     -35.174  20.138   2.014  0.00  0.00    +0.147 C 
BRANCH  15  17
ATOM     16 CL   UNL     1     -33.061  18.509   1.553  0.00  0.00    -0.105 Cl
ATOM     17  C   UNL     1     -34.000  19.933   1.077  0.00  0.00    +0.157 C 
ENDBRANCH  15  17
ENDBRANCH  12  15
ENDBRANCH   9  12
ENDBRANCH   7   9
ENDBRANCH   4   7
BRANCH   5  18
ATOM     18  C   UNL     1     -35.322  23.402   5.080  0.00  0.00    +0.149 C 
ATOM     19  C   UNL     1     -35.552  22.270   6.070  0.00  0.00    +0.031 C 
BRANCH  18  21
ATOM     20  O   UNL     1     -33.390  25.302   4.040  0.00  0.00    -0.275 OA
ATOM     21  N   UNL     1     -34.802  24.570   5.740  0.00  0.00    -0.298 N 
ATOM     22  C   UNL     1     -33.876  25.425   5.161  0.00  0.00    +0.223 C 
ATOM     23  C   UNL     1     -33.521  26.580   6.058  0.00  0.00    +0.095 C 
ATOM     24  H   UNL     1     -35.120  24.773   6.651  0.00  0.00    +0.150 HD
ENDBRANCH  18  21
ENDBRANCH   5  18
TORSDOF 7
ENDMDL
MODEL 2
REMARK VINA RESULT:      -5.7      2.187      3.747
REMARK  Name = 5492258
REMARK  7 active torsions:
REMARK  status: ('A' for Active; 'I' for Inactive)
REMARK    1  A    between atoms: C_4  and  C_7
REMARK    2  A    between atoms: C_5  and  C_18
REMARK    3  A    between atoms: C_7  and  N_9
REMARK    4  A    between atoms: N_9  and  C_12
REMARK    5  A    between atoms: C_12  and  C_15
REMARK    6  A    between atoms: C_15  and  C_17
REMARK    7  A    between atoms: C_18  and  N_21
REMARK                            x       y       z     vdW  Elec       q    Type
REMARK                         _______ _______ _______ _____ _____    ______ ____
ROOT
ATOM      1  O   UNL     1     -35.181  20.640   4.502  0.00  0.00    -0.277 OA
ATOM      2  O   UNL     1     -35.878  22.983   5.869  0.00  0.00    -0.273 OA
ATOM      3  N   UNL     1     -35.782  22.686   3.558  0.00  0.00    -0.256 N 
ATOM      4  C   UNL     1     -35.386  21.347   3.517  0.00  0.00    +0.208 C 
ATOM      5  C   UNL     1     -36.004  23.420   4.727  0.00  0.00    +0.246 C 
ATOM      6  H   UNL     1     -35.916  23.148   2.700  0.00  0.00    +0.157 HD
ENDROOT
BRANCH   4   7
ATOM      7  C   UNL     1     -35.213  20.845   2.090  0.00  0.00    +0.018 C 
ATOM      8  C   UNL     1     -36.553  20.521   1.441  0.00  0.00    -0.014 C 
BRANCH   7   9
ATOM      9  N   UNL     1     -34.396  19.636   2.166  0.00  0.00    +0.397 N 
ATOM     10  H   UNL     1     -34.974  18.861   2.489  0.00  0.00    -0.083 HD
ATOM     11  H   UNL     1     -33.628  19.800   2.816  0.00  0.00    -0.083 HD
BRANCH   9  12
ATOM     12  C   UNL     1     -33.840  19.305   0.861  0.00  0.00    -0.001 C 
ATOM     13  C   UNL     1     -32.879  20.392   0.407  0.00  0.00    -0.016 C 
BRANCH  12  15
ATOM     14  O   UNL     1     -32.141  17.823   1.721  0.00  0.00    -0.297 OA
ATOM     15  C   UNL     1     -33.112  17.970   0.978  0.00  0.00    +0.147 C 
BRANCH  15  17
ATOM     16 CL   UNL     1     -35.313  17.180  -0.387  0.00  0.00    -0.105 Cl
ATOM     17  C   UNL     1     -33.638  16.859   0.091  0.00  0.00    +0.157 C 
ENDBRANCH  15  17
ENDBRANCH  12  15
ENDBRANCH   9  12
ENDBRANCH   7   9
ENDBRANCH   4   7
BRANCH   5  18
ATOM     18  C   UNL     1     -36.373  24.868   4.427  0.00  0.00    +0.149 C 
ATOM     19  C   UNL     1     -35.876  25.794   5.525  0.00  0.00    +0.031 C 
BRANCH  18  21
ATOM     20  O   UNL     1     -37.933  24.501   2.007  0.00  0.00    -0.275 OA
ATOM     21  N   UNL     1     -37.803  24.949   4.288  0.00  0.00    -0.298 N 
ATOM     22  C   UNL     1     -38.465  24.758   3.084  0.00  0.00    +0.223 C 
ATOM     23  C   UNL     1     -39.959  24.875   3.224  0.00  0.00    +0.095 C 
ATOM     24  H   UNL     1     -38.340  25.151   5.089  0.00  0.00    +0.150 HD
ENDBRANCH  18  21
ENDBRANCH   5  18
TORSDOF 7
ENDMDL
MODEL 3
REMARK VINA RESULT:      -5.7      2.420      5.445
REMARK  Name = 5492258
REMARK  7 active torsions:
REMARK  status: ('A' for Active; 'I' for Inactive)
REMARK    1  A    between atoms: C_4  and  C_7
REMARK    2  A    between atoms: C_5  and  C_18
REMARK    3  A    between atoms: C_7  and  N_9
REMARK    4  A    between atoms: N_9  and  C_12
REMARK    5  A    between atoms: C_12  and  C_15
REMARK    6  A    between atoms: C_15  and  C_17
REMARK    7  A    between atoms: C_18  and  N_21
REMARK                            x       y       z     vdW  Elec       q    Type
REMARK                         _______ _______ _______ _____ _____    ______ ____
ROOT
ATOM      1  O   UNL     1     -35.567  27.046   3.465  0.00  0.00    -0.277 OA
ATOM      2  O   UNL     1     -37.793  27.080   1.765  0.00  0.00    -0.273 OA
ATOM      3  N   UNL     1     -37.488  25.737   3.647  0.00  0.00    -0.256 N 
ATOM      4  C   UNL     1     -36.224  26.182   4.041  0.00  0.00    +0.208 C 
ATOM      5  C   UNL     1     -38.194  26.212   2.537  0.00  0.00    +0.246 C 
ATOM      6  H   UNL     1     -37.915  25.038   4.192  0.00  0.00    +0.157 HD
ENDROOT
BRANCH   4   7
ATOM      7  C   UNL     1     -35.722  25.453   5.281  0.00  0.00    +0.018 C 
ATOM      8  C   UNL     1     -34.202  25.343   5.292  0.00  0.00    -0.014 C 
BRANCH   7   9
ATOM      9  N   UNL     1     -36.314  24.117   5.251  0.00  0.00    +0.397 N 
ATOM     10  H   UNL     1     -37.085  24.108   4.584  0.00  0.00    -0.083 HD
ATOM     11  H   UNL     1     -36.651  23.888   6.186  0.00  0.00    -0.083 HD
BRANCH   9  12
ATOM     12  C   UNL     1     -35.326  23.123   4.854  0.00  0.00    -0.001 C 
ATOM     13  C   UNL     1     -35.189  22.058   5.930  0.00  0.00    -0.016 C 
BRANCH  12  15
ATOM     14  O   UNL     1     -36.337  23.156   2.663  0.00  0.00    -0.297 OA
ATOM     15  C   UNL     1     -35.785  22.494   3.542  0.00  0.00    +0.147 C 
BRANCH  15  17
ATOM     16 CL   UNL     1     -34.824  20.609   1.852  0.00  0.00    -0.105 Cl
ATOM     17  C   UNL     1     -35.553  21.001   3.418  0.00  0.00    +0.157 C 
ENDBRANCH  15  17
ENDBRANCH  12  15
ENDBRANCH   9  12
ENDBRANCH   7   9
ENDBRANCH   4   7
BRANCH   5  18
ATOM     18  C   UNL     1     -39.519  25.482   2.353  0.00  0.00    +0.149 C 
ATOM     19  C   UNL     1     -40.535  25.930   3.391  0.00  0.00    +0.031 C 
BRANCH  18  21
ATOM     20  O   UNL     1     -40.962  23.350   1.011  0.00  0.00    -0.275 OA
ATOM     21  N   UNL     1     -39.273  24.068   2.445  0.00  0.00    -0.298 N 
ATOM     22  C   UNL     1     -40.018  23.117   1.763  0.00  0.00    +0.223 C 
ATOM     23  C   UNL     1     -39.534  21.715   2.018  0.00  0.00    +0.095 C 
ATOM     24  H   UNL     1     -38.536  23.758   3.022  0.00  0.00    +0.150 HD
ENDBRANCH  18  21
ENDBRANCH   5  18
TORSDOF 7
ENDMDL
MODEL 4
REMARK VINA RESULT:      -5.6      2.512      4.153
REMARK  Name = 5492258
REMARK  7 active torsions:
REMARK  status: ('A' for Active; 'I' for Inactive)
REMARK    1  A    between atoms: C_4  and  C_7
REMARK    2  A    between atoms: C_5  and  C_18
REMARK    3  A    between atoms: C_7  and  N_9
REMARK    4  A    between atoms: N_9  and  C_12
REMARK    5  A    between atoms: C_12  and  C_15
REMARK    6  A    between atoms: C_15  and  C_17
REMARK    7  A    between atoms: C_18  and  N_21
REMARK                            x       y       z     vdW  Elec       q    Type
REMARK                         _______ _______ _______ _____ _____    ______ ____
ROOT
ATOM      1  O   UNL     1     -35.109  20.739   4.878  0.00  0.00    -0.277 OA
ATOM      2  O   UNL     1     -35.738  23.236   5.979  0.00  0.00    -0.273 OA
ATOM      3  N   UNL     1     -35.895  22.616   3.738  0.00  0.00    -0.256 N 
ATOM      4  C   UNL     1     -35.453  21.294   3.836  0.00  0.00    +0.208 C 
ATOM      5  C   UNL     1     -36.011  23.503   4.811  0.00  0.00    +0.246 C 
ATOM      6  H   UNL     1     -36.144  22.947   2.845  0.00  0.00    +0.157 HD
ENDROOT
BRANCH   4   7
ATOM      7  C   UNL     1     -35.425  20.598   2.482  0.00  0.00    +0.018 C 
ATOM      8  C   UNL     1     -34.934  21.529   1.381  0.00  0.00    -0.014 C 
BRANCH   7   9
ATOM      9  N   UNL     1     -36.794  20.175   2.197  0.00  0.00    +0.397 N 
ATOM     10  H   UNL     1     -37.395  20.442   2.977  0.00  0.00    -0.083 HD
ATOM     11  H   UNL     1     -36.806  19.163   2.072  0.00  0.00    -0.083 HD
BRANCH   9  12
ATOM     12  C   UNL     1     -37.286  20.803   0.979  0.00  0.00    -0.001 C 
ATOM     13  C   UNL     1     -37.749  19.744  -0.010  0.00  0.00    -0.016 C 
BRANCH  12  15
ATOM     14  O   UNL     1     -38.586  22.161   2.493  0.00  0.00    -0.297 OA
ATOM     15  C   UNL     1     -38.445  21.722   1.351  0.00  0.00    +0.147 C 
BRANCH  15  17
ATOM     16 CL   UNL     1     -38.740  23.182  -0.911  0.00  0.00    -0.105 Cl
ATOM     17  C   UNL     1     -39.427  22.019   0.234  0.00  0.00    +0.157 C 
ENDBRANCH  15  17
ENDBRANCH  12  15
ENDBRANCH   9  12
ENDBRANCH   7   9
ENDBRANCH   4   7
BRANCH   5  18
ATOM     18  C   UNL     1     -36.470  24.884   4.359  0.00  0.00    +0.149 C 
ATOM     19  C   UNL     1     -36.121  25.940   5.396  0.00  0.00    +0.031 C 
BRANCH  18  21
ATOM     20  O   UNL     1     -37.983  26.352   2.363  0.00  0.00    -0.275 OA
ATOM     21  N   UNL     1     -37.889  24.835   4.127  0.00  0.00    -0.298 N 
ATOM     22  C   UNL     1     -38.528  25.576   3.144  0.00  0.00    +0.223 C 
ATOM     23  C   UNL     1     -40.010  25.318   3.102  0.00  0.00    +0.095 C 
ATOM     24  H   UNL     1     -38.436  24.244   4.696  0.00  0.00    +0.150 HD
ENDBRANCH  18  21
ENDBRANCH   5  18
TORSDOF 7
ENDMDL
MODEL 5
REMARK VINA RESULT:      -5.6      3.203      6.001
REMARK  Name = 5492258
REMARK  7 active torsions:
REMARK  status: ('A' for Active; 'I' for Inactive)
REMARK    1  A    between atoms: C_4  and  C_7
REMARK    2  A    between atoms: C_5  and  C_18
REMARK    3  A    between atoms: C_7  and  N_9
REMARK    4  A    between atoms: N_9  and  C_12
REMARK    5  A    between atoms: C_12  and  C_15
REMARK    6  A    between atoms: C_15  and  C_17
REMARK    7  A    between atoms: C_18  and  N_21
REMARK                            x       y       z     vdW  Elec       q    Type
REMARK                         _______ _______ _______ _____ _____    ______ ____
ROOT
ATOM      1  O   UNL     1     -35.890  23.037   5.778  0.00  0.00    -0.277 OA
ATOM      2  O   UNL     1     -35.245  20.667   4.432  0.00  0.00    -0.273 OA
ATOM      3  N   UNL     1     -35.842  22.705   3.470  0.00  0.00    -0.256 N 
ATOM      4  C   UNL     1     -36.032  23.458   4.631  0.00  0.00    +0.208 C 
ATOM      5  C   UNL     1     -35.461  21.361   3.440  0.00  0.00    +0.246 C 
ATOM      6  H   UNL     1     -35.986  23.155   2.607  0.00  0.00    +0.157 HD
ENDROOT
BRANCH   4   7
ATOM      7  C   UNL     1     -36.462  24.886   4.324  0.00  0.00    +0.018 C 
ATOM      8  C   UNL     1     -35.913  25.872   5.348  0.00  0.00    -0.014 C 
BRANCH   7   9
ATOM      9  N   UNL     1     -37.923  24.901   4.358  0.00  0.00    +0.397 N 
ATOM     10  H   UNL     1     -38.234  25.534   5.094  0.00  0.00    -0.083 HD
ATOM     11  H   UNL     1     -38.256  23.954   4.540  0.00  0.00    -0.083 HD
BRANCH   9  12
ATOM     12  C   UNL     1     -38.465  25.349   3.082  0.00  0.00    -0.001 C 
ATOM     13  C   UNL     1     -37.340  25.781   2.155  0.00  0.00    -0.016 C 
BRANCH  12  15
ATOM     14  O   UNL     1     -38.829  23.035   2.500  0.00  0.00    -0.297 OA
ATOM     15  C   UNL     1     -39.246  24.194   2.464  0.00  0.00    +0.147 C 
BRANCH  15  17
ATOM     16 CL   UNL     1     -41.237  26.028   2.506  0.00  0.00    -0.105 Cl
ATOM     17  C   UNL     1     -40.538  24.576   1.771  0.00  0.00    +0.157 C 
ENDBRANCH  15  17
ENDBRANCH  12  15
ENDBRANCH   9  12
ENDBRANCH   7   9
ENDBRANCH   4   7
BRANCH   5  18
ATOM     18  C   UNL     1     -35.393  20.821   2.017  0.00  0.00    +0.149 C 
ATOM     19  C   UNL     1     -36.782  20.486   1.496  0.00  0.00    +0.031 C 
BRANCH  18  21
ATOM     20  O   UNL     1     -33.036  20.360   0.387  0.00  0.00    -0.275 OA
ATOM     21  N   UNL     1     -34.545  19.658   2.015  0.00  0.00    -0.298 N 
ATOM     22  C   UNL     1     -33.433  19.526   1.197  0.00  0.00    +0.223 C 
ATOM     23  C   UNL     1     -32.710  18.224   1.414  0.00  0.00    +0.095 C 
ATOM     24  H   UNL     1     -34.765  18.918   2.627  0.00  0.00    +0.150 HD
ENDBRANCH  18  21
ENDBRANCH   5  18
TORSDOF 7
ENDMDL
MODEL 6
REMARK VINA RESULT:      -5.5      2.645      5.906
REMARK  Name = 5492258
REMARK  7 active torsions:
REMARK  status: ('A' for Active; 'I' for Inactive)
REMARK    1  A    between atoms: C_4  and  C_7
REMARK    2  A    between atoms: C_5  and  C_18
REMARK    3  A    between atoms: C_7  and  N_9
REMARK    4  A    between atoms: N_9  and  C_12
REMARK    5  A    between atoms: C_12  and  C_15
REMARK    6  A    between atoms: C_15  and  C_17
REMARK    7  A    between atoms: C_18  and  N_21
REMARK                            x       y       z     vdW  Elec       q    Type
REMARK                         _______ _______ _______ _____ _____    ______ ____
ROOT
ATOM      1  O   UNL     1     -35.105  20.614   3.836  0.00  0.00    -0.277 OA
ATOM      2  O   UNL     1     -36.845  20.298   1.664  0.00  0.00    -0.273 OA
ATOM      3  N   UNL     1     -36.744  22.113   3.124  0.00  0.00    -0.256 N 
ATOM      4  C   UNL     1     -35.708  21.679   3.955  0.00  0.00    +0.208 C 
ATOM      5  C   UNL     1     -37.247  21.399   2.033  0.00  0.00    +0.246 C 
ATOM      6  H   UNL     1     -37.150  22.987   3.321  0.00  0.00    +0.157 HD
ENDROOT
BRANCH   4   7
ATOM      7  C   UNL     1     -35.407  22.679   5.063  0.00  0.00    +0.018 C 
ATOM      8  C   UNL     1     -35.495  22.035   6.441  0.00  0.00    -0.014 C 
BRANCH   7   9
ATOM      9  N   UNL     1     -36.402  23.743   4.951  0.00  0.00    +0.397 N 
ATOM     10  H   UNL     1     -37.037  23.692   5.747  0.00  0.00    -0.083 HD
ATOM     11  H   UNL     1     -36.916  23.620   4.079  0.00  0.00    -0.083 HD
BRANCH   9  12
ATOM     12  C   UNL     1     -35.761  25.050   4.934  0.00  0.00    -0.001 C 
ATOM     13  C   UNL     1     -34.284  24.917   5.274  0.00  0.00    -0.016 C 
BRANCH  12  15
ATOM     14  O   UNL     1     -36.566  25.066   2.659  0.00  0.00    -0.297 OA
ATOM     15  C   UNL     1     -35.932  25.647   3.540  0.00  0.00    +0.147 C 
BRANCH  15  17
ATOM     16 CL   UNL     1     -33.936  26.797   2.117  0.00  0.00    -0.105 Cl
ATOM     17  C   UNL     1     -35.235  26.972   3.308  0.00  0.00    +0.157 C 
ENDBRANCH  15  17
ENDBRANCH  12  15
ENDBRANCH   9  12
ENDBRANCH   7   9
ENDBRANCH   4   7
BRANCH   5  18
ATOM     18  C   UNL     1     -38.411  22.124   1.368  0.00  0.00    +0.149 C 
ATOM     19  C   UNL     1     -38.057  22.530  -0.054  0.00  0.00    +0.031 C 
BRANCH  18  21
ATOM     20  O   UNL     1     -40.940  23.546   1.445  0.00  0.00    -0.275 OA
ATOM     21  N   UNL     1     -38.743  23.273   2.167  0.00  0.00    -0.298 N 
ATOM     22  C   UNL     1     -39.986  23.890   2.139  0.00  0.00    +0.223 C 
ATOM     23  C   UNL     1     -40.072  25.053   3.089  0.00  0.00    +0.095 C 
ATOM     24  H   UNL     1     -38.053  23.641   2.767  0.00  0.00    +0.150 HD
ENDBRANCH  18  21
ENDBRANCH   5  18
TORSDOF 7
ENDMDL
MODEL 7
REMARK VINA RESULT:      -5.3      2.940      6.041
REMARK  Name = 5492258
REMARK  7 active torsions:
REMARK  status: ('A' for Active; 'I' for Inactive)
REMARK    1  A    between atoms: C_4  and  C_7
REMARK    2  A    between atoms: C_5  and  C_18
REMARK    3  A    between atoms: C_7  and  N_9
REMARK    4  A    between atoms: N_9  and  C_12
REMARK    5  A    between atoms: C_12  and  C_15
REMARK    6  A    between atoms: C_15  and  C_17
REMARK    7  A    between atoms: C_18  and  N_21
REMARK                            x       y       z     vdW  Elec       q    Type
REMARK                         _______ _______ _______ _____ _____    ______ ____
ROOT
ATOM      1  O   UNL     1     -36.755  28.390   1.450  0.00  0.00    -0.277 OA
ATOM      2  O   UNL     1     -39.231  27.173   0.969  0.00  0.00    -0.273 OA
ATOM      3  N   UNL     1     -37.560  26.424   2.412  0.00  0.00    -0.256 N 
ATOM      4  C   UNL     1     -36.614  27.433   2.208  0.00  0.00    +0.208 C 
ATOM      5  C   UNL     1     -38.806  26.356   1.783  0.00  0.00    +0.246 C 
ATOM      6  H   UNL     1     -37.332  25.708   3.047  0.00  0.00    +0.157 HD
ENDROOT
BRANCH   4   7
ATOM      7  C   UNL     1     -35.352  27.209   3.030  0.00  0.00    +0.018 C 
ATOM      8  C   UNL     1     -34.420  26.203   2.367  0.00  0.00    -0.014 C 
BRANCH   7   9
ATOM      9  N   UNL     1     -35.783  26.700   4.331  0.00  0.00    +0.397 N 
ATOM     10  H   UNL     1     -36.744  26.367   4.258  0.00  0.00    -0.083 HD
ATOM     11  H   UNL     1     -35.719  27.454   5.015  0.00  0.00    -0.083 HD
BRANCH   9  12
ATOM     12  C   UNL     1     -34.930  25.603   4.764  0.00  0.00    -0.001 C 
ATOM     13  C   UNL     1     -34.158  25.997   6.014  0.00  0.00    -0.016 C 
BRANCH  12  15
ATOM     14  O   UNL     1     -36.939  24.282   4.558  0.00  0.00    -0.297 OA
ATOM     15  C   UNL     1     -35.816  24.394   5.050  0.00  0.00    +0.147 C 
BRANCH  15  17
ATOM     16 CL   UNL     1     -35.272  21.752   5.292  0.00  0.00    -0.105 Cl
ATOM     17  C   UNL     1     -35.237  23.372   6.008  0.00  0.00    +0.157 C 
ENDBRANCH  15  17
ENDBRANCH  12  15
ENDBRANCH   9  12
ENDBRANCH   7   9
ENDBRANCH   4   7
BRANCH   5  18
ATOM     18  C   UNL     1     -39.576  25.103   2.183  0.00  0.00    +0.149 C 
ATOM     19  C   UNL     1     -40.224  25.275   3.548  0.00  0.00    +0.031 C 
BRANCH  18  21
ATOM     20  O   UNL     1     -40.224  22.290   1.883  0.00  0.00    -0.275 OA
ATOM     21  N   UNL     1     -38.662  23.991   2.179  0.00  0.00    -0.298 N 
ATOM     22  C   UNL     1     -39.066  22.672   2.029  0.00  0.00    +0.223 C 
ATOM     23  C   UNL     1     -37.907  21.713   2.037  0.00  0.00    +0.095 C 
ATOM     24  H   UNL     1     -37.701  24.176   2.289  0.00  0.00    +0.150 HD
ENDBRANCH  18  21
ENDBRANCH   5  18
TORSDOF 7
ENDMDL
MODEL 8
REMARK VINA RESULT:      -5.3      3.372      5.784
REMARK  Name = 5492258
REMARK  7 active torsions:
REMARK  status: ('A' for Active; 'I' for Inactive)
REMARK    1  A    between atoms: C_4  and  C_7
REMARK    2  A    between atoms: C_5  and  C_18
REMARK    3  A    between atoms: C_7  and  N_9
REMARK    4  A    between atoms: N_9  and  C_12
REMARK    5  A    between atoms: C_12  and  C_15
REMARK    6  A    between atoms: C_15  and  C_17
REMARK    7  A    between atoms: C_18  and  N_21
REMARK                            x       y       z     vdW  Elec       q    Type
REMARK                         _______ _______ _______ _____ _____    ______ ____
ROOT
ATOM      1  O   UNL     1     -35.782  26.708   3.325  0.00  0.00    -0.277 OA
ATOM      2  O   UNL     1     -38.194  26.945   1.921  0.00  0.00    -0.273 OA
ATOM      3  N   UNL     1     -37.788  25.613   3.791  0.00  0.00    -0.256 N 
ATOM      4  C   UNL     1     -36.444  25.929   4.007  0.00  0.00    +0.208 C 
ATOM      5  C   UNL     1     -38.578  26.139   2.765  0.00  0.00    +0.246 C 
ATOM      6  H   UNL     1     -38.210  24.973   4.407  0.00  0.00    +0.157 HD
ENDROOT
BRANCH   4   7
ATOM      7  C   UNL     1     -35.863  25.174   5.196  0.00  0.00    +0.018 C 
ATOM      8  C   UNL     1     -34.342  25.122   5.140  0.00  0.00    -0.014 C 
BRANCH   7   9
ATOM      9  N   UNL     1     -36.407  23.819   5.139  0.00  0.00    +0.397 N 
ATOM     10  H   UNL     1     -36.983  23.724   4.303  0.00  0.00    -0.083 HD
ATOM     11  H   UNL     1     -36.966  23.655   5.976  0.00  0.00    -0.083 HD
BRANCH   9  12
ATOM     12  C   UNL     1     -35.335  22.834   5.094  0.00  0.00    -0.001 C 
ATOM     13  C   UNL     1     -35.279  22.056   6.399  0.00  0.00    -0.016 C 
BRANCH  12  15
ATOM     14  O   UNL     1     -35.193  20.729   3.922  0.00  0.00    -0.297 OA
ATOM     15  C   UNL     1     -35.604  21.890   3.927  0.00  0.00    +0.147 C 
BRANCH  15  17
ATOM     16 CL   UNL     1     -37.408  21.274   2.002  0.00  0.00    -0.105 Cl
ATOM     17  C   UNL     1     -36.371  22.491   2.765  0.00  0.00    +0.157 C 
ENDBRANCH  15  17
ENDBRANCH  12  15
ENDBRANCH   9  12
ENDBRANCH   7   9
ENDBRANCH   4   7
BRANCH   5  18
ATOM     18  C   UNL     1     -39.984  25.550   2.773  0.00  0.00    +0.149 C 
ATOM     19  C   UNL     1     -39.945  24.046   2.555  0.00  0.00    +0.031 C 
BRANCH  18  21
ATOM     20  O   UNL     1     -41.932  27.675   3.112  0.00  0.00    -0.275 OA
ATOM     21  N   UNL     1     -40.753  26.203   1.747  0.00  0.00    -0.298 N 
ATOM     22  C   UNL     1     -41.666  27.215   2.004  0.00  0.00    +0.223 C 
ATOM     23  C   UNL     1     -42.312  27.738   0.750  0.00  0.00    +0.095 C 
ATOM     24  H   UNL     1     -40.624  25.917   0.813  0.00  0.00    +0.150 HD
ENDBRANCH  18  21
ENDBRANCH   5  18
TORSDOF 7
ENDMDL
MODEL 9
REMARK VINA RESULT:      -5.3      2.931      3.763
REMARK  Name = 5492258
REMARK  7 active torsions:
REMARK  status: ('A' for Active; 'I' for Inactive)
REMARK    1  A    between atoms: C_4  and  C_7
REMARK    2  A    between atoms: C_5  and  C_18
REMARK    3  A    between atoms: C_7  and  N_9
REMARK    4  A    between atoms: N_9  and  C_12
REMARK    5  A    between atoms: C_12  and  C_15
REMARK    6  A    between atoms: C_15  and  C_17
REMARK    7  A    between atoms: C_18  and  N_21
REMARK                            x       y       z     vdW  Elec       q    Type
REMARK                         _______ _______ _______ _____ _____    ______ ____
ROOT
ATOM      1  O   UNL     1     -37.409  27.258   2.017  0.00  0.00    -0.277 OA
ATOM      2  O   UNL     1     -35.021  28.175   3.157  0.00  0.00    -0.273 OA
ATOM      3  N   UNL     1     -36.012  26.089   3.474  0.00  0.00    -0.256 N 
ATOM      4  C   UNL     1     -37.139  26.247   2.663  0.00  0.00    +0.208 C 
ATOM      5  C   UNL     1     -35.025  27.059   3.671  0.00  0.00    +0.246 C 
ATOM      6  H   UNL     1     -35.904  25.230   3.941  0.00  0.00    +0.157 HD
ENDROOT
BRANCH   4   7
ATOM      7  C   UNL     1     -38.030  25.012   2.675  0.00  0.00    +0.018 C 
ATOM      8  C   UNL     1     -39.492  25.376   2.898  0.00  0.00    -0.014 C 
BRANCH   7   9
ATOM      9  N   UNL     1     -37.559  24.165   3.769  0.00  0.00    +0.397 N 
ATOM     10  H   UNL     1     -38.318  24.027   4.435  0.00  0.00    -0.083 HD
ATOM     11  H   UNL     1     -36.769  24.624   4.222  0.00  0.00    -0.083 HD
BRANCH   9  12
ATOM     12  C   UNL     1     -37.122  22.870   3.268  0.00  0.00    -0.001 C 
ATOM     13  C   UNL     1     -37.286  22.807   1.757  0.00  0.00    -0.016 C 
BRANCH  12  15
ATOM     14  O   UNL     1     -34.763  23.368   3.153  0.00  0.00    -0.297 OA
ATOM     15  C   UNL     1     -35.657  22.681   3.649  0.00  0.00    +0.147 C 
BRANCH  15  17
ATOM     16 CL   UNL     1     -35.361  22.198   6.297  0.00  0.00    -0.105 Cl
ATOM     17  C   UNL     1     -35.379  21.570   4.641  0.00  0.00    +0.157 C 
ENDBRANCH  15  17
ENDBRANCH  12  15
ENDBRANCH   9  12
ENDBRANCH   7   9
ENDBRANCH   4   7
BRANCH   5  18
ATOM     18  C   UNL     1     -33.959  26.593   4.655  0.00  0.00    +0.149 C 
ATOM     19  C   UNL     1     -34.573  25.758   5.767  0.00  0.00    +0.031 C 
BRANCH  18  21
ATOM     20  O   UNL     1     -31.306  27.565   3.988  0.00  0.00    -0.275 OA
ATOM     21  N   UNL     1     -33.295  27.754   5.185  0.00  0.00    -0.298 N 
ATOM     22  C   UNL     1     -32.019  28.144   4.804  0.00  0.00    +0.223 C 
ATOM     23  C   UNL     1     -31.574  29.406   5.493  0.00  0.00    +0.095 C 
ATOM     24  H   UNL     1     -33.770  28.301   5.852  0.00  0.00    +0.150 HD
ENDBRANCH  18  21
ENDBRANCH   5  18
TORSDOF 7
ENDMDL
