MODEL 1
REMARK VINA RESULT:      -5.3      0.000      0.000
REMARK  Name = 5492540
REMARK  6 active torsions:
REMARK  status: ('A' for Active; 'I' for Inactive)
REMARK    1  A    between atoms: C_3  and  O_15
REMARK    2  A    between atoms: C_5  and  N_9
REMARK    3  A    between atoms: C_6  and  O_13
REMARK    4  A    between atoms: O_15  and  C_16
REMARK    5  A    between atoms: C_16  and  C_19
REMARK    6  A    between atoms: C_19  and  O_20
REMARK                            x       y       z     vdW  Elec       q    Type
REMARK                         _______ _______ _______ _____ _____    ______ ____
ROOT
ATOM      1  O   UNL     1     -34.245  25.860   3.464  0.00  0.00    -0.329 OA
ATOM      2  O   UNL     1     -35.481  26.662   5.259  0.00  0.00    -0.329 OA
ATOM      3  C   UNL     1     -36.381  24.134   4.360  0.00  0.00    +0.130 C 
ATOM      4  C   UNL     1     -33.987  24.996   4.577  0.00  0.00    +0.176 C 
ATOM      5  C   UNL     1     -36.590  25.400   3.505  0.00  0.00    +0.022 C 
ATOM      6  C   UNL     1     -34.888  23.759   4.426  0.00  0.00    +0.165 C 
ATOM      7  C   UNL     1     -35.507  26.438   3.839  0.00  0.00    +0.217 C 
ATOM      8  C   UNL     1     -34.354  25.908   5.733  0.00  0.00    +0.177 C 
ENDROOT
BRANCH   5   9
ATOM      9  N   UNL     1     -37.930  25.943   3.729  0.00  0.00    +0.387 N 
ATOM     10  H   UNL     1     -38.342  25.505   4.553  0.00  0.00    -0.089 HD
ATOM     11  H   UNL     1     -38.515  25.753   2.916  0.00  0.00    -0.089 HD
ATOM     12  H   UNL     1     -37.868  26.950   3.876  0.00  0.00    -0.089 HD
ENDBRANCH   5   9
BRANCH   6  13
ATOM     13  O   UNL     1     -34.685  22.865   5.515  0.00  0.00    -0.380 OA
ATOM     14  H   UNL     1     -35.314  23.072   6.225  0.00  0.00    +0.211 HD
ENDBRANCH   6  13
BRANCH   3  15
ATOM     15  O   UNL     1     -37.112  23.051   3.785  0.00  0.00    -0.347 OA
BRANCH  15  16
ATOM     16  C   UNL     1     -36.448  22.530   2.643  0.00  0.00    +0.213 C 
ATOM     17  C   UNL     1     -37.324  22.794   1.431  0.00  0.00    +0.044 C 
BRANCH  16  19
ATOM     18  O   UNL     1     -35.282  20.558   3.455  0.00  0.00    -0.248 OA
ATOM     19  C   UNL     1     -36.229  21.046   2.851  0.00  0.00    +0.341 C 
BRANCH  19  20
ATOM     20  O   UNL     1     -37.223  20.299   2.305  0.00  0.00    -0.479 OA
ATOM     21  H   UNL     1     -38.004  20.713   1.996  0.00  0.00    +0.295 HD
ENDBRANCH  19  20
ENDBRANCH  16  19
ENDBRANCH  15  16
ENDBRANCH   3  15
TORSDOF 6
ENDMDL
MODEL 2
REMARK VINA RESULT:      -5.2      1.589      2.300
REMARK  Name = 5492540
REMARK  6 active torsions:
REMARK  status: ('A' for Active; 'I' for Inactive)
REMARK    1  A    between atoms: C_3  and  O_15
REMARK    2  A    between atoms: C_5  and  N_9
REMARK    3  A    between atoms: C_6  and  O_13
REMARK    4  A    between atoms: O_15  and  C_16
REMARK    5  A    between atoms: C_16  and  C_19
REMARK    6  A    between atoms: C_19  and  O_20
REMARK                            x       y       z     vdW  Elec       q    Type
REMARK                         _______ _______ _______ _____ _____    ______ ____
ROOT
ATOM      1  O   UNL     1     -35.569  26.428   5.228  0.00  0.00    -0.329 OA
ATOM      2  O   UNL     1     -33.604  25.293   4.732  0.00  0.00    -0.329 OA
ATOM      3  C   UNL     1     -35.915  23.898   3.877  0.00  0.00    +0.130 C 
ATOM      4  C   UNL     1     -35.439  26.407   3.802  0.00  0.00    +0.176 C 
ATOM      5  C   UNL     1     -35.585  24.042   5.376  0.00  0.00    +0.022 C 
ATOM      6  C   UNL     1     -36.313  25.258   3.272  0.00  0.00    +0.165 C 
ATOM      7  C   UNL     1     -34.747  25.311   5.605  0.00  0.00    +0.217 C 
ATOM      8  C   UNL     1     -33.946  26.182   3.657  0.00  0.00    +0.177 C 
ENDROOT
BRANCH   5   9
ATOM      9  N   UNL     1     -34.884  22.851   5.855  0.00  0.00    +0.387 N 
ATOM     10  H   UNL     1     -34.291  23.100   6.646  0.00  0.00    -0.089 HD
ATOM     11  H   UNL     1     -34.307  22.472   5.104  0.00  0.00    -0.089 HD
ATOM     12  H   UNL     1     -35.565  22.151   6.148  0.00  0.00    -0.089 HD
ENDBRANCH   5   9
BRANCH   6  13
ATOM     13  O   UNL     1     -36.216  25.178   1.854  0.00  0.00    -0.380 OA
ATOM     14  H   UNL     1     -35.572  25.831   1.537  0.00  0.00    +0.211 HD
ENDBRANCH   6  13
BRANCH   3  15
ATOM     15  O   UNL     1     -36.995  22.979   3.718  0.00  0.00    -0.347 OA
BRANCH  15  16
ATOM     16  C   UNL     1     -36.811  22.160   2.574  0.00  0.00    +0.213 C 
ATOM     17  C   UNL     1     -38.170  21.938   1.933  0.00  0.00    +0.044 C 
BRANCH  16  19
ATOM     18  O   UNL     1     -35.216  20.754   3.751  0.00  0.00    -0.248 OA
ATOM     19  C   UNL     1     -36.191  20.851   3.016  0.00  0.00    +0.341 C 
BRANCH  19  20
ATOM     20  O   UNL     1     -36.853  19.775   2.520  0.00  0.00    -0.479 OA
ATOM     21  H   UNL     1     -37.307  19.840   1.703  0.00  0.00    +0.295 HD
ENDBRANCH  19  20
ENDBRANCH  16  19
ENDBRANCH  15  16
ENDBRANCH   3  15
TORSDOF 6
ENDMDL
MODEL 3
REMARK VINA RESULT:      -5.2      2.364      4.114
REMARK  Name = 5492540
REMARK  6 active torsions:
REMARK  status: ('A' for Active; 'I' for Inactive)
REMARK    1  A    between atoms: C_3  and  O_15
REMARK    2  A    between atoms: C_5  and  N_9
REMARK    3  A    between atoms: C_6  and  O_13
REMARK    4  A    between atoms: O_15  and  C_16
REMARK    5  A    between atoms: C_16  and  C_19
REMARK    6  A    between atoms: C_19  and  O_20
REMARK                            x       y       z     vdW  Elec       q    Type
REMARK                         _______ _______ _______ _____ _____    ______ ____
ROOT
ATOM      1  O   UNL     1     -38.804  24.957   1.137  0.00  0.00    -0.329 OA
ATOM      2  O   UNL     1     -40.093  23.746   2.642  0.00  0.00    -0.329 OA
ATOM      3  C   UNL     1     -37.339  23.719   3.296  0.00  0.00    +0.130 C 
ATOM      4  C   UNL     1     -38.751  25.646   2.391  0.00  0.00    +0.176 C 
ATOM      5  C   UNL     1     -37.868  22.961   2.062  0.00  0.00    +0.022 C 
ATOM      6  C   UNL     1     -37.441  25.242   3.088  0.00  0.00    +0.165 C 
ATOM      7  C   UNL     1     -39.158  23.628   1.556  0.00  0.00    +0.217 C 
ATOM      8  C   UNL     1     -40.008  25.119   3.056  0.00  0.00    +0.177 C 
ENDROOT
BRANCH   5   9
ATOM      9  N   UNL     1     -38.095  21.554   2.393  0.00  0.00    +0.387 N 
ATOM     10  H   UNL     1     -37.199  21.091   2.541  0.00  0.00    -0.089 HD
ATOM     11  H   UNL     1     -38.590  21.100   1.626  0.00  0.00    -0.089 HD
ATOM     12  H   UNL     1     -38.654  21.492   3.243  0.00  0.00    -0.089 HD
ENDBRANCH   5   9
BRANCH   6  13
ATOM     13  O   UNL     1     -37.336  25.888   4.353  0.00  0.00    -0.380 OA
ATOM     14  H   UNL     1     -36.429  26.209   4.476  0.00  0.00    +0.211 HD
ENDBRANCH   6  13
BRANCH   3  15
ATOM     15  O   UNL     1     -35.974  23.365   3.517  0.00  0.00    -0.347 OA
BRANCH  15  16
ATOM     16  C   UNL     1     -35.788  22.812   4.810  0.00  0.00    +0.213 C 
ATOM     17  C   UNL     1     -34.689  23.599   5.503  0.00  0.00    +0.044 C 
BRANCH  16  19
ATOM     18  O   UNL     1     -35.314  20.765   3.589  0.00  0.00    -0.248 OA
ATOM     19  C   UNL     1     -35.407  21.353   4.658  0.00  0.00    +0.341 C 
BRANCH  19  20
ATOM     20  O   UNL     1     -35.154  20.761   5.853  0.00  0.00    -0.479 OA
ATOM     21  H   UNL     1     -35.369  19.859   5.984  0.00  0.00    +0.295 HD
ENDBRANCH  19  20
ENDBRANCH  16  19
ENDBRANCH  15  16
ENDBRANCH   3  15
TORSDOF 6
ENDMDL
MODEL 4
REMARK VINA RESULT:      -5.1      1.897      2.981
REMARK  Name = 5492540
REMARK  6 active torsions:
REMARK  status: ('A' for Active; 'I' for Inactive)
REMARK    1  A    between atoms: C_3  and  O_15
REMARK    2  A    between atoms: C_5  and  N_9
REMARK    3  A    between atoms: C_6  and  O_13
REMARK    4  A    between atoms: O_15  and  C_16
REMARK    5  A    between atoms: C_16  and  C_19
REMARK    6  A    between atoms: C_19  and  O_20
REMARK                            x       y       z     vdW  Elec       q    Type
REMARK                         _______ _______ _______ _____ _____    ______ ____
ROOT
ATOM      1  O   UNL     1     -34.495  23.661   4.554  0.00  0.00    -0.329 OA
ATOM      2  O   UNL     1     -36.274  23.267   5.995  0.00  0.00    -0.329 OA
ATOM      3  C   UNL     1     -36.896  22.654   3.302  0.00  0.00    +0.130 C 
ATOM      4  C   UNL     1     -34.719  22.247   4.575  0.00  0.00    +0.176 C 
ATOM      5  C   UNL     1     -36.703  24.113   3.758  0.00  0.00    +0.022 C 
ATOM      6  C   UNL     1     -35.559  21.889   3.337  0.00  0.00    +0.165 C 
ATOM      7  C   UNL     1     -35.774  24.158   4.983  0.00  0.00    +0.217 C 
ATOM      8  C   UNL     1     -35.448  22.095   5.897  0.00  0.00    +0.177 C 
ENDROOT
BRANCH   5   9
ATOM      9  N   UNL     1     -38.000  24.723   4.056  0.00  0.00    +0.387 N 
ATOM     10  H   UNL     1     -38.073  25.619   3.574  0.00  0.00    -0.089 HD
ATOM     11  H   UNL     1     -38.084  24.870   5.061  0.00  0.00    -0.089 HD
ATOM     12  H   UNL     1     -38.746  24.105   3.738  0.00  0.00    -0.089 HD
ENDBRANCH   5   9
BRANCH   6  13
ATOM     13  O   UNL     1     -35.826  20.491   3.309  0.00  0.00    -0.380 OA
ATOM     14  H   UNL     1     -36.537  20.311   2.674  0.00  0.00    +0.211 HD
ENDBRANCH   6  13
BRANCH   3  15
ATOM     15  O   UNL     1     -37.409  22.640   1.970  0.00  0.00    -0.347 OA
BRANCH  15  16
ATOM     16  C   UNL     1     -38.265  21.528   1.760  0.00  0.00    +0.213 C 
ATOM     17  C   UNL     1     -38.130  21.100   0.309  0.00  0.00    +0.044 C 
BRANCH  16  19
ATOM     18  O   UNL     1     -40.077  23.108   2.119  0.00  0.00    -0.248 OA
ATOM     19  C   UNL     1     -39.685  21.948   2.079  0.00  0.00    +0.341 C 
BRANCH  19  20
ATOM     20  O   UNL     1     -40.499  20.885   2.301  0.00  0.00    -0.479 OA
ATOM     21  H   UNL     1     -41.034  20.856   3.069  0.00  0.00    +0.295 HD
ENDBRANCH  19  20
ENDBRANCH  16  19
ENDBRANCH  15  16
ENDBRANCH   3  15
TORSDOF 6
ENDMDL
MODEL 5
REMARK VINA RESULT:      -5.1      2.087      3.056
REMARK  Name = 5492540
REMARK  6 active torsions:
REMARK  status: ('A' for Active; 'I' for Inactive)
REMARK    1  A    between atoms: C_3  and  O_15
REMARK    2  A    between atoms: C_5  and  N_9
REMARK    3  A    between atoms: C_6  and  O_13
REMARK    4  A    between atoms: O_15  and  C_16
REMARK    5  A    between atoms: C_16  and  C_19
REMARK    6  A    between atoms: C_19  and  O_20
REMARK                            x       y       z     vdW  Elec       q    Type
REMARK                         _______ _______ _______ _____ _____    ______ ____
ROOT
ATOM      1  O   UNL     1     -35.391  24.985   5.608  0.00  0.00    -0.329 OA
ATOM      2  O   UNL     1     -34.264  24.377   3.671  0.00  0.00    -0.329 OA
ATOM      3  C   UNL     1     -37.063  24.003   3.466  0.00  0.00    +0.130 C 
ATOM      4  C   UNL     1     -35.779  25.908   4.584  0.00  0.00    +0.176 C 
ATOM      5  C   UNL     1     -36.207  23.103   4.380  0.00  0.00    +0.022 C 
ATOM      6  C   UNL     1     -37.131  25.438   4.022  0.00  0.00    +0.165 C 
ATOM      7  C   UNL     1     -34.947  23.863   4.826  0.00  0.00    +0.217 C 
ATOM      8  C   UNL     1     -34.614  25.770   3.623  0.00  0.00    +0.177 C 
ENDROOT
BRANCH   5   9
ATOM      9  N   UNL     1     -35.859  21.864   3.684  0.00  0.00    +0.387 N 
ATOM     10  H   UNL     1     -36.278  21.867   2.755  0.00  0.00    -0.089 HD
ATOM     11  H   UNL     1     -36.211  21.067   4.213  0.00  0.00    -0.089 HD
ATOM     12  H   UNL     1     -34.845  21.796   3.600  0.00  0.00    -0.089 HD
ENDBRANCH   5   9
BRANCH   6  13
ATOM     13  O   UNL     1     -37.565  26.314   2.986  0.00  0.00    -0.380 OA
ATOM     14  H   UNL     1     -37.687  25.808   2.167  0.00  0.00    +0.211 HD
ENDBRANCH   6  13
BRANCH   3  15
ATOM     15  O   UNL     1     -38.383  23.469   3.381  0.00  0.00    -0.347 OA
BRANCH  15  16
ATOM     16  C   UNL     1     -38.706  23.102   2.049  0.00  0.00    +0.213 C 
ATOM     17  C   UNL     1     -39.822  24.014   1.569  0.00  0.00    +0.044 C 
BRANCH  16  19
ATOM     18  O   UNL     1     -40.294  21.270   1.891  0.00  0.00    -0.248 OA
ATOM     19  C   UNL     1     -39.141  21.651   2.043  0.00  0.00    +0.341 C 
BRANCH  19  20
ATOM     20  O   UNL     1     -38.096  20.800   2.206  0.00  0.00    -0.479 OA
ATOM     21  H   UNL     1     -38.221  19.878   2.101  0.00  0.00    +0.295 HD
ENDBRANCH  19  20
ENDBRANCH  16  19
ENDBRANCH  15  16
ENDBRANCH   3  15
TORSDOF 6
ENDMDL
MODEL 6
REMARK VINA RESULT:      -5.1      1.971      4.874
REMARK  Name = 5492540
REMARK  6 active torsions:
REMARK  status: ('A' for Active; 'I' for Inactive)
REMARK    1  A    between atoms: C_3  and  O_15
REMARK    2  A    between atoms: C_5  and  N_9
REMARK    3  A    between atoms: C_6  and  O_13
REMARK    4  A    between atoms: O_15  and  C_16
REMARK    5  A    between atoms: C_16  and  C_19
REMARK    6  A    between atoms: C_19  and  O_20
REMARK                            x       y       z     vdW  Elec       q    Type
REMARK                         _______ _______ _______ _____ _____    ______ ____
ROOT
ATOM      1  O   UNL     1     -40.000  22.906   2.163  0.00  0.00    -0.329 OA
ATOM      2  O   UNL     1     -39.070  24.598   0.872  0.00  0.00    -0.329 OA
ATOM      3  C   UNL     1     -37.604  24.104   3.243  0.00  0.00    +0.130 C 
ATOM      4  C   UNL     1     -38.739  22.429   1.683  0.00  0.00    +0.176 C 
ATOM      5  C   UNL     1     -38.999  24.758   3.295  0.00  0.00    +0.022 C 
ATOM      6  C   UNL     1     -37.707  22.630   2.806  0.00  0.00    +0.165 C 
ATOM      7  C   UNL     1     -39.821  24.329   2.069  0.00  0.00    +0.217 C 
ATOM      8  C   UNL     1     -38.538  23.324   0.475  0.00  0.00    +0.177 C 
ENDROOT
BRANCH   5   9
ATOM      9  N   UNL     1     -38.871  26.214   3.364  0.00  0.00    +0.387 N 
ATOM     10  H   UNL     1     -38.444  26.476   4.251  0.00  0.00    -0.089 HD
ATOM     11  H   UNL     1     -39.795  26.640   3.292  0.00  0.00    -0.089 HD
ATOM     12  H   UNL     1     -38.285  26.539   2.595  0.00  0.00    -0.089 HD
ENDBRANCH   5   9
BRANCH   6  13
ATOM     13  O   UNL     1     -36.423  22.184   2.382  0.00  0.00    -0.380 OA
ATOM     14  H   UNL     1     -35.745  22.797   2.708  0.00  0.00    +0.211 HD
ENDBRANCH   6  13
BRANCH   3  15
ATOM     15  O   UNL     1     -37.004  24.170   4.536  0.00  0.00    -0.347 OA
BRANCH  15  16
ATOM     16  C   UNL     1     -35.677  24.668   4.463  0.00  0.00    +0.213 C 
ATOM     17  C   UNL     1     -34.744  23.597   5.000  0.00  0.00    +0.044 C 
BRANCH  16  19
ATOM     18  O   UNL     1     -34.578  26.345   5.837  0.00  0.00    -0.248 OA
ATOM     19  C   UNL     1     -35.594  25.935   5.291  0.00  0.00    +0.341 C 
BRANCH  19  20
ATOM     20  O   UNL     1     -36.782  26.589   5.348  0.00  0.00    -0.479 OA
ATOM     21  H   UNL     1     -36.888  27.317   5.929  0.00  0.00    +0.295 HD
ENDBRANCH  19  20
ENDBRANCH  16  19
ENDBRANCH  15  16
ENDBRANCH   3  15
TORSDOF 6
ENDMDL
MODEL 7
REMARK VINA RESULT:      -5.0      2.258      3.343
REMARK  Name = 5492540
REMARK  6 active torsions:
REMARK  status: ('A' for Active; 'I' for Inactive)
REMARK    1  A    between atoms: C_3  and  O_15
REMARK    2  A    between atoms: C_5  and  N_9
REMARK    3  A    between atoms: C_6  and  O_13
REMARK    4  A    between atoms: O_15  and  C_16
REMARK    5  A    between atoms: C_16  and  C_19
REMARK    6  A    between atoms: C_19  and  O_20
REMARK                            x       y       z     vdW  Elec       q    Type
REMARK                         _______ _______ _______ _____ _____    ______ ____
ROOT
ATOM      1  O   UNL     1     -33.365  25.356   3.912  0.00  0.00    -0.329 OA
ATOM      2  O   UNL     1     -34.475  27.025   5.086  0.00  0.00    -0.329 OA
ATOM      3  C   UNL     1     -36.236  25.385   3.594  0.00  0.00    +0.130 C 
ATOM      4  C   UNL     1     -34.157  24.713   4.917  0.00  0.00    +0.176 C 
ATOM      5  C   UNL     1     -35.276  26.364   2.889  0.00  0.00    +0.022 C 
ATOM      6  C   UNL     1     -35.455  24.230   4.249  0.00  0.00    +0.165 C 
ATOM      7  C   UNL     1     -34.046  26.615   3.776  0.00  0.00    +0.217 C 
ATOM      8  C   UNL     1     -34.341  25.851   5.903  0.00  0.00    +0.177 C 
ENDROOT
BRANCH   5   9
ATOM      9  N   UNL     1     -35.970  27.615   2.580  0.00  0.00    +0.387 N 
ATOM     10  H   UNL     1     -36.554  27.884   3.371  0.00  0.00    -0.089 HD
ATOM     11  H   UNL     1     -36.554  27.485   1.755  0.00  0.00    -0.089 HD
ATOM     12  H   UNL     1     -35.284  28.347   2.400  0.00  0.00    -0.089 HD
ENDBRANCH   5   9
BRANCH   6  13
ATOM     13  O   UNL     1     -36.294  23.590   5.206  0.00  0.00    -0.380 OA
ATOM     14  H   UNL     1     -36.351  22.643   5.002  0.00  0.00    +0.211 HD
ENDBRANCH   6  13
BRANCH   3  15
ATOM     15  O   UNL     1     -37.151  24.851   2.637  0.00  0.00    -0.347 OA
BRANCH  15  16
ATOM     16  C   UNL     1     -38.478  24.845   3.141  0.00  0.00    +0.213 C 
ATOM     17  C   UNL     1     -39.192  23.636   2.563  0.00  0.00    +0.044 C 
BRANCH  16  19
ATOM     18  O   UNL     1     -38.828  26.813   1.758  0.00  0.00    -0.248 OA
ATOM     19  C   UNL     1     -39.155  26.135   2.723  0.00  0.00    +0.341 C 
BRANCH  19  20
ATOM     20  O   UNL     1     -40.195  26.455   3.535  0.00  0.00    -0.479 OA
ATOM     21  H   UNL     1     -41.057  26.539   3.180  0.00  0.00    +0.295 HD
ENDBRANCH  19  20
ENDBRANCH  16  19
ENDBRANCH  15  16
ENDBRANCH   3  15
TORSDOF 6
ENDMDL
MODEL 8
REMARK VINA RESULT:      -4.9      2.354      4.745
REMARK  Name = 5492540
REMARK  6 active torsions:
REMARK  status: ('A' for Active; 'I' for Inactive)
REMARK    1  A    between atoms: C_3  and  O_15
REMARK    2  A    between atoms: C_5  and  N_9
REMARK    3  A    between atoms: C_6  and  O_13
REMARK    4  A    between atoms: O_15  and  C_16
REMARK    5  A    between atoms: C_16  and  C_19
REMARK    6  A    between atoms: C_19  and  O_20
REMARK                            x       y       z     vdW  Elec       q    Type
REMARK                         _______ _______ _______ _____ _____    ______ ____
ROOT
ATOM      1  O   UNL     1     -35.770  24.413   0.755  0.00  0.00    -0.329 OA
ATOM      2  O   UNL     1     -37.898  23.526   0.475  0.00  0.00    -0.329 OA
ATOM      3  C   UNL     1     -37.408  24.366   3.133  0.00  0.00    +0.130 C 
ATOM      4  C   UNL     1     -36.703  25.482   0.946  0.00  0.00    +0.176 C 
ATOM      5  C   UNL     1     -36.695  23.131   2.549  0.00  0.00    +0.022 C 
ATOM      6  C   UNL     1     -36.906  25.658   2.460  0.00  0.00    +0.165 C 
ATOM      7  C   UNL     1     -36.593  23.264   1.020  0.00  0.00    +0.217 C 
ATOM      8  C   UNL     1     -37.911  24.937   0.207  0.00  0.00    +0.177 C 
ENDROOT
BRANCH   5   9
ATOM      9  N   UNL     1     -37.408  21.911   2.927  0.00  0.00    +0.387 N 
ATOM     10  H   UNL     1     -36.736  21.162   3.092  0.00  0.00    -0.089 HD
ATOM     11  H   UNL     1     -38.040  21.640   2.175  0.00  0.00    -0.089 HD
ATOM     12  H   UNL     1     -37.943  22.081   3.778  0.00  0.00    -0.089 HD
ENDBRANCH   5   9
BRANCH   6  13
ATOM     13  O   UNL     1     -37.838  26.703   2.715  0.00  0.00    -0.380 OA
ATOM     14  H   UNL     1     -37.401  27.411   3.215  0.00  0.00    +0.211 HD
ENDBRANCH   6  13
BRANCH   3  15
ATOM     15  O   UNL     1     -37.153  24.438   4.536  0.00  0.00    -0.347 OA
BRANCH  15  16
ATOM     16  C   UNL     1     -35.765  24.576   4.800  0.00  0.00    +0.213 C 
ATOM     17  C   UNL     1     -35.333  23.400   5.659  0.00  0.00    +0.044 C 
BRANCH  16  19
ATOM     18  O   UNL     1     -34.463  26.278   5.946  0.00  0.00    -0.248 OA
ATOM     19  C   UNL     1     -35.542  25.891   5.518  0.00  0.00    +0.341 C 
BRANCH  19  20
ATOM     20  O   UNL     1     -36.683  26.620   5.621  0.00  0.00    -0.479 OA
ATOM     21  H   UNL     1     -36.637  27.548   5.739  0.00  0.00    +0.295 HD
ENDBRANCH  19  20
ENDBRANCH  16  19
ENDBRANCH  15  16
ENDBRANCH   3  15
TORSDOF 6
ENDMDL
MODEL 9
REMARK VINA RESULT:      -4.9      2.610      4.022
REMARK  Name = 5492540
REMARK  6 active torsions:
REMARK  status: ('A' for Active; 'I' for Inactive)
REMARK    1  A    between atoms: C_3  and  O_15
REMARK    2  A    between atoms: C_5  and  N_9
REMARK    3  A    between atoms: C_6  and  O_13
REMARK    4  A    between atoms: O_15  and  C_16
REMARK    5  A    between atoms: C_16  and  C_19
REMARK    6  A    between atoms: C_19  and  O_20
REMARK                            x       y       z     vdW  Elec       q    Type
REMARK                         _______ _______ _______ _____ _____    ______ ____
ROOT
ATOM      1  O   UNL     1     -34.560  23.612   3.862  0.00  0.00    -0.329 OA
ATOM      2  O   UNL     1     -35.834  23.681   5.803  0.00  0.00    -0.329 OA
ATOM      3  C   UNL     1     -37.372  24.142   3.471  0.00  0.00    +0.130 C 
ATOM      4  C   UNL     1     -35.452  22.494   3.823  0.00  0.00    +0.176 C 
ATOM      5  C   UNL     1     -36.355  25.188   3.969  0.00  0.00    +0.022 C 
ATOM      6  C   UNL     1     -36.652  22.886   2.944  0.00  0.00    +0.165 C 
ATOM      7  C   UNL     1     -35.244  24.491   4.772  0.00  0.00    +0.217 C 
ATOM      8  C   UNL     1     -35.775  22.338   5.297  0.00  0.00    +0.177 C 
ENDROOT
BRANCH   5   9
ATOM      9  N   UNL     1     -37.030  26.205   4.774  0.00  0.00    +0.387 N 
ATOM     10  H   UNL     1     -37.767  26.642   4.221  0.00  0.00    -0.089 HD
ATOM     11  H   UNL     1     -36.356  26.914   5.063  0.00  0.00    -0.089 HD
ATOM     12  H   UNL     1     -37.439  25.768   5.600  0.00  0.00    -0.089 HD
ENDBRANCH   5   9
BRANCH   6  13
ATOM     13  O   UNL     1     -37.586  21.813   2.877  0.00  0.00    -0.380 OA
ATOM     14  H   UNL     1     -37.438  21.210   3.622  0.00  0.00    +0.211 HD
ENDBRANCH   6  13
BRANCH   3  15
ATOM     15  O   UNL     1     -38.155  24.710   2.421  0.00  0.00    -0.347 OA
BRANCH  15  16
ATOM     16  C   UNL     1     -39.531  24.745   2.767  0.00  0.00    +0.213 C 
ATOM     17  C   UNL     1     -40.281  23.844   1.801  0.00  0.00    +0.044 C 
BRANCH  16  19
ATOM     18  O   UNL     1     -39.923  26.877   1.667  0.00  0.00    -0.248 OA
ATOM     19  C   UNL     1     -40.013  26.178   2.668  0.00  0.00    +0.341 C 
BRANCH  19  20
ATOM     20  O   UNL     1     -40.585  26.609   3.822  0.00  0.00    -0.479 OA
ATOM     21  H   UNL     1     -41.438  26.995   3.806  0.00  0.00    +0.295 HD
ENDBRANCH  19  20
ENDBRANCH  16  19
ENDBRANCH  15  16
ENDBRANCH   3  15
TORSDOF 6
ENDMDL
