MODEL 1
REMARK VINA RESULT:      -5.8      0.000      0.000
REMARK  Name = 194903
REMARK  1 active torsions:
REMARK  status: ('A' for Active; 'I' for Inactive)
REMARK    1  A    between atoms: C_7  and  C_15
REMARK                            x       y       z     vdW  Elec       q    Type
REMARK                         _______ _______ _______ _____ _____    ______ ____
ROOT
ATOM      1  O   UNL     1     -35.744  24.003   5.722  0.00  0.00    -0.266 OA
ATOM      2  N   UNL     1     -35.364  25.734   4.185  0.00  0.00    -0.220 N 
ATOM      3  N   UNL     1     -33.815  27.570   4.276  0.00  0.00    -0.095 NA
ATOM      4  N   UNL     1     -33.857  26.099   5.999  0.00  0.00    -0.072 NA
ATOM      5  N   UNL     1     -32.937  27.846   5.253  0.00  0.00    -0.139 N 
ATOM      6  N   UNL     1     -32.928  27.001   6.294  0.00  0.00    -0.020 NA
ATOM      7  C   UNL     1     -36.000  24.570   4.646  0.00  0.00    +0.289 C 
ATOM      8  C   UNL     1     -34.339  26.488   4.806  0.00  0.00    +0.132 C 
ATOM      9  H   UNL     1     -35.671  26.071   3.312  0.00  0.00    +0.167 HD
ATOM     10  H   UNL     1     -32.336  28.623   5.207  0.00  0.00    +0.197 HD
ENDROOT
BRANCH   7  15
ATOM     11  N   UNL     1     -40.192  24.951   2.407  0.00  0.00    -0.282 N 
ATOM     12  N   UNL     1     -38.094  24.761   3.528  0.00  0.00    -0.383 NA
ATOM     13  N   UNL     1     -37.774  22.218   2.390  0.00  0.00    -0.257 NA
ATOM     14  C   UNL     1     -39.020  24.224   2.710  0.00  0.00    +0.185 C 
ATOM     15  C   UNL     1     -37.005  24.003   3.767  0.00  0.00    +0.205 C 
ATOM     16  C   UNL     1     -40.858  24.770   1.134  0.00  0.00    +0.114 C 
ATOM     17  C   UNL     1     -40.750  25.875   3.373  0.00  0.00    +0.114 C 
ATOM     18  C   UNL     1     -38.864  22.974   2.150  0.00  0.00    +0.200 C 
ATOM     19  C   UNL     1     -36.848  22.755   3.209  0.00  0.00    +0.130 C 
ENDBRANCH   7  15
TORSDOF 1
ENDMDL
MODEL 2
REMARK VINA RESULT:      -5.8      2.283      3.684
REMARK  Name = 194903
REMARK  1 active torsions:
REMARK  status: ('A' for Active; 'I' for Inactive)
REMARK    1  A    between atoms: C_7  and  C_15
REMARK                            x       y       z     vdW  Elec       q    Type
REMARK                         _______ _______ _______ _____ _____    ______ ____
ROOT
ATOM      1  O   UNL     1     -34.592  26.959   3.090  0.00  0.00    -0.266 OA
ATOM      2  N   UNL     1     -34.093  26.020   5.181  0.00  0.00    -0.220 N 
ATOM      3  N   UNL     1     -32.715  26.860   6.963  0.00  0.00    -0.095 NA
ATOM      4  N   UNL     1     -32.934  28.104   5.083  0.00  0.00    -0.072 NA
ATOM      5  N   UNL     1     -32.034  28.015   6.989  0.00  0.00    -0.139 N 
ATOM      6  N   UNL     1     -32.133  28.784   5.896  0.00  0.00    -0.020 NA
ATOM      7  C   UNL     1     -34.711  26.042   3.921  0.00  0.00    +0.289 C 
ATOM      8  C   UNL     1     -33.239  26.988   5.765  0.00  0.00    +0.132 C 
ATOM      9  H   UNL     1     -34.280  25.227   5.734  0.00  0.00    +0.167 HD
ATOM     10  H   UNL     1     -31.492  28.281   7.766  0.00  0.00    +0.197 HD
ENDROOT
BRANCH   7  15
ATOM     11  N   UNL     1     -35.295  21.789   1.846  0.00  0.00    -0.282 N 
ATOM     12  N   UNL     1     -35.003  23.918   2.884  0.00  0.00    -0.383 NA
ATOM     13  N   UNL     1     -37.668  23.806   3.750  0.00  0.00    -0.257 NA
ATOM     14  C   UNL     1     -35.801  22.870   2.601  0.00  0.00    +0.185 C 
ATOM     15  C   UNL     1     -35.561  24.909   3.608  0.00  0.00    +0.205 C 
ATOM     16  C   UNL     1     -35.809  20.451   2.049  0.00  0.00    +0.114 C 
ATOM     17  C   UNL     1     -34.267  22.010   0.850  0.00  0.00    +0.114 C 
ATOM     18  C   UNL     1     -37.111  22.814   3.026  0.00  0.00    +0.200 C 
ATOM     19  C   UNL     1     -36.869  24.853   4.033  0.00  0.00    +0.130 C 
ENDBRANCH   7  15
TORSDOF 1
ENDMDL
MODEL 3
REMARK VINA RESULT:      -5.8      4.774      7.319
REMARK  Name = 194903
REMARK  1 active torsions:
REMARK  status: ('A' for Active; 'I' for Inactive)
REMARK    1  A    between atoms: C_7  and  C_15
REMARK                            x       y       z     vdW  Elec       q    Type
REMARK                         _______ _______ _______ _____ _____    ______ ____
ROOT
ATOM      1  O   UNL     1     -36.109  19.131   0.369  0.00  0.00    -0.266 OA
ATOM      2  N   UNL     1     -34.159  19.323   1.661  0.00  0.00    -0.220 N 
ATOM      3  N   UNL     1     -32.154  17.998   1.638  0.00  0.00    -0.095 NA
ATOM      4  N   UNL     1     -33.822  17.465   0.201  0.00  0.00    -0.072 NA
ATOM      5  N   UNL     1     -31.884  16.944   0.854  0.00  0.00    -0.139 N 
ATOM      6  N   UNL     1     -32.845  16.592  -0.013  0.00  0.00    -0.020 NA
ATOM      7  C   UNL     1     -35.449  19.702   1.255  0.00  0.00    +0.289 C 
ATOM      8  C   UNL     1     -33.357  18.260   1.179  0.00  0.00    +0.132 C 
ATOM      9  H   UNL     1     -33.759  19.869   2.376  0.00  0.00    +0.167 HD
ATOM     10  H   UNL     1     -31.031  16.458   0.911  0.00  0.00    +0.197 HD
ENDROOT
BRANCH   7  15
ATOM     11  N   UNL     1     -35.553  22.639   5.010  0.00  0.00    -0.282 N 
ATOM     12  N   UNL     1     -35.501  21.169   3.131  0.00  0.00    -0.383 NA
ATOM     13  N   UNL     1     -37.544  22.685   1.951  0.00  0.00    -0.257 NA
ATOM     14  C   UNL     1     -36.031  22.248   3.740  0.00  0.00    +0.185 C 
ATOM     15  C   UNL     1     -36.011  20.861   1.922  0.00  0.00    +0.205 C 
ATOM     16  C   UNL     1     -35.577  24.032   5.404  0.00  0.00    +0.114 C 
ATOM     17  C   UNL     1     -35.050  21.648   5.939  0.00  0.00    +0.114 C 
ATOM     18  C   UNL     1     -37.034  22.994   3.161  0.00  0.00    +0.200 C 
ATOM     19  C   UNL     1     -37.014  21.606   1.343  0.00  0.00    +0.130 C 
ENDBRANCH   7  15
TORSDOF 1
ENDMDL
MODEL 4
REMARK VINA RESULT:      -5.6      1.570      2.055
REMARK  Name = 194903
REMARK  1 active torsions:
REMARK  status: ('A' for Active; 'I' for Inactive)
REMARK    1  A    between atoms: C_7  and  C_15
REMARK                            x       y       z     vdW  Elec       q    Type
REMARK                         _______ _______ _______ _____ _____    ______ ____
ROOT
ATOM      1  O   UNL     1     -34.818  26.875   3.110  0.00  0.00    -0.266 OA
ATOM      2  N   UNL     1     -34.154  25.907   5.142  0.00  0.00    -0.220 N 
ATOM      3  N   UNL     1     -32.727  26.772   6.873  0.00  0.00    -0.095 NA
ATOM      4  N   UNL     1     -33.117  28.054   5.047  0.00  0.00    -0.072 NA
ATOM      5  N   UNL     1     -32.110  27.962   6.898  0.00  0.00    -0.139 N 
ATOM      6  N   UNL     1     -32.311  28.755   5.836  0.00  0.00    -0.020 NA
ATOM      7  C   UNL     1     -34.840  25.929   3.918  0.00  0.00    +0.289 C 
ATOM      8  C   UNL     1     -33.323  26.904   5.709  0.00  0.00    +0.132 C 
ATOM      9  H   UNL     1     -34.265  25.089   5.679  0.00  0.00    +0.167 HD
ATOM     10  H   UNL     1     -31.541  28.237   7.653  0.00  0.00    +0.197 HD
ENDROOT
BRANCH   7  15
ATOM     11  N   UNL     1     -39.046  24.020   2.735  0.00  0.00    -0.282 N 
ATOM     12  N   UNL     1     -36.942  24.976   3.327  0.00  0.00    -0.383 NA
ATOM     13  N   UNL     1     -35.834  22.400   3.344  0.00  0.00    -0.257 NA
ATOM     14  C   UNL     1     -37.676  23.882   3.047  0.00  0.00    +0.185 C 
ATOM     15  C   UNL     1     -35.642  24.759   3.616  0.00  0.00    +0.205 C 
ATOM     16  C   UNL     1     -39.694  23.078   1.846  0.00  0.00    +0.114 C 
ATOM     17  C   UNL     1     -39.823  25.098   3.312  0.00  0.00    +0.114 C 
ATOM     18  C   UNL     1     -37.132  22.615   3.055  0.00  0.00    +0.200 C 
ATOM     19  C   UNL     1     -35.099  23.494   3.624  0.00  0.00    +0.130 C 
ENDBRANCH   7  15
TORSDOF 1
ENDMDL
MODEL 5
REMARK VINA RESULT:      -5.6      2.700      6.176
REMARK  Name = 194903
REMARK  1 active torsions:
REMARK  status: ('A' for Active; 'I' for Inactive)
REMARK    1  A    between atoms: C_7  and  C_15
REMARK                            x       y       z     vdW  Elec       q    Type
REMARK                         _______ _______ _______ _____ _____    ______ ____
ROOT
ATOM      1  O   UNL     1     -41.042  24.634   1.764  0.00  0.00    -0.266 OA
ATOM      2  N   UNL     1     -40.507  26.089   3.526  0.00  0.00    -0.220 N 
ATOM      3  N   UNL     1     -41.737  27.951   4.420  0.00  0.00    -0.095 NA
ATOM      4  N   UNL     1     -42.629  26.792   2.690  0.00  0.00    -0.072 NA
ATOM      5  N   UNL     1     -42.929  28.409   4.012  0.00  0.00    -0.139 N 
ATOM      6  N   UNL     1     -43.495  27.754   2.989  0.00  0.00    -0.020 NA
ATOM      7  C   UNL     1     -40.271  25.005   2.666  0.00  0.00    +0.289 C 
ATOM      8  C   UNL     1     -41.622  26.962   3.563  0.00  0.00    +0.132 C 
ATOM      9  H   UNL     1     -39.805  26.265   4.193  0.00  0.00    +0.167 HD
ATOM     10  H   UNL     1     -43.363  29.182   4.439  0.00  0.00    +0.197 HD
ENDROOT
BRANCH   7  15
ATOM     11  N   UNL     1     -36.118  24.545   4.963  0.00  0.00    -0.282 N 
ATOM     12  N   UNL     1     -38.196  24.775   3.813  0.00  0.00    -0.383 NA
ATOM     13  N   UNL     1     -37.609  22.433   2.387  0.00  0.00    -0.257 NA
ATOM     14  C   UNL     1     -37.055  24.086   4.012  0.00  0.00    +0.185 C 
ATOM     15  C   UNL     1     -39.038  24.272   2.888  0.00  0.00    +0.205 C 
ATOM     16  C   UNL     1     -35.269  23.605   5.666  0.00  0.00    +0.114 C 
ATOM     17  C   UNL     1     -35.984  25.961   5.235  0.00  0.00    +0.114 C 
ATOM     18  C   UNL     1     -36.766  22.935   3.312  0.00  0.00    +0.200 C 
ATOM     19  C   UNL     1     -38.750  23.122   2.189  0.00  0.00    +0.130 C 
ENDBRANCH   7  15
TORSDOF 1
ENDMDL
MODEL 6
REMARK VINA RESULT:      -5.5      3.407      7.197
REMARK  Name = 194903
REMARK  1 active torsions:
REMARK  status: ('A' for Active; 'I' for Inactive)
REMARK    1  A    between atoms: C_7  and  C_15
REMARK                            x       y       z     vdW  Elec       q    Type
REMARK                         _______ _______ _______ _____ _____    ______ ____
ROOT
ATOM      1  O   UNL     1     -34.941  26.607   3.632  0.00  0.00    -0.266 OA
ATOM      2  N   UNL     1     -34.361  25.174   5.397  0.00  0.00    -0.220 N 
ATOM      3  N   UNL     1     -35.193  22.988   5.950  0.00  0.00    -0.095 NA
ATOM      4  N   UNL     1     -36.035  24.040   4.129  0.00  0.00    -0.072 NA
ATOM      5  N   UNL     1     -36.127  22.283   5.293  0.00  0.00    -0.139 N 
ATOM      6  N   UNL     1     -36.654  22.868   4.209  0.00  0.00    -0.020 NA
ATOM      7  C   UNL     1     -34.270  26.358   4.649  0.00  0.00    +0.289 C 
ATOM      8  C   UNL     1     -35.194  24.050   5.177  0.00  0.00    +0.132 C 
ATOM      9  H   UNL     1     -33.766  25.117   6.180  0.00  0.00    +0.167 HD
ATOM     10  H   UNL     1     -36.408  21.388   5.591  0.00  0.00    +0.197 HD
ENDROOT
BRANCH   7  15
ATOM     11  N   UNL     1     -31.711  30.305   3.867  0.00  0.00    -0.282 N 
ATOM     12  N   UNL     1     -32.991  28.330   4.258  0.00  0.00    -0.383 NA
ATOM     13  N   UNL     1     -31.812  28.127   6.794  0.00  0.00    -0.257 NA
ATOM     14  C   UNL     1     -32.087  29.226   4.698  0.00  0.00    +0.185 C 
ATOM     15  C   UNL     1     -33.296  27.330   5.110  0.00  0.00    +0.205 C 
ATOM     16  C   UNL     1     -31.304  31.568   4.447  0.00  0.00    +0.114 C 
ATOM     17  C   UNL     1     -31.714  30.155   2.427  0.00  0.00    +0.114 C 
ATOM     18  C   UNL     1     -31.507  29.127   5.944  0.00  0.00    +0.200 C 
ATOM     19  C   UNL     1     -32.717  27.231   6.355  0.00  0.00    +0.130 C 
ENDBRANCH   7  15
TORSDOF 1
ENDMDL
MODEL 7
REMARK VINA RESULT:      -5.4      3.525      6.738
REMARK  Name = 194903
REMARK  1 active torsions:
REMARK  status: ('A' for Active; 'I' for Inactive)
REMARK    1  A    between atoms: C_7  and  C_15
REMARK                            x       y       z     vdW  Elec       q    Type
REMARK                         _______ _______ _______ _____ _____    ______ ____
ROOT
ATOM      1  O   UNL     1     -34.362  26.022   6.163  0.00  0.00    -0.266 OA
ATOM      2  N   UNL     1     -34.557  24.731   4.214  0.00  0.00    -0.220 N 
ATOM      3  N   UNL     1     -35.362  22.485   3.922  0.00  0.00    -0.095 NA
ATOM      4  N   UNL     1     -35.345  23.368   6.007  0.00  0.00    -0.072 NA
ATOM      5  N   UNL     1     -35.821  21.656   4.871  0.00  0.00    -0.139 N 
ATOM      6  N   UNL     1     -35.828  22.137   6.122  0.00  0.00    -0.020 NA
ATOM      7  C   UNL     1     -34.228  25.890   4.934  0.00  0.00    +0.289 C 
ATOM      8  C   UNL     1     -35.091  23.511   4.696  0.00  0.00    +0.132 C 
ATOM      9  H   UNL     1     -34.396  24.772   3.243  0.00  0.00    +0.167 HD
ATOM     10  H   UNL     1     -36.134  20.747   4.660  0.00  0.00    +0.197 HD
ENDROOT
BRANCH   7  15
ATOM     11  N   UNL     1     -31.685  29.916   4.684  0.00  0.00    -0.282 N 
ATOM     12  N   UNL     1     -32.958  27.901   4.810  0.00  0.00    -0.383 NA
ATOM     13  N   UNL     1     -33.534  28.154   2.077  0.00  0.00    -0.257 NA
ATOM     14  C   UNL     1     -32.491  28.929   4.074  0.00  0.00    +0.185 C 
ATOM     15  C   UNL     1     -33.719  27.002   4.154  0.00  0.00    +0.205 C 
ATOM     16  C   UNL     1     -30.677  30.616   3.916  0.00  0.00    +0.114 C 
ATOM     17  C   UNL     1     -31.870  30.251   6.081  0.00  0.00    +0.114 C 
ATOM     18  C   UNL     1     -32.773  29.054   2.731  0.00  0.00    +0.200 C 
ATOM     19  C   UNL     1     -34.001  27.127   2.812  0.00  0.00    +0.130 C 
ENDBRANCH   7  15
TORSDOF 1
ENDMDL
MODEL 8
REMARK VINA RESULT:      -5.4      4.943      7.038
REMARK  Name = 194903
REMARK  1 active torsions:
REMARK  status: ('A' for Active; 'I' for Inactive)
REMARK    1  A    between atoms: C_7  and  C_15
REMARK                            x       y       z     vdW  Elec       q    Type
REMARK                         _______ _______ _______ _____ _____    ______ ____
ROOT
ATOM      1  O   UNL     1     -35.943  22.233   1.714  0.00  0.00    -0.266 OA
ATOM      2  N   UNL     1     -35.428  20.784   3.487  0.00  0.00    -0.220 N 
ATOM      3  N   UNL     1     -35.414  21.185   5.857  0.00  0.00    -0.095 NA
ATOM      4  N   UNL     1     -35.983  22.885   4.472  0.00  0.00    -0.072 NA
ATOM      5  N   UNL     1     -35.712  22.329   6.490  0.00  0.00    -0.139 N 
ATOM      6  N   UNL     1     -36.053  23.364   5.709  0.00  0.00    -0.020 NA
ATOM      7  C   UNL     1     -35.598  21.114   2.133  0.00  0.00    +0.289 C 
ATOM      8  C   UNL     1     -35.603  21.606   4.627  0.00  0.00    +0.132 C 
ATOM      9  H   UNL     1     -35.151  19.856   3.668  0.00  0.00    +0.167 HD
ATOM     10  H   UNL     1     -35.681  22.404   7.470  0.00  0.00    +0.197 HD
ENDROOT
BRANCH   7  15
ATOM     11  N   UNL     1     -32.827  17.601   0.484  0.00  0.00    -0.282 N 
ATOM     12  N   UNL     1     -34.213  19.359   1.309  0.00  0.00    -0.383 NA
ATOM     13  N   UNL     1     -36.089  18.748  -0.684  0.00  0.00    -0.257 NA
ATOM     14  C   UNL     1     -34.013  18.366   0.421  0.00  0.00    +0.185 C 
ATOM     15  C   UNL     1     -35.369  20.042   1.182  0.00  0.00    +0.205 C 
ATOM     16  C   UNL     1     -32.825  16.218   0.055  0.00  0.00    +0.114 C 
ATOM     17  C   UNL     1     -31.597  18.196   0.964  0.00  0.00    +0.114 C 
ATOM     18  C   UNL     1     -34.934  18.065  -0.558  0.00  0.00    +0.200 C 
ATOM     19  C   UNL     1     -36.290  19.742   0.203  0.00  0.00    +0.130 C 
ENDBRANCH   7  15
TORSDOF 1
ENDMDL
MODEL 9
REMARK VINA RESULT:      -5.3      3.225      6.009
REMARK  Name = 194903
REMARK  1 active torsions:
REMARK  status: ('A' for Active; 'I' for Inactive)
REMARK    1  A    between atoms: C_7  and  C_15
REMARK                            x       y       z     vdW  Elec       q    Type
REMARK                         _______ _______ _______ _____ _____    ______ ____
ROOT
ATOM      1  O   UNL     1     -33.578  26.048   6.001  0.00  0.00    -0.266 OA
ATOM      2  N   UNL     1     -34.879  25.503   4.125  0.00  0.00    -0.220 N 
ATOM      3  N   UNL     1     -36.298  23.604   3.728  0.00  0.00    -0.095 NA
ATOM      4  N   UNL     1     -35.206  23.746   5.707  0.00  0.00    -0.072 NA
ATOM      5  N   UNL     1     -36.537  22.579   4.559  0.00  0.00    -0.139 N 
ATOM      6  N   UNL     1     -35.910  22.621   5.743  0.00  0.00    -0.020 NA
ATOM      7  C   UNL     1     -33.992  26.308   4.857  0.00  0.00    +0.289 C 
ATOM      8  C   UNL     1     -35.475  24.275   4.502  0.00  0.00    +0.132 C 
ATOM      9  H   UNL     1     -35.119  25.837   3.231  0.00  0.00    +0.167 HD
ATOM     10  H   UNL     1     -37.137  21.839   4.313  0.00  0.00    +0.197 HD
ENDROOT
BRANCH   7  15
ATOM     11  N   UNL     1     -35.018  30.111   2.171  0.00  0.00    -0.282 N 
ATOM     12  N   UNL     1     -34.505  28.208   3.515  0.00  0.00    -0.383 NA
ATOM     13  N   UNL     1     -31.864  29.128   3.721  0.00  0.00    -0.257 NA
ATOM     14  C   UNL     1     -34.098  29.347   2.922  0.00  0.00    +0.185 C 
ATOM     15  C   UNL     1     -33.567  27.536   4.213  0.00  0.00    +0.205 C 
ATOM     16  C   UNL     1     -34.869  31.549   2.075  0.00  0.00    +0.114 C 
ATOM     17  C   UNL     1     -36.112  29.464   1.476  0.00  0.00    +0.114 C 
ATOM     18  C   UNL     1     -32.800  29.800   3.023  0.00  0.00    +0.200 C 
ATOM     19  C   UNL     1     -32.270  27.988   4.314  0.00  0.00    +0.130 C 
ENDBRANCH   7  15
TORSDOF 1
ENDMDL
