MODEL 1
REMARK VINA RESULT:      -6.1      0.000      0.000
REMARK  Name = 54522708
REMARK  14 active torsions:
REMARK  status: ('A' for Active; 'I' for Inactive)
REMARK    1  A    between atoms: CA_1  and  C_4
REMARK    2  A    between atoms: CA_1  and  N_19
REMARK    3  A    between atoms: CA_1  and  CB_27
REMARK    4  A    between atoms: N_3  and  CA_6
REMARK    5  A    between atoms: CA_6  and  C_10
REMARK    6  A    between atoms: N_9  and  CA_12
REMARK    7  A    between atoms: CA_12  and  C_15
REMARK    8  A    between atoms: C_15  and  O_16
REMARK    9  A    between atoms: C_20  and  O_22
REMARK   10  A    between atoms: O_22  and  C_23
REMARK   11  A    between atoms: CB_27  and  CG_28
REMARK   12  A    between atoms: CG_28  and  CD_29
REMARK   13  A    between atoms: CD_29  and  CE_30
REMARK   14  A    between atoms: CE_30  and  NZ_31
REMARK                            x       y       z     vdW  Elec       q    Type
REMARK                         _______ _______ _______ _____ _____    ______ ____
ROOT
ATOM      1  CA  UNL     1     -36.505  25.806   4.712  0.00  0.00    +0.151 C 
ENDROOT
BRANCH   1   4
ATOM      2  O   UNL     1     -35.338  25.570   2.598  0.00  0.00    -0.273 OA
ATOM      3  N   UNL     1     -35.509  27.679   3.551  0.00  0.00    -0.297 N 
ATOM      4  C   UNL     1     -35.737  26.312   3.494  0.00  0.00    +0.241 C 
ATOM      5  H   UNL     1     -35.872  28.189   4.312  0.00  0.00    +0.150 HD
BRANCH   3   6
ATOM      6  CA  UNL     1     -34.760  28.386   2.538  0.00  0.00    +0.149 C 
ATOM      7  CB  UNL     1     -35.382  29.740   2.234  0.00  0.00    +0.031 C 
BRANCH   6  10
ATOM      8  O   UNL     1     -32.348  28.391   2.308  0.00  0.00    -0.273 OA
ATOM      9  N   UNL     1     -33.275  28.828   4.391  0.00  0.00    -0.295 N 
ATOM     10  C   UNL     1     -33.329  28.542   3.033  0.00  0.00    +0.241 C 
ATOM     11  H   UNL     1     -34.120  28.931   4.886  0.00  0.00    +0.150 HD
BRANCH   9  12
ATOM     12  CA  UNL     1     -32.030  28.980   5.106  0.00  0.00    +0.171 C 
ATOM     13  CB  UNL     1     -31.891  30.396   5.645  0.00  0.00    +0.033 C 
BRANCH  12  15
ATOM     14  OXT UNL     1     -32.869  27.420   6.750  0.00  0.00    -0.248 OA
ATOM     15  C   UNL     1     -31.902  27.971   6.235  0.00  0.00    +0.332 C 
BRANCH  15  16
ATOM     16  O   UNL     1     -30.632  27.733   6.641  0.00  0.00    -0.479 OA
ATOM     17  H   UNL     1     -29.928  27.765   6.023  0.00  0.00    +0.295 HD
ENDBRANCH  15  16
ENDBRANCH  12  15
ENDBRANCH   9  12
ENDBRANCH   6  10
ENDBRANCH   3   6
ENDBRANCH   1   4
BRANCH   1  19
ATOM     18  O   UNL     1     -38.905  26.255   3.137  0.00  0.00    -0.226 OA
ATOM     19  N   UNL     1     -37.451  24.824   4.244  0.00  0.00    -0.264 N 
ATOM     20  C   ACE A   0     -38.571  25.131   3.497  0.00  0.00    +0.402 C 
ATOM     21  H   UNL     1     -37.290  23.881   4.473  0.00  0.00    +0.153 HD
BRANCH  20  22
ATOM     22  O   UNL     1     -39.265  23.989   3.212  0.00  0.00    -0.442 OA
BRANCH  22  23
ATOM     23  C   UNL     1     -39.326  23.625   1.829  0.00  0.00    +0.138 C 
ATOM     24  C   UNL     1     -40.608  24.224   1.252  0.00  0.00    +0.044 C 
ATOM     25  C   UNL     1     -38.099  24.198   1.120  0.00  0.00    +0.044 C 
ATOM     26  C   UNL     1     -39.352  22.101   1.728  0.00  0.00    +0.044 C 
ENDBRANCH  22  23
ENDBRANCH  20  22
ENDBRANCH   1  19
BRANCH   1  27
ATOM     27  CB  UNL     1     -35.530  25.233   5.746  0.00  0.00    +0.029 C 
BRANCH  27  28
ATOM     28  CG  UNL     1     -34.902  23.910   5.293  0.00  0.00    +0.000 C 
BRANCH  28  29
ATOM     29  CD  UNL     1     -35.268  22.769   6.245  0.00  0.00    -0.024 C 
BRANCH  29  30
ATOM     30  CE  UNL     1     -35.234  21.419   5.529  0.00  0.00    -0.086 C 
BRANCH  30  31
ATOM     31  NZ  UNL     1     -35.758  21.552   4.174  0.00  0.00    +0.380 N 
ATOM     32  HZ1 UNL     1     -35.046  21.970   3.575  0.00  0.00    -0.089 HD
ATOM     33  HZ2 UNL     1     -36.585  22.148   4.187  0.00  0.00    -0.089 HD
ATOM     34  HZ3 UNL     1     -36.007  20.631   3.815  0.00  0.00    -0.089 HD
ENDBRANCH  30  31
ENDBRANCH  29  30
ENDBRANCH  28  29
ENDBRANCH  27  28
ENDBRANCH   1  27
TORSDOF 14
ENDMDL
MODEL 2
REMARK VINA RESULT:      -5.9      4.398      7.539
REMARK  Name = 54522708
REMARK  14 active torsions:
REMARK  status: ('A' for Active; 'I' for Inactive)
REMARK    1  A    between atoms: CA_1  and  C_4
REMARK    2  A    between atoms: CA_1  and  N_19
REMARK    3  A    between atoms: CA_1  and  CB_27
REMARK    4  A    between atoms: N_3  and  CA_6
REMARK    5  A    between atoms: CA_6  and  C_10
REMARK    6  A    between atoms: N_9  and  CA_12
REMARK    7  A    between atoms: CA_12  and  C_15
REMARK    8  A    between atoms: C_15  and  O_16
REMARK    9  A    between atoms: C_20  and  O_22
REMARK   10  A    between atoms: O_22  and  C_23
REMARK   11  A    between atoms: CB_27  and  CG_28
REMARK   12  A    between atoms: CG_28  and  CD_29
REMARK   13  A    between atoms: CD_29  and  CE_30
REMARK   14  A    between atoms: CE_30  and  NZ_31
REMARK                            x       y       z     vdW  Elec       q    Type
REMARK                         _______ _______ _______ _____ _____    ______ ____
ROOT
ATOM      1  CA  UNL     1     -35.903  22.391   3.623  0.00  0.00    +0.151 C 
ENDROOT
BRANCH   1   4
ATOM      2  O   UNL     1     -35.024  20.147   3.344  0.00  0.00    -0.273 OA
ATOM      3  N   UNL     1     -36.613  20.920   1.840  0.00  0.00    -0.297 N 
ATOM      4  C   UNL     1     -35.792  21.024   2.953  0.00  0.00    +0.241 C 
ATOM      5  H   UNL     1     -37.195  21.680   1.608  0.00  0.00    +0.150 HD
BRANCH   3   6
ATOM      6  CA  UNL     1     -36.649  19.740   1.007  0.00  0.00    +0.149 C 
ATOM      7  CB  UNL     1     -37.711  19.858  -0.075  0.00  0.00    +0.031 C 
BRANCH   6  10
ATOM      8  O   UNL     1     -34.763  20.360  -0.383  0.00  0.00    -0.273 OA
ATOM      9  N   UNL     1     -34.681  18.357   0.788  0.00  0.00    -0.295 N 
ATOM     10  C   UNL     1     -35.267  19.553   0.396  0.00  0.00    +0.241 C 
ATOM     11  H   UNL     1     -35.166  17.777   1.418  0.00  0.00    +0.150 HD
BRANCH   9  12
ATOM     12  CA  UNL     1     -33.387  17.930   0.309  0.00  0.00    +0.171 C 
ATOM     13  CB  UNL     1     -32.276  18.532   1.157  0.00  0.00    +0.033 C 
BRANCH  12  15
ATOM     14  OXT UNL     1     -32.191  15.830   0.264  0.00  0.00    -0.248 OA
ATOM     15  C   UNL     1     -33.268  16.415   0.282  0.00  0.00    +0.332 C 
BRANCH  15  16
ATOM     16  O   UNL     1     -34.451  15.756   0.265  0.00  0.00    -0.479 OA
ATOM     17  H   UNL     1     -35.255  16.231   0.351  0.00  0.00    +0.295 HD
ENDBRANCH  15  16
ENDBRANCH  12  15
ENDBRANCH   9  12
ENDBRANCH   6  10
ENDBRANCH   3   6
ENDBRANCH   1   4
BRANCH   1  19
ATOM     18  O   UNL     1     -36.831  24.935   2.571  0.00  0.00    -0.226 OA
ATOM     19  N   UNL     1     -37.265  22.837   3.463  0.00  0.00    -0.264 N 
ATOM     20  C   ACE A   0     -37.615  24.070   2.951  0.00  0.00    +0.402 C 
ATOM     21  H   UNL     1     -37.987  22.226   3.736  0.00  0.00    +0.153 HD
BRANCH  20  22
ATOM     22  O   UNL     1     -38.975  24.193   2.928  0.00  0.00    -0.442 OA
BRANCH  22  23
ATOM     23  C   UNL     1     -39.625  23.718   1.744  0.00  0.00    +0.138 C 
ATOM     24  C   UNL     1     -40.925  24.506   1.585  0.00  0.00    +0.044 C 
ATOM     25  C   UNL     1     -38.701  23.961   0.551  0.00  0.00    +0.044 C 
ATOM     26  C   UNL     1     -39.917  22.229   1.914  0.00  0.00    +0.044 C 
ENDBRANCH  22  23
ENDBRANCH  20  22
ENDBRANCH   1  19
BRANCH   1  27
ATOM     27  CB  UNL     1     -35.490  22.289   5.095  0.00  0.00    +0.029 C 
BRANCH  27  28
ATOM     28  CG  UNL     1     -35.447  23.655   5.789  0.00  0.00    +0.000 C 
BRANCH  28  29
ATOM     29  CD  UNL     1     -34.479  24.606   5.082  0.00  0.00    -0.024 C 
BRANCH  29  30
ATOM     30  CE  UNL     1     -34.798  26.065   5.411  0.00  0.00    -0.086 C 
BRANCH  30  31
ATOM     31  NZ  UNL     1     -36.239  26.284   5.393  0.00  0.00    +0.380 N 
ATOM     32  HZ1 UNL     1     -36.720  25.385   5.432  0.00  0.00    -0.089 HD
ATOM     33  HZ2 UNL     1     -36.497  26.772   4.536  0.00  0.00    -0.089 HD
ATOM     34  HZ3 UNL     1     -36.507  26.848   6.199  0.00  0.00    -0.089 HD
ENDBRANCH  30  31
ENDBRANCH  29  30
ENDBRANCH  28  29
ENDBRANCH  27  28
ENDBRANCH   1  27
TORSDOF 14
ENDMDL
MODEL 3
REMARK VINA RESULT:      -5.9      2.754      7.053
REMARK  Name = 54522708
REMARK  14 active torsions:
REMARK  status: ('A' for Active; 'I' for Inactive)
REMARK    1  A    between atoms: CA_1  and  C_4
REMARK    2  A    between atoms: CA_1  and  N_19
REMARK    3  A    between atoms: CA_1  and  CB_27
REMARK    4  A    between atoms: N_3  and  CA_6
REMARK    5  A    between atoms: CA_6  and  C_10
REMARK    6  A    between atoms: N_9  and  CA_12
REMARK    7  A    between atoms: CA_12  and  C_15
REMARK    8  A    between atoms: C_15  and  O_16
REMARK    9  A    between atoms: C_20  and  O_22
REMARK   10  A    between atoms: O_22  and  C_23
REMARK   11  A    between atoms: CB_27  and  CG_28
REMARK   12  A    between atoms: CG_28  and  CD_29
REMARK   13  A    between atoms: CD_29  and  CE_30
REMARK   14  A    between atoms: CE_30  and  NZ_31
REMARK                            x       y       z     vdW  Elec       q    Type
REMARK                         _______ _______ _______ _____ _____    ______ ____
ROOT
ATOM      1  CA  UNL     1     -34.539  26.103   4.338  0.00  0.00    +0.151 C 
ENDROOT
BRANCH   1   4
ATOM      2  O   UNL     1     -35.913  26.519   2.383  0.00  0.00    -0.273 OA
ATOM      3  N   UNL     1     -34.058  25.140   2.173  0.00  0.00    -0.297 N 
ATOM      4  C   UNL     1     -34.922  25.974   2.867  0.00  0.00    +0.241 C 
ATOM      5  H   UNL     1     -33.290  24.751   2.650  0.00  0.00    +0.150 HD
BRANCH   3   6
ATOM      6  CA  UNL     1     -34.239  24.821   0.776  0.00  0.00    +0.149 C 
ATOM      7  CB  UNL     1     -32.905  24.595   0.081  0.00  0.00    +0.031 C 
BRANCH   6  10
ATOM      8  O   UNL     1     -36.315  23.625   0.412  0.00  0.00    -0.273 OA
ATOM      9  N   UNL     1     -34.416  22.422   0.993  0.00  0.00    -0.295 N 
ATOM     10  C   UNL     1     -35.118  23.581   0.686  0.00  0.00    +0.241 C 
ATOM     11  H   UNL     1     -33.457  22.492   1.200  0.00  0.00    +0.150 HD
BRANCH   9  12
ATOM     12  CA  UNL     1     -35.039  21.119   1.019  0.00  0.00    +0.171 C 
ATOM     13  CB  UNL     1     -34.026  20.035   0.683  0.00  0.00    +0.033 C 
BRANCH  12  15
ATOM     14  OXT UNL     1     -35.122  20.232   3.266  0.00  0.00    -0.248 OA
ATOM     15  C   UNL     1     -35.691  20.835   2.363  0.00  0.00    +0.332 C 
BRANCH  15  16
ATOM     16  O   UNL     1     -36.961  21.288   2.482  0.00  0.00    -0.479 OA
ATOM     17  H   UNL     1     -37.262  21.991   1.940  0.00  0.00    +0.295 HD
ENDBRANCH  15  16
ENDBRANCH  12  15
ENDBRANCH   9  12
ENDBRANCH   6  10
ENDBRANCH   3   6
ENDBRANCH   1   4
BRANCH   1  19
ATOM     18  O   UNL     1     -31.910  27.127   3.644  0.00  0.00    -0.226 OA
ATOM     19  N   UNL     1     -34.031  27.438   4.534  0.00  0.00    -0.264 N 
ATOM     20  C   ACE A   0     -32.760  27.838   4.171  0.00  0.00    +0.402 C 
ATOM     21  H   UNL     1     -34.625  28.103   4.951  0.00  0.00    +0.153 HD
BRANCH  20  22
ATOM     22  O   UNL     1     -32.581  29.155   4.486  0.00  0.00    -0.442 OA
BRANCH  22  23
ATOM     23  C   UNL     1     -31.699  29.422   5.581  0.00  0.00    +0.138 C 
ATOM     24  C   UNL     1     -32.016  30.825   6.096  0.00  0.00    +0.044 C 
ATOM     25  C   UNL     1     -31.949  28.380   6.671  0.00  0.00    +0.044 C 
ATOM     26  C   UNL     1     -30.260  29.347   5.075  0.00  0.00    +0.044 C 
ENDBRANCH  22  23
ENDBRANCH  20  22
ENDBRANCH   1  19
BRANCH   1  27
ATOM     27  CB  UNL     1     -35.751  25.802   5.226  0.00  0.00    +0.029 C 
BRANCH  27  28
ATOM     28  CG  UNL     1     -36.188  24.336   5.148  0.00  0.00    +0.000 C 
BRANCH  28  29
ATOM     29  CD  UNL     1     -35.048  23.395   5.546  0.00  0.00    -0.024 C 
BRANCH  29  30
ATOM     30  CE  UNL     1     -35.549  22.272   6.453  0.00  0.00    -0.086 C 
BRANCH  30  31
ATOM     31  NZ  UNL     1     -35.080  20.980   5.964  0.00  0.00    +0.380 N 
ATOM     32  HZ1 UNL     1     -34.122  20.826   6.278  0.00  0.00    -0.089 HD
ATOM     33  HZ2 UNL     1     -35.111  20.972   4.945  0.00  0.00    -0.089 HD
ATOM     34  HZ3 UNL     1     -35.681  20.241   6.329  0.00  0.00    -0.089 HD
ENDBRANCH  30  31
ENDBRANCH  29  30
ENDBRANCH  28  29
ENDBRANCH  27  28
ENDBRANCH   1  27
TORSDOF 14
ENDMDL
MODEL 4
REMARK VINA RESULT:      -5.8      2.588      6.007
REMARK  Name = 54522708
REMARK  14 active torsions:
REMARK  status: ('A' for Active; 'I' for Inactive)
REMARK    1  A    between atoms: CA_1  and  C_4
REMARK    2  A    between atoms: CA_1  and  N_19
REMARK    3  A    between atoms: CA_1  and  CB_27
REMARK    4  A    between atoms: N_3  and  CA_6
REMARK    5  A    between atoms: CA_6  and  C_10
REMARK    6  A    between atoms: N_9  and  CA_12
REMARK    7  A    between atoms: CA_12  and  C_15
REMARK    8  A    between atoms: C_15  and  O_16
REMARK    9  A    between atoms: C_20  and  O_22
REMARK   10  A    between atoms: O_22  and  C_23
REMARK   11  A    between atoms: CB_27  and  CG_28
REMARK   12  A    between atoms: CG_28  and  CD_29
REMARK   13  A    between atoms: CD_29  and  CE_30
REMARK   14  A    between atoms: CE_30  and  NZ_31
REMARK                            x       y       z     vdW  Elec       q    Type
REMARK                         _______ _______ _______ _____ _____    ______ ____
ROOT
ATOM      1  CA  UNL     1     -34.019  26.225   4.727  0.00  0.00    +0.151 C 
ENDROOT
BRANCH   1   4
ATOM      2  O   UNL     1     -33.792  25.590   2.397  0.00  0.00    -0.273 OA
ATOM      3  N   UNL     1     -35.586  26.922   3.022  0.00  0.00    -0.297 N 
ATOM      4  C   UNL     1     -34.437  26.182   3.260  0.00  0.00    +0.241 C 
ATOM      5  H   UNL     1     -36.033  27.360   3.783  0.00  0.00    +0.150 HD
BRANCH   3   6
ATOM      6  CA  UNL     1     -36.154  27.076   1.703  0.00  0.00    +0.149 C 
ATOM      7  CB  UNL     1     -37.655  26.831   1.714  0.00  0.00    +0.031 C 
BRANCH   6  10
ATOM      8  O   UNL     1     -35.724  28.769   0.023  0.00  0.00    -0.273 OA
ATOM      9  N   UNL     1     -35.644  29.369   2.265  0.00  0.00    -0.295 N 
ATOM     10  C   UNL     1     -35.834  28.482   1.214  0.00  0.00    +0.241 C 
ATOM     11  H   UNL     1     -35.756  29.041   3.185  0.00  0.00    +0.150 HD
BRANCH   9  12
ATOM     12  CA  UNL     1     -35.289  30.754   2.060  0.00  0.00    +0.171 C 
ATOM     13  CB  UNL     1     -36.508  31.649   2.226  0.00  0.00    +0.033 C 
BRANCH  12  15
ATOM     14  OXT UNL     1     -33.436  32.140   2.758  0.00  0.00    -0.248 OA
ATOM     15  C   UNL     1     -34.178  31.195   2.999  0.00  0.00    +0.332 C 
BRANCH  15  16
ATOM     16  O   UNL     1     -34.061  30.450   4.124  0.00  0.00    -0.479 OA
ATOM     17  H   UNL     1     -34.806  30.000   4.470  0.00  0.00    +0.295 HD
ENDBRANCH  15  16
ENDBRANCH  12  15
ENDBRANCH   9  12
ENDBRANCH   6  10
ENDBRANCH   3   6
ENDBRANCH   1   4
BRANCH   1  19
ATOM     18  O   UNL     1     -32.072  27.000   6.739  0.00  0.00    -0.226 OA
ATOM     19  N   UNL     1     -33.489  27.542   4.983  0.00  0.00    -0.264 N 
ATOM     20  C   ACE A   0     -32.561  27.819   5.967  0.00  0.00    +0.402 C 
ATOM     21  H   UNL     1     -33.809  28.286   4.424  0.00  0.00    +0.153 HD
BRANCH  20  22
ATOM     22  O   UNL     1     -32.260  29.151   5.958  0.00  0.00    -0.442 OA
BRANCH  22  23
ATOM     23  C   UNL     1     -30.928  29.488   5.558  0.00  0.00    +0.138 C 
ATOM     24  C   UNL     1     -30.008  29.223   6.749  0.00  0.00    +0.044 C 
ATOM     25  C   UNL     1     -30.538  28.606   4.372  0.00  0.00    +0.044 C 
ATOM     26  C   UNL     1     -30.896  30.966   5.172  0.00  0.00    +0.044 C 
ENDBRANCH  22  23
ENDBRANCH  20  22
ENDBRANCH   1  19
BRANCH   1  27
ATOM     27  CB  UNL     1     -35.216  25.892   5.625  0.00  0.00    +0.029 C 
BRANCH  27  28
ATOM     28  CG  UNL     1     -35.860  24.547   5.271  0.00  0.00    +0.000 C 
BRANCH  28  29
ATOM     29  CD  UNL     1     -34.898  23.386   5.534  0.00  0.00    -0.024 C 
BRANCH  29  30
ATOM     30  CE  UNL     1     -35.563  22.296   6.375  0.00  0.00    -0.086 C 
BRANCH  30  31
ATOM     31  NZ  UNL     1     -35.188  20.977   5.881  0.00  0.00    +0.380 N 
ATOM     32  HZ1 UNL     1     -34.660  21.076   5.013  0.00  0.00    -0.089 HD
ATOM     33  HZ2 UNL     1     -36.029  20.427   5.707  0.00  0.00    -0.089 HD
ATOM     34  HZ3 UNL     1     -34.611  20.505   6.577  0.00  0.00    -0.089 HD
ENDBRANCH  30  31
ENDBRANCH  29  30
ENDBRANCH  28  29
ENDBRANCH  27  28
ENDBRANCH   1  27
TORSDOF 14
ENDMDL
MODEL 5
REMARK VINA RESULT:      -5.7      1.212      1.417
REMARK  Name = 54522708
REMARK  14 active torsions:
REMARK  status: ('A' for Active; 'I' for Inactive)
REMARK    1  A    between atoms: CA_1  and  C_4
REMARK    2  A    between atoms: CA_1  and  N_19
REMARK    3  A    between atoms: CA_1  and  CB_27
REMARK    4  A    between atoms: N_3  and  CA_6
REMARK    5  A    between atoms: CA_6  and  C_10
REMARK    6  A    between atoms: N_9  and  CA_12
REMARK    7  A    between atoms: CA_12  and  C_15
REMARK    8  A    between atoms: C_15  and  O_16
REMARK    9  A    between atoms: C_20  and  O_22
REMARK   10  A    between atoms: O_22  and  C_23
REMARK   11  A    between atoms: CB_27  and  CG_28
REMARK   12  A    between atoms: CG_28  and  CD_29
REMARK   13  A    between atoms: CD_29  and  CE_30
REMARK   14  A    between atoms: CE_30  and  NZ_31
REMARK                            x       y       z     vdW  Elec       q    Type
REMARK                         _______ _______ _______ _____ _____    ______ ____
ROOT
ATOM      1  CA  UNL     1     -35.939  26.253   3.441  0.00  0.00    +0.151 C 
ENDROOT
BRANCH   1   4
ATOM      2  O   UNL     1     -34.630  27.011   1.544  0.00  0.00    -0.273 OA
ATOM      3  N   UNL     1     -35.208  28.544   3.188  0.00  0.00    -0.297 N 
ATOM      4  C   UNL     1     -35.199  27.288   2.598  0.00  0.00    +0.241 C 
ATOM      5  H   UNL     1     -35.695  28.666   4.035  0.00  0.00    +0.150 HD
BRANCH   3   6
ATOM      6  CA  UNL     1     -34.532  29.680   2.607  0.00  0.00    +0.149 C 
ATOM      7  CB  UNL     1     -35.297  30.970   2.863  0.00  0.00    +0.031 C 
BRANCH   6  10
ATOM      8  O   UNL     1     -32.149  30.115   2.561  0.00  0.00    -0.273 OA
ATOM      9  N   UNL     1     -33.103  29.314   4.520  0.00  0.00    -0.295 N 
ATOM     10  C   UNL     1     -33.132  29.750   3.202  0.00  0.00    +0.241 C 
ATOM     11  H   UNL     1     -33.947  29.042   4.946  0.00  0.00    +0.150 HD
BRANCH   9  12
ATOM     12  CA  UNL     1     -31.884  29.245   5.290  0.00  0.00    +0.171 C 
ATOM     13  CB  UNL     1     -31.688  30.520   6.098  0.00  0.00    +0.033 C 
BRANCH  12  15
ATOM     14  OXT UNL     1     -32.878  27.424   6.528  0.00  0.00    -0.248 OA
ATOM     15  C   UNL     1     -31.864  28.032   6.205  0.00  0.00    +0.332 C 
BRANCH  15  16
ATOM     16  O   UNL     1     -30.635  27.678   6.650  0.00  0.00    -0.479 OA
ATOM     17  H   UNL     1     -30.165  26.985   6.230  0.00  0.00    +0.295 HD
ENDBRANCH  15  16
ENDBRANCH  12  15
ENDBRANCH   9  12
ENDBRANCH   6  10
ENDBRANCH   3   6
ENDBRANCH   1   4
BRANCH   1  19
ATOM     18  O   UNL     1     -38.508  26.812   2.205  0.00  0.00    -0.226 OA
ATOM     19  N   UNL     1     -36.684  25.415   2.533  0.00  0.00    -0.264 N 
ATOM     20  C   ACE A   0     -37.906  25.764   1.992  0.00  0.00    +0.402 C 
ATOM     21  H   UNL     1     -36.300  24.543   2.287  0.00  0.00    +0.153 HD
BRANCH  20  22
ATOM     22  O   UNL     1     -38.353  24.765   1.175  0.00  0.00    -0.442 OA
BRANCH  22  23
ATOM     23  C   UNL     1     -39.231  23.810   1.780  0.00  0.00    +0.138 C 
ATOM     24  C   UNL     1     -40.355  23.523   0.785  0.00  0.00    +0.044 C 
ATOM     25  C   UNL     1     -38.437  22.538   2.075  0.00  0.00    +0.044 C 
ATOM     26  C   UNL     1     -39.793  24.413   3.066  0.00  0.00    +0.044 C 
ENDBRANCH  22  23
ENDBRANCH  20  22
ENDBRANCH   1  19
BRANCH   1  27
ATOM     27  CB  UNL     1     -34.943  25.455   4.288  0.00  0.00    +0.029 C 
BRANCH  27  28
ATOM     28  CG  UNL     1     -35.615  24.724   5.455  0.00  0.00    +0.000 C 
BRANCH  28  29
ATOM     29  CD  UNL     1     -35.787  23.234   5.150  0.00  0.00    -0.024 C 
BRANCH  29  30
ATOM     30  CE  UNL     1     -35.307  22.371   6.317  0.00  0.00    -0.086 C 
BRANCH  30  31
ATOM     31  NZ  UNL     1     -35.222  20.973   5.911  0.00  0.00    +0.380 N 
ATOM     32  HZ1 UNL     1     -35.375  20.375   6.724  0.00  0.00    -0.089 HD
ATOM     33  HZ2 UNL     1     -34.299  20.788   5.521  0.00  0.00    -0.089 HD
ATOM     34  HZ3 UNL     1     -35.934  20.780   5.208  0.00  0.00    -0.089 HD
ENDBRANCH  30  31
ENDBRANCH  29  30
ENDBRANCH  28  29
ENDBRANCH  27  28
ENDBRANCH   1  27
TORSDOF 14
ENDMDL
MODEL 6
REMARK VINA RESULT:      -5.6      2.447      7.810
REMARK  Name = 54522708
REMARK  14 active torsions:
REMARK  status: ('A' for Active; 'I' for Inactive)
REMARK    1  A    between atoms: CA_1  and  C_4
REMARK    2  A    between atoms: CA_1  and  N_19
REMARK    3  A    between atoms: CA_1  and  CB_27
REMARK    4  A    between atoms: N_3  and  CA_6
REMARK    5  A    between atoms: CA_6  and  C_10
REMARK    6  A    between atoms: N_9  and  CA_12
REMARK    7  A    between atoms: CA_12  and  C_15
REMARK    8  A    between atoms: C_15  and  O_16
REMARK    9  A    between atoms: C_20  and  O_22
REMARK   10  A    between atoms: O_22  and  C_23
REMARK   11  A    between atoms: CB_27  and  CG_28
REMARK   12  A    between atoms: CG_28  and  CD_29
REMARK   13  A    between atoms: CD_29  and  CE_30
REMARK   14  A    between atoms: CE_30  and  NZ_31
REMARK                            x       y       z     vdW  Elec       q    Type
REMARK                         _______ _______ _______ _____ _____    ______ ____
ROOT
ATOM      1  CA  UNL     1     -34.403  27.023   4.130  0.00  0.00    +0.151 C 
ENDROOT
BRANCH   1   4
ATOM      2  O   UNL     1     -33.542  25.050   3.012  0.00  0.00    -0.273 OA
ATOM      3  N   UNL     1     -34.903  24.776   4.871  0.00  0.00    -0.297 N 
ATOM      4  C   UNL     1     -34.207  25.522   3.931  0.00  0.00    +0.241 C 
ATOM      5  H   UNL     1     -35.408  25.249   5.572  0.00  0.00    +0.150 HD
BRANCH   3   6
ATOM      6  CA  UNL     1     -34.916  23.331   4.862  0.00  0.00    +0.149 C 
ATOM      7  CB  UNL     1     -35.316  22.773   6.219  0.00  0.00    +0.031 C 
BRANCH   6  10
ATOM      8  O   UNL     1     -37.101  23.029   3.859  0.00  0.00    -0.273 OA
ATOM      9  N   UNL     1     -35.232  22.238   2.732  0.00  0.00    -0.295 N 
ATOM     10  C   UNL     1     -35.884  22.876   3.779  0.00  0.00    +0.241 C 
ATOM     11  H   UNL     1     -34.252  22.166   2.760  0.00  0.00    +0.150 HD
BRANCH   9  12
ATOM     12  CA  UNL     1     -35.937  21.678   1.602  0.00  0.00    +0.171 C 
ATOM     13  CB  UNL     1     -35.294  22.122   0.296  0.00  0.00    +0.033 C 
BRANCH  12  15
ATOM     14  OXT UNL     1     -35.290  19.432   0.986  0.00  0.00    -0.248 OA
ATOM     15  C   UNL     1     -35.996  20.161   1.673  0.00  0.00    +0.332 C 
BRANCH  15  16
ATOM     16  O   UNL     1     -36.906  19.671   2.549  0.00  0.00    -0.479 OA
ATOM     17  H   UNL     1     -37.822  19.746   2.366  0.00  0.00    +0.295 HD
ENDBRANCH  15  16
ENDBRANCH  12  15
ENDBRANCH   9  12
ENDBRANCH   6  10
ENDBRANCH   3   6
ENDBRANCH   1   4
BRANCH   1  19
ATOM     18  O   UNL     1     -32.826  26.923   6.568  0.00  0.00    -0.226 OA
ATOM     19  N   UNL     1     -33.101  27.597   4.365  0.00  0.00    -0.264 N 
ATOM     20  C   ACE A   0     -32.422  27.499   5.563  0.00  0.00    +0.402 C 
ATOM     21  H   UNL     1     -32.672  28.088   3.628  0.00  0.00    +0.153 HD
BRANCH  20  22
ATOM     22  O   UNL     1     -31.222  28.144   5.470  0.00  0.00    -0.442 OA
BRANCH  22  23
ATOM     23  C   UNL     1     -31.213  29.512   5.889  0.00  0.00    +0.138 C 
ATOM     24  C   UNL     1     -29.776  30.019   5.776  0.00  0.00    +0.044 C 
ATOM     25  C   UNL     1     -32.138  30.309   4.970  0.00  0.00    +0.044 C 
ATOM     26  C   UNL     1     -31.694  29.579   7.338  0.00  0.00    +0.044 C 
ENDBRANCH  22  23
ENDBRANCH  20  22
ENDBRANCH   1  19
BRANCH   1  27
ATOM     27  CB  UNL     1     -35.098  27.629   2.907  0.00  0.00    +0.029 C 
BRANCH  27  28
ATOM     28  CG  UNL     1     -35.833  26.579   2.067  0.00  0.00    +0.000 C 
BRANCH  28  29
ATOM     29  CD  UNL     1     -37.273  27.010   1.777  0.00  0.00    -0.024 C 
BRANCH  29  30
ATOM     30  CE  UNL     1     -38.276  26.018   2.364  0.00  0.00    -0.086 C 
BRANCH  30  31
ATOM     31  NZ  UNL     1     -38.151  25.971   3.816  0.00  0.00    +0.380 N 
ATOM     32  HZ1 UNL     1     -37.710  25.093   4.091  0.00  0.00    -0.089 HD
ATOM     33  HZ2 UNL     1     -39.077  26.034   4.239  0.00  0.00    -0.089 HD
ATOM     34  HZ3 UNL     1     -37.579  26.753   4.133  0.00  0.00    -0.089 HD
ENDBRANCH  30  31
ENDBRANCH  29  30
ENDBRANCH  28  29
ENDBRANCH  27  28
ENDBRANCH   1  27
TORSDOF 14
ENDMDL
MODEL 7
REMARK VINA RESULT:      -5.6      1.804      7.440
REMARK  Name = 54522708
REMARK  14 active torsions:
REMARK  status: ('A' for Active; 'I' for Inactive)
REMARK    1  A    between atoms: CA_1  and  C_4
REMARK    2  A    between atoms: CA_1  and  N_19
REMARK    3  A    between atoms: CA_1  and  CB_27
REMARK    4  A    between atoms: N_3  and  CA_6
REMARK    5  A    between atoms: CA_6  and  C_10
REMARK    6  A    between atoms: N_9  and  CA_12
REMARK    7  A    between atoms: CA_12  and  C_15
REMARK    8  A    between atoms: C_15  and  O_16
REMARK    9  A    between atoms: C_20  and  O_22
REMARK   10  A    between atoms: O_22  and  C_23
REMARK   11  A    between atoms: CB_27  and  CG_28
REMARK   12  A    between atoms: CG_28  and  CD_29
REMARK   13  A    between atoms: CD_29  and  CE_30
REMARK   14  A    between atoms: CE_30  and  NZ_31
REMARK                            x       y       z     vdW  Elec       q    Type
REMARK                         _______ _______ _______ _____ _____    ______ ____
ROOT
ATOM      1  CA  UNL     1     -34.795  26.491   3.508  0.00  0.00    +0.151 C 
ENDROOT
BRANCH   1   4
ATOM      2  O   UNL     1     -35.828  28.249   2.194  0.00  0.00    -0.273 OA
ATOM      3  N   UNL     1     -36.853  26.169   2.280  0.00  0.00    -0.297 N 
ATOM      4  C   UNL     1     -35.854  27.082   2.581  0.00  0.00    +0.241 C 
ATOM      5  H   UNL     1     -36.783  25.255   2.639  0.00  0.00    +0.150 HD
BRANCH   3   6
ATOM      6  CA  UNL     1     -37.993  26.506   1.459  0.00  0.00    +0.149 C 
ATOM      7  CB  UNL     1     -37.672  26.364  -0.020  0.00  0.00    +0.031 C 
BRANCH   6  10
ATOM      8  O   UNL     1     -39.951  25.876   2.741  0.00  0.00    -0.273 OA
ATOM      9  N   UNL     1     -39.142  24.406   1.137  0.00  0.00    -0.295 N 
ATOM     10  C   UNL     1     -39.146  25.593   1.856  0.00  0.00    +0.241 C 
ATOM     11  H   UNL     1     -38.454  24.274   0.446  0.00  0.00    +0.150 HD
BRANCH   9  12
ATOM     12  CA  UNL     1     -40.110  23.357   1.360  0.00  0.00    +0.171 C 
ATOM     13  CB  UNL     1     -40.795  22.975   0.056  0.00  0.00    +0.033 C 
BRANCH  12  15
ATOM     14  OXT UNL     1     -38.318  22.117   2.404  0.00  0.00    -0.248 OA
ATOM     15  C   UNL     1     -39.476  22.134   2.002  0.00  0.00    +0.332 C 
BRANCH  15  16
ATOM     16  O   UNL     1     -40.289  21.054   2.085  0.00  0.00    -0.479 OA
ATOM     17  H   UNL     1     -41.132  21.130   2.488  0.00  0.00    +0.295 HD
ENDBRANCH  15  16
ENDBRANCH  12  15
ENDBRANCH   9  12
ENDBRANCH   6  10
ENDBRANCH   3   6
ENDBRANCH   1   4
BRANCH   1  19
ATOM     18  O   UNL     1     -31.946  27.053   3.586  0.00  0.00    -0.226 OA
ATOM     19  N   UNL     1     -34.129  27.594   4.157  0.00  0.00    -0.264 N 
ATOM     20  C   ACE A   0     -32.761  27.782   4.141  0.00  0.00    +0.402 C 
ATOM     21  H   UNL     1     -34.683  28.249   4.639  0.00  0.00    +0.153 HD
BRANCH  20  22
ATOM     22  O   UNL     1     -32.441  28.910   4.842  0.00  0.00    -0.442 OA
BRANCH  22  23
ATOM     23  C   UNL     1     -31.727  28.704   6.065  0.00  0.00    +0.138 C 
ATOM     24  C   UNL     1     -31.827  29.993   6.879  0.00  0.00    +0.044 C 
ATOM     25  C   UNL     1     -32.375  27.542   6.817  0.00  0.00    +0.044 C 
ATOM     26  C   UNL     1     -30.270  28.391   5.730  0.00  0.00    +0.044 C 
ENDBRANCH  22  23
ENDBRANCH  20  22
ENDBRANCH   1  19
BRANCH   1  27
ATOM     27  CB  UNL     1     -35.449  25.532   4.509  0.00  0.00    +0.029 C 
BRANCH  27  28
ATOM     28  CG  UNL     1     -34.525  24.376   4.905  0.00  0.00    +0.000 C 
BRANCH  28  29
ATOM     29  CD  UNL     1     -35.175  23.487   5.968  0.00  0.00    -0.024 C 
BRANCH  29  30
ATOM     30  CE  UNL     1     -35.270  22.037   5.493  0.00  0.00    -0.086 C 
BRANCH  30  31
ATOM     31  NZ  UNL     1     -36.216  21.928   4.389  0.00  0.00    +0.380 N 
ATOM     32  HZ1 UNL     1     -35.881  22.480   3.599  0.00  0.00    -0.089 HD
ATOM     33  HZ2 UNL     1     -37.127  22.276   4.686  0.00  0.00    -0.089 HD
ATOM     34  HZ3 UNL     1     -36.300  20.950   4.109  0.00  0.00    -0.089 HD
ENDBRANCH  30  31
ENDBRANCH  29  30
ENDBRANCH  28  29
ENDBRANCH  27  28
ENDBRANCH   1  27
TORSDOF 14
ENDMDL
MODEL 8
REMARK VINA RESULT:      -5.6      2.165      6.975
REMARK  Name = 54522708
REMARK  14 active torsions:
REMARK  status: ('A' for Active; 'I' for Inactive)
REMARK    1  A    between atoms: CA_1  and  C_4
REMARK    2  A    between atoms: CA_1  and  N_19
REMARK    3  A    between atoms: CA_1  and  CB_27
REMARK    4  A    between atoms: N_3  and  CA_6
REMARK    5  A    between atoms: CA_6  and  C_10
REMARK    6  A    between atoms: N_9  and  CA_12
REMARK    7  A    between atoms: CA_12  and  C_15
REMARK    8  A    between atoms: C_15  and  O_16
REMARK    9  A    between atoms: C_20  and  O_22
REMARK   10  A    between atoms: O_22  and  C_23
REMARK   11  A    between atoms: CB_27  and  CG_28
REMARK   12  A    between atoms: CG_28  and  CD_29
REMARK   13  A    between atoms: CD_29  and  CE_30
REMARK   14  A    between atoms: CE_30  and  NZ_31
REMARK                            x       y       z     vdW  Elec       q    Type
REMARK                         _______ _______ _______ _____ _____    ______ ____
ROOT
ATOM      1  CA  UNL     1     -33.915  26.521   3.326  0.00  0.00    +0.151 C 
ENDROOT
BRANCH   1   4
ATOM      2  O   UNL     1     -35.779  26.375   1.779  0.00  0.00    -0.273 OA
ATOM      3  N   UNL     1     -34.497  24.480   2.168  0.00  0.00    -0.297 N 
ATOM      4  C   UNL     1     -34.832  25.816   2.330  0.00  0.00    +0.241 C 
ATOM      5  H   UNL     1     -33.717  24.125   2.653  0.00  0.00    +0.150 HD
BRANCH   3   6
ATOM      6  CA  UNL     1     -35.247  23.588   1.314  0.00  0.00    +0.149 C 
ATOM      7  CB  UNL     1     -34.356  22.506   0.725  0.00  0.00    +0.031 C 
BRANCH   6  10
ATOM      8  O   UNL     1     -36.264  21.900   2.724  0.00  0.00    -0.273 OA
ATOM      9  N   UNL     1     -37.519  23.757   2.117  0.00  0.00    -0.295 N 
ATOM     10  C   UNL     1     -36.370  22.978   2.142  0.00  0.00    +0.241 C 
ATOM     11  H   UNL     1     -37.502  24.607   1.622  0.00  0.00    +0.150 HD
BRANCH   9  12
ATOM     12  CA  UNL     1     -38.736  23.371   2.792  0.00  0.00    +0.171 C 
ATOM     13  CB  UNL     1     -39.595  24.591   3.087  0.00  0.00    +0.033 C 
BRANCH  12  15
ATOM     14  OXT UNL     1     -40.412  22.663   1.201  0.00  0.00    -0.248 OA
ATOM     15  C   UNL     1     -39.525  22.351   1.988  0.00  0.00    +0.332 C 
BRANCH  15  16
ATOM     16  O   UNL     1     -39.182  21.061   2.217  0.00  0.00    -0.479 OA
ATOM     17  H   UNL     1     -39.735  20.367   1.917  0.00  0.00    +0.295 HD
ENDBRANCH  15  16
ENDBRANCH  12  15
ENDBRANCH   9  12
ENDBRANCH   6  10
ENDBRANCH   3   6
ENDBRANCH   1   4
BRANCH   1  19
ATOM     18  O   UNL     1     -32.374  28.980   3.184  0.00  0.00    -0.226 OA
ATOM     19  N   UNL     1     -34.395  27.874   3.466  0.00  0.00    -0.264 N 
ATOM     20  C   ACE A   0     -33.585  28.989   3.383  0.00  0.00    +0.402 C 
ATOM     21  H   UNL     1     -35.356  28.010   3.630  0.00  0.00    +0.153 HD
BRANCH  20  22
ATOM     22  O   UNL     1     -34.333  30.119   3.558  0.00  0.00    -0.442 OA
BRANCH  22  23
ATOM     23  C   UNL     1     -34.600  30.880   2.375  0.00  0.00    +0.138 C 
ATOM     24  C   UNL     1     -33.657  32.083   2.379  0.00  0.00    +0.044 C 
ATOM     25  C   UNL     1     -34.337  29.995   1.157  0.00  0.00    +0.044 C 
ATOM     26  C   UNL     1     -36.056  31.339   2.412  0.00  0.00    +0.044 C 
ENDBRANCH  22  23
ENDBRANCH  20  22
ENDBRANCH   1  19
BRANCH   1  27
ATOM     27  CB  UNL     1     -33.905  25.764   4.658  0.00  0.00    +0.029 C 
BRANCH  27  28
ATOM     28  CG  UNL     1     -35.197  25.962   5.457  0.00  0.00    +0.000 C 
BRANCH  28  29
ATOM     29  CD  UNL     1     -36.048  24.689   5.459  0.00  0.00    -0.024 C 
BRANCH  29  30
ATOM     30  CE  UNL     1     -35.181  23.446   5.661  0.00  0.00    -0.086 C 
BRANCH  30  31
ATOM     31  NZ  UNL     1     -36.018  22.254   5.744  0.00  0.00    +0.380 N 
ATOM     32  HZ1 UNL     1     -36.702  22.372   6.493  0.00  0.00    -0.089 HD
ATOM     33  HZ2 UNL     1     -35.434  21.442   5.940  0.00  0.00    -0.089 HD
ATOM     34  HZ3 UNL     1     -36.505  22.118   4.858  0.00  0.00    -0.089 HD
ENDBRANCH  30  31
ENDBRANCH  29  30
ENDBRANCH  28  29
ENDBRANCH  27  28
ENDBRANCH   1  27
TORSDOF 14
ENDMDL
MODEL 9
REMARK VINA RESULT:      -5.6      1.978      7.043
REMARK  Name = 54522708
REMARK  14 active torsions:
REMARK  status: ('A' for Active; 'I' for Inactive)
REMARK    1  A    between atoms: CA_1  and  C_4
REMARK    2  A    between atoms: CA_1  and  N_19
REMARK    3  A    between atoms: CA_1  and  CB_27
REMARK    4  A    between atoms: N_3  and  CA_6
REMARK    5  A    between atoms: CA_6  and  C_10
REMARK    6  A    between atoms: N_9  and  CA_12
REMARK    7  A    between atoms: CA_12  and  C_15
REMARK    8  A    between atoms: C_15  and  O_16
REMARK    9  A    between atoms: C_20  and  O_22
REMARK   10  A    between atoms: O_22  and  C_23
REMARK   11  A    between atoms: CB_27  and  CG_28
REMARK   12  A    between atoms: CG_28  and  CD_29
REMARK   13  A    between atoms: CD_29  and  CE_30
REMARK   14  A    between atoms: CE_30  and  NZ_31
REMARK                            x       y       z     vdW  Elec       q    Type
REMARK                         _______ _______ _______ _____ _____    ______ ____
ROOT
ATOM      1  CA  UNL     1     -34.949  26.739   3.530  0.00  0.00    +0.151 C 
ENDROOT
BRANCH   1   4
ATOM      2  O   UNL     1     -35.612  28.647   2.187  0.00  0.00    -0.273 OA
ATOM      3  N   UNL     1     -36.246  26.523   1.501  0.00  0.00    -0.297 N 
ATOM      4  C   UNL     1     -35.613  27.427   2.341  0.00  0.00    +0.241 C 
ATOM      5  H   UNL     1     -36.188  25.562   1.709  0.00  0.00    +0.150 HD
BRANCH   3   6
ATOM      6  CA  UNL     1     -36.988  26.935   0.332  0.00  0.00    +0.149 C 
ATOM      7  CB  UNL     1     -36.716  26.017  -0.849  0.00  0.00    +0.031 C 
BRANCH   6  10
ATOM      8  O   UNL     1     -39.184  27.931   0.579  0.00  0.00    -0.273 OA
ATOM      9  N   UNL     1     -38.886  25.711   1.190  0.00  0.00    -0.295 N 
ATOM     10  C   UNL     1     -38.468  26.937   0.690  0.00  0.00    +0.241 C 
ATOM     11  H   UNL     1     -38.235  24.975   1.239  0.00  0.00    +0.150 HD
BRANCH   9  12
ATOM     12  CA  UNL     1     -40.237  25.473   1.640  0.00  0.00    +0.171 C 
ATOM     13  CB  UNL     1     -40.629  24.020   1.413  0.00  0.00    +0.033 C 
BRANCH  12  15
ATOM     14  OXT UNL     1     -40.929  26.900   3.464  0.00  0.00    -0.248 OA
ATOM     15  C   UNL     1     -40.417  25.847   3.102  0.00  0.00    +0.332 C 
BRANCH  15  16
ATOM     16  O   UNL     1     -39.953  24.928   3.982  0.00  0.00    -0.479 OA
ATOM     17  H   UNL     1     -39.620  24.108   3.673  0.00  0.00    +0.295 HD
ENDBRANCH  15  16
ENDBRANCH  12  15
ENDBRANCH   9  12
ENDBRANCH   6  10
ENDBRANCH   3   6
ENDBRANCH   1   4
BRANCH   1  19
ATOM     18  O   UNL     1     -32.063  27.031   3.694  0.00  0.00    -0.226 OA
ATOM     19  N   UNL     1     -34.201  27.745   4.244  0.00  0.00    -0.264 N 
ATOM     20  C   ACE A   0     -32.822  27.806   4.267  0.00  0.00    +0.402 C 
ATOM     21  H   UNL     1     -34.704  28.426   4.746  0.00  0.00    +0.153 HD
BRANCH  20  22
ATOM     22  O   UNL     1     -32.418  28.866   5.027  0.00  0.00    -0.442 OA
BRANCH  22  23
ATOM     23  C   UNL     1     -31.760  28.539   6.256  0.00  0.00    +0.138 C 
ATOM     24  C   UNL     1     -31.805  29.781   7.146  0.00  0.00    +0.044 C 
ATOM     25  C   UNL     1     -32.507  27.379   6.913  0.00  0.00    +0.044 C 
ATOM     26  C   UNL     1     -30.316  28.152   5.945  0.00  0.00    +0.044 C 
ENDBRANCH  22  23
ENDBRANCH  20  22
ENDBRANCH   1  19
BRANCH   1  27
ATOM     27  CB  UNL     1     -36.009  26.066   4.407  0.00  0.00    +0.029 C 
BRANCH  27  28
ATOM     28  CG  UNL     1     -35.395  25.216   5.525  0.00  0.00    +0.000 C 
BRANCH  28  29
ATOM     29  CD  UNL     1     -34.584  24.051   4.954  0.00  0.00    -0.024 C 
BRANCH  29  30
ATOM     30  CE  UNL     1     -35.464  22.821   4.732  0.00  0.00    -0.086 C 
BRANCH  30  31
ATOM     31  NZ  UNL     1     -36.035  22.373   5.997  0.00  0.00    +0.380 N 
ATOM     32  HZ1 UNL     1     -36.970  21.999   5.834  0.00  0.00    -0.089 HD
ATOM     33  HZ2 UNL     1     -36.091  23.160   6.642  0.00  0.00    -0.089 HD
ATOM     34  HZ3 UNL     1     -35.443  21.646   6.398  0.00  0.00    -0.089 HD
ENDBRANCH  30  31
ENDBRANCH  29  30
ENDBRANCH  28  29
ENDBRANCH  27  28
ENDBRANCH   1  27
TORSDOF 14
ENDMDL
