MODEL 1
REMARK VINA RESULT:      -6.1      0.000      0.000
REMARK  Name = 194401
REMARK  5 active torsions:
REMARK  status: ('A' for Active; 'I' for Inactive)
REMARK    1  A    between atoms: C_4  and  O_24
REMARK    2  A    between atoms: C_9  and  O_18
REMARK    3  A    between atoms: C_11  and  O_20
REMARK    4  A    between atoms: C_16  and  O_22
REMARK    5  A    between atoms: O_24  and  C_25
REMARK                            x       y       z     vdW  Elec       q    Type
REMARK                         _______ _______ _______ _____ _____    ______ ____
ROOT
ATOM      1  O   UNL     1     -39.796  23.645   0.879  0.00  0.00    -0.329 OA
ATOM      2  O   UNL     1     -34.970  27.945   3.574  0.00  0.00    -0.283 OA
ATOM      3  O   UNL     1     -35.012  22.851   5.190  0.00  0.00    -0.286 OA
ATOM      4  C   UNL     1     -40.252  24.995   1.028  0.00  0.00    +0.192 C 
ATOM      5  C   UNL     1     -39.037  25.932   1.110  0.00  0.00    +0.085 C 
ATOM      6  C   UNL     1     -38.006  25.439   2.094  0.00  0.00    +0.018 A 
ATOM      7  C   UNL     1     -38.006  24.096   2.499  0.00  0.00    +0.040 A 
ATOM      8  C   UNL     1     -39.083  23.159   2.020  0.00  0.00    +0.174 C 
ATOM      9  C   UNL     1     -37.009  26.306   2.561  0.00  0.00    +0.133 A 
ATOM     10  C   UNL     1     -41.087  25.333  -0.207  0.00  0.00    +0.062 C 
ATOM     11  C   UNL     1     -37.031  23.641   3.395  0.00  0.00    +0.135 A 
ATOM     12  C   UNL     1     -36.031  25.844   3.449  0.00  0.00    +0.081 A 
ATOM     13  C   UNL     1     -36.044  24.513   3.867  0.00  0.00    +0.079 A 
ATOM     14  C   UNL     1     -34.992  26.774   3.936  0.00  0.00    +0.232 C 
ATOM     15  C   UNL     1     -35.023  24.015   4.806  0.00  0.00    +0.202 C 
ATOM     16  C   UNL     1     -33.976  26.247   4.879  0.00  0.00    +0.181 C 
ATOM     17  C   UNL     1     -33.997  24.970   5.276  0.00  0.00    +0.082 C 
ENDROOT
BRANCH   9  18
ATOM     18  O   UNL     1     -37.019  27.599   2.121  0.00  0.00    -0.506 OA
ATOM     19  H   UNL     1     -37.829  28.067   2.062  0.00  0.00    +0.292 HD
ENDBRANCH   9  18
BRANCH  11  20
ATOM     20  O   UNL     1     -37.077  22.335   3.793  0.00  0.00    -0.506 OA
ATOM     21  H   UNL     1     -37.320  22.121   4.672  0.00  0.00    +0.292 HD
ENDBRANCH  11  20
BRANCH  16  22
ATOM     22  O   UNL     1     -33.020  27.139   5.317  0.00  0.00    -0.468 OA
ATOM     23  C   UNL     1     -32.878  27.071   6.722  0.00  0.00    +0.253 C 
ENDBRANCH  16  22
BRANCH   4  24
ATOM     24  O   UNL     1     -41.065  25.180   2.189  0.00  0.00    -0.334 OA
BRANCH  24  25
ATOM     25  C   UNL     1     -41.594  26.495   2.242  0.00  0.00    +0.145 C 
ATOM     26  C   UNL     1     -41.849  26.866   3.688  0.00  0.00    +0.035 C 
ENDBRANCH  24  25
ENDBRANCH   4  24
TORSDOF 5
ENDMDL
MODEL 2
REMARK VINA RESULT:      -6.1      1.693      6.383
REMARK  Name = 194401
REMARK  5 active torsions:
REMARK  status: ('A' for Active; 'I' for Inactive)
REMARK    1  A    between atoms: C_4  and  O_24
REMARK    2  A    between atoms: C_9  and  O_18
REMARK    3  A    between atoms: C_11  and  O_20
REMARK    4  A    between atoms: C_16  and  O_22
REMARK    5  A    between atoms: O_24  and  C_25
REMARK                            x       y       z     vdW  Elec       q    Type
REMARK                         _______ _______ _______ _____ _____    ______ ____
ROOT
ATOM      1  O   UNL     1     -34.305  24.144   5.679  0.00  0.00    -0.329 OA
ATOM      2  O   UNL     1     -40.164  25.750   2.195  0.00  0.00    -0.283 OA
ATOM      3  O   UNL     1     -38.258  20.774   1.791  0.00  0.00    -0.286 OA
ATOM      4  C   UNL     1     -34.340  25.498   5.213  0.00  0.00    +0.192 C 
ATOM      5  C   UNL     1     -35.798  25.904   4.949  0.00  0.00    +0.085 C 
ATOM      6  C   UNL     1     -36.535  24.873   4.131  0.00  0.00    +0.018 A 
ATOM      7  C   UNL     1     -36.044  23.562   4.046  0.00  0.00    +0.040 A 
ATOM      8  C   UNL     1     -34.738  23.196   4.699  0.00  0.00    +0.174 C 
ATOM      9  C   UNL     1     -37.743  25.205   3.504  0.00  0.00    +0.133 A 
ATOM     10  C   UNL     1     -33.748  26.375   6.315  0.00  0.00    +0.062 C 
ATOM     11  C   UNL     1     -36.746  22.604   3.304  0.00  0.00    +0.135 A 
ATOM     12  C   UNL     1     -38.446  24.242   2.771  0.00  0.00    +0.081 A 
ATOM     13  C   UNL     1     -37.947  22.944   2.670  0.00  0.00    +0.079 A 
ATOM     14  C   UNL     1     -39.715  24.613   2.111  0.00  0.00    +0.232 C 
ATOM     15  C   UNL     1     -38.675  21.921   1.897  0.00  0.00    +0.202 C 
ATOM     16  C   UNL     1     -40.427  23.565   1.341  0.00  0.00    +0.181 C 
ATOM     17  C   UNL     1     -39.941  22.324   1.247  0.00  0.00    +0.082 C 
ENDROOT
BRANCH   9  18
ATOM     18  O   UNL     1     -38.209  26.482   3.635  0.00  0.00    -0.506 OA
ATOM     19  H   UNL     1     -38.311  27.024   2.877  0.00  0.00    +0.292 HD
ENDBRANCH   9  18
BRANCH  11  20
ATOM     20  O   UNL     1     -36.226  21.344   3.216  0.00  0.00    -0.506 OA
ATOM     21  H   UNL     1     -36.291  20.758   3.944  0.00  0.00    +0.292 HD
ENDBRANCH  11  20
BRANCH  16  22
ATOM     22  O   UNL     1     -41.607  23.941   0.735  0.00  0.00    -0.468 OA
ATOM     23  C   UNL     1     -41.634  23.520  -0.615  0.00  0.00    +0.253 C 
ENDBRANCH  16  22
BRANCH   4  24
ATOM     24  O   UNL     1     -33.577  25.693   4.020  0.00  0.00    -0.334 OA
BRANCH  24  25
ATOM     25  C   UNL     1     -33.471  27.070   3.696  0.00  0.00    +0.145 C 
ATOM     26  C   UNL     1     -33.635  27.239   2.200  0.00  0.00    +0.035 C 
ENDBRANCH  24  25
ENDBRANCH   4  24
TORSDOF 5
ENDMDL
MODEL 3
REMARK VINA RESULT:      -6.0      2.864      5.618
REMARK  Name = 194401
REMARK  5 active torsions:
REMARK  status: ('A' for Active; 'I' for Inactive)
REMARK    1  A    between atoms: C_4  and  O_24
REMARK    2  A    between atoms: C_9  and  O_18
REMARK    3  A    between atoms: C_11  and  O_20
REMARK    4  A    between atoms: C_16  and  O_22
REMARK    5  A    between atoms: O_24  and  C_25
REMARK                            x       y       z     vdW  Elec       q    Type
REMARK                         _______ _______ _______ _____ _____    ______ ____
ROOT
ATOM      1  O   UNL     1     -36.716  23.852   4.887  0.00  0.00    -0.329 OA
ATOM      2  O   UNL     1     -32.061  28.875   3.429  0.00  0.00    -0.283 OA
ATOM      3  O   UNL     1     -36.912  29.194   1.210  0.00  0.00    -0.286 OA
ATOM      4  C   UNL     1     -35.364  23.382   4.844  0.00  0.00    +0.192 C 
ATOM      5  C   UNL     1     -34.410  24.570   5.045  0.00  0.00    +0.085 C 
ATOM      6  C   UNL     1     -34.765  25.738   4.159  0.00  0.00    +0.018 A 
ATOM      7  C   UNL     1     -36.047  25.830   3.597  0.00  0.00    +0.040 A 
ATOM      8  C   UNL     1     -37.048  24.725   3.805  0.00  0.00    +0.174 C 
ATOM      9  C   UNL     1     -33.836  26.765   3.943  0.00  0.00    +0.133 A 
ATOM     10  C   UNL     1     -35.192  22.380   5.985  0.00  0.00    +0.062 C 
ATOM     11  C   UNL     1     -36.376  26.929   2.794  0.00  0.00    +0.135 A 
ATOM     12  C   UNL     1     -34.172  27.866   3.148  0.00  0.00    +0.081 A 
ATOM     13  C   UNL     1     -35.440  27.947   2.572  0.00  0.00    +0.079 A 
ATOM     14  C   UNL     1     -33.177  28.935   2.927  0.00  0.00    +0.232 C 
ATOM     15  C   UNL     1     -35.806  29.099   1.729  0.00  0.00    +0.202 C 
ATOM     16  C   UNL     1     -33.571  30.083   2.075  0.00  0.00    +0.181 C 
ATOM     17  C   UNL     1     -34.788  30.151   1.525  0.00  0.00    +0.082 C 
ENDROOT
BRANCH   9  18
ATOM     18  O   UNL     1     -32.608  26.660   4.533  0.00  0.00    -0.506 OA
ATOM     19  H   UNL     1     -31.841  26.556   4.004  0.00  0.00    +0.292 HD
ENDBRANCH   9  18
BRANCH  11  20
ATOM     20  O   UNL     1     -37.622  26.974   2.236  0.00  0.00    -0.506 OA
ATOM     21  H   UNL     1     -37.782  27.517   1.489  0.00  0.00    +0.292 HD
ENDBRANCH  11  20
BRANCH  16  22
ATOM     22  O   UNL     1     -32.621  31.064   1.885  0.00  0.00    -0.468 OA
ATOM     23  C   UNL     1     -33.010  32.268   2.516  0.00  0.00    +0.253 C 
ENDBRANCH  16  22
BRANCH   4  24
ATOM     24  O   UNL     1     -35.043  22.728   3.614  0.00  0.00    -0.334 OA
BRANCH  24  25
ATOM     25  C   UNL     1     -35.567  21.410   3.580  0.00  0.00    +0.145 C 
ATOM     26  C   UNL     1     -35.202  20.769   2.257  0.00  0.00    +0.035 C 
ENDBRANCH  24  25
ENDBRANCH   4  24
TORSDOF 5
ENDMDL
MODEL 4
REMARK VINA RESULT:      -5.8      3.184      7.077
REMARK  Name = 194401
REMARK  5 active torsions:
REMARK  status: ('A' for Active; 'I' for Inactive)
REMARK    1  A    between atoms: C_4  and  O_24
REMARK    2  A    between atoms: C_9  and  O_18
REMARK    3  A    between atoms: C_11  and  O_20
REMARK    4  A    between atoms: C_16  and  O_22
REMARK    5  A    between atoms: O_24  and  C_25
REMARK                            x       y       z     vdW  Elec       q    Type
REMARK                         _______ _______ _______ _____ _____    ______ ____
ROOT
ATOM      1  O   UNL     1     -37.155  25.432   3.750  0.00  0.00    -0.329 OA
ATOM      2  O   UNL     1     -35.578  19.834  -0.149  0.00  0.00    -0.283 OA
ATOM      3  O   UNL     1     -40.729  21.095   0.507  0.00  0.00    -0.286 OA
ATOM      4  C   UNL     1     -35.985  24.737   4.196  0.00  0.00    +0.192 C 
ATOM      5  C   UNL     1     -35.427  23.894   3.038  0.00  0.00    +0.085 C 
ATOM      6  C   UNL     1     -36.501  23.077   2.364  0.00  0.00    +0.018 A 
ATOM      7  C   UNL     1     -37.851  23.425   2.520  0.00  0.00    +0.040 A 
ATOM      8  C   UNL     1     -38.242  24.562   3.426  0.00  0.00    +0.174 C 
ATOM      9  C   UNL     1     -36.152  22.005   1.532  0.00  0.00    +0.133 A 
ATOM     10  C   UNL     1     -34.959  25.791   4.611  0.00  0.00    +0.062 C 
ATOM     11  C   UNL     1     -38.841  22.676   1.872  0.00  0.00    +0.135 A 
ATOM     12  C   UNL     1     -37.143  21.265   0.879  0.00  0.00    +0.081 A 
ATOM     13  C   UNL     1     -38.486  21.599   1.050  0.00  0.00    +0.079 A 
ATOM     14  C   UNL     1     -36.755  20.135   0.011  0.00  0.00    +0.232 C 
ATOM     15  C   UNL     1     -39.542  20.825   0.372  0.00  0.00    +0.202 C 
ATOM     16  C   UNL     1     -37.836  19.373  -0.661  0.00  0.00    +0.181 C 
ATOM     17  C   UNL     1     -39.121  19.698  -0.489  0.00  0.00    +0.082 C 
ENDROOT
BRANCH   9  18
ATOM     18  O   UNL     1     -34.826  21.715   1.375  0.00  0.00    -0.506 OA
ATOM     19  H   UNL     1     -34.297  22.233   0.801  0.00  0.00    +0.292 HD
ENDBRANCH   9  18
BRANCH  11  20
ATOM     20  O   UNL     1     -40.148  23.021   2.068  0.00  0.00    -0.506 OA
ATOM     21  H   UNL     1     -40.749  22.397   2.426  0.00  0.00    +0.292 HD
ENDBRANCH  11  20
BRANCH  16  22
ATOM     22  O   UNL     1     -37.443  18.323  -1.463  0.00  0.00    -0.468 OA
ATOM     23  C   UNL     1     -37.785  17.084  -0.871  0.00  0.00    +0.253 C 
ENDBRANCH  16  22
BRANCH   4  24
ATOM     24  O   UNL     1     -36.238  23.886   5.315  0.00  0.00    -0.334 OA
BRANCH  24  25
ATOM     25  C   UNL     1     -35.047  23.259   5.765  0.00  0.00    +0.145 C 
ATOM     26  C   UNL     1     -35.366  21.839   6.184  0.00  0.00    +0.035 C 
ENDBRANCH  24  25
ENDBRANCH   4  24
TORSDOF 5
ENDMDL
MODEL 5
REMARK VINA RESULT:      -5.6      4.699      7.696
REMARK  Name = 194401
REMARK  5 active torsions:
REMARK  status: ('A' for Active; 'I' for Inactive)
REMARK    1  A    between atoms: C_4  and  O_24
REMARK    2  A    between atoms: C_9  and  O_18
REMARK    3  A    between atoms: C_11  and  O_20
REMARK    4  A    between atoms: C_16  and  O_22
REMARK    5  A    between atoms: O_24  and  C_25
REMARK                            x       y       z     vdW  Elec       q    Type
REMARK                         _______ _______ _______ _____ _____    ______ ____
ROOT
ATOM      1  O   UNL     1     -37.360  23.908   2.567  0.00  0.00    -0.329 OA
ATOM      2  O   UNL     1     -33.715  18.480   0.061  0.00  0.00    -0.283 OA
ATOM      3  O   UNL     1     -39.026  18.457  -0.533  0.00  0.00    -0.286 OA
ATOM      4  C   UNL     1     -36.200  23.591   3.346  0.00  0.00    +0.192 C 
ATOM      5  C   UNL     1     -35.216  22.788   2.481  0.00  0.00    +0.085 C 
ATOM      6  C   UNL     1     -35.895  21.652   1.757  0.00  0.00    +0.018 A 
ATOM      7  C   UNL     1     -37.287  21.660   1.583  0.00  0.00    +0.040 A 
ATOM      8  C   UNL     1     -38.120  22.758   2.188  0.00  0.00    +0.174 C 
ATOM      9  C   UNL     1     -35.132  20.615   1.203  0.00  0.00    +0.133 A 
ATOM     10  C   UNL     1     -35.560  24.912   3.770  0.00  0.00    +0.062 C 
ATOM     11  C   UNL     1     -37.906  20.614   0.889  0.00  0.00    +0.135 A 
ATOM     12  C   UNL     1     -35.754  19.576   0.503  0.00  0.00    +0.081 A 
ATOM     13  C   UNL     1     -37.140  19.574   0.348  0.00  0.00    +0.079 A 
ATOM     14  C   UNL     1     -34.934  18.488  -0.067  0.00  0.00    +0.232 C 
ATOM     15  C   UNL     1     -37.810  18.484  -0.384  0.00  0.00    +0.202 C 
ATOM     16  C   UNL     1     -35.632  17.404  -0.799  0.00  0.00    +0.181 C 
ATOM     17  C   UNL     1     -36.961  17.409  -0.941  0.00  0.00    +0.082 C 
ENDROOT
BRANCH   9  18
ATOM     18  O   UNL     1     -33.776  20.655   1.363  0.00  0.00    -0.506 OA
ATOM     19  H   UNL     1     -33.404  21.081   2.110  0.00  0.00    +0.292 HD
ENDBRANCH   9  18
BRANCH  11  20
ATOM     20  O   UNL     1     -39.266  20.636   0.763  0.00  0.00    -0.506 OA
ATOM     21  H   UNL     1     -39.772  19.888   1.014  0.00  0.00    +0.292 HD
ENDBRANCH  11  20
BRANCH  16  22
ATOM     22  O   UNL     1     -34.840  16.402  -1.319  0.00  0.00    -0.468 OA
ATOM     23  C   UNL     1     -35.126  15.163  -0.699  0.00  0.00    +0.253 C 
ENDBRANCH  16  22
BRANCH   4  24
ATOM     24  O   UNL     1     -36.510  22.839   4.521  0.00  0.00    -0.334 OA
BRANCH  24  25
ATOM     25  C   UNL     1     -35.563  23.079   5.550  0.00  0.00    +0.145 C 
ATOM     26  C   UNL     1     -35.053  21.751   6.070  0.00  0.00    +0.035 C 
ENDBRANCH  24  25
ENDBRANCH   4  24
TORSDOF 5
ENDMDL
MODEL 6
REMARK VINA RESULT:      -5.6      4.421      7.543
REMARK  Name = 194401
REMARK  5 active torsions:
REMARK  status: ('A' for Active; 'I' for Inactive)
REMARK    1  A    between atoms: C_4  and  O_24
REMARK    2  A    between atoms: C_9  and  O_18
REMARK    3  A    between atoms: C_11  and  O_20
REMARK    4  A    between atoms: C_16  and  O_22
REMARK    5  A    between atoms: O_24  and  C_25
REMARK                            x       y       z     vdW  Elec       q    Type
REMARK                         _______ _______ _______ _____ _____    ______ ____
ROOT
ATOM      1  O   UNL     1     -34.484  17.743   0.337  0.00  0.00    -0.329 OA
ATOM      2  O   UNL     1     -37.161  23.301   3.651  0.00  0.00    -0.283 OA
ATOM      3  O   UNL     1     -40.165  20.855  -0.031  0.00  0.00    -0.286 OA
ATOM      4  C   UNL     1     -33.505  18.731   0.678  0.00  0.00    +0.192 C 
ATOM      5  C   UNL     1     -34.050  19.611   1.814  0.00  0.00    +0.085 C 
ATOM      6  C   UNL     1     -35.451  20.095   1.533  0.00  0.00    +0.018 A 
ATOM      7  C   UNL     1     -36.245  19.436   0.582  0.00  0.00    +0.040 A 
ATOM      8  C   UNL     1     -35.677  18.298  -0.223  0.00  0.00    +0.174 C 
ATOM      9  C   UNL     1     -35.985  21.165   2.263  0.00  0.00    +0.133 A 
ATOM     10  C   UNL     1     -32.254  17.990   1.151  0.00  0.00    +0.062 C 
ATOM     11  C   UNL     1     -37.552  19.877   0.344  0.00  0.00    +0.135 A 
ATOM     12  C   UNL     1     -37.295  21.596   2.028  0.00  0.00    +0.081 A 
ATOM     13  C   UNL     1     -38.077  20.954   1.068  0.00  0.00    +0.079 A 
ATOM     14  C   UNL     1     -37.838  22.730   2.803  0.00  0.00    +0.232 C 
ATOM     15  C   UNL     1     -39.458  21.400   0.808  0.00  0.00    +0.202 C 
ATOM     16  C   UNL     1     -39.230  23.158   2.522  0.00  0.00    +0.181 C 
ATOM     17  C   UNL     1     -39.972  22.539   1.598  0.00  0.00    +0.082 C 
ENDROOT
BRANCH   9  18
ATOM     18  O   UNL     1     -35.196  21.762   3.205  0.00  0.00    -0.506 OA
ATOM     19  H   UNL     1     -34.356  22.102   2.965  0.00  0.00    +0.292 HD
ENDBRANCH   9  18
BRANCH  11  20
ATOM     20  O   UNL     1     -38.289  19.234  -0.610  0.00  0.00    -0.506 OA
ATOM     21  H   UNL     1     -37.909  19.044  -1.445  0.00  0.00    +0.292 HD
ENDBRANCH  11  20
BRANCH  16  22
ATOM     22  O   UNL     1     -39.709  24.221   3.260  0.00  0.00    -0.468 OA
ATOM     23  C   UNL     1     -39.822  25.379   2.456  0.00  0.00    +0.253 C 
ENDBRANCH  16  22
BRANCH   4  24
ATOM     24  O   UNL     1     -33.148  19.563  -0.428  0.00  0.00    -0.334 OA
BRANCH  24  25
ATOM     25  C   UNL     1     -32.028  20.378  -0.119  0.00  0.00    +0.145 C 
ATOM     26  C   UNL     1     -32.309  21.795  -0.576  0.00  0.00    +0.035 C 
ENDBRANCH  24  25
ENDBRANCH   4  24
TORSDOF 5
ENDMDL
MODEL 7
REMARK VINA RESULT:      -5.5      2.420      4.834
REMARK  Name = 194401
REMARK  5 active torsions:
REMARK  status: ('A' for Active; 'I' for Inactive)
REMARK    1  A    between atoms: C_4  and  O_24
REMARK    2  A    between atoms: C_9  and  O_18
REMARK    3  A    between atoms: C_11  and  O_20
REMARK    4  A    between atoms: C_16  and  O_22
REMARK    5  A    between atoms: O_24  and  C_25
REMARK                            x       y       z     vdW  Elec       q    Type
REMARK                         _______ _______ _______ _____ _____    ______ ____
ROOT
ATOM      1  O   UNL     1     -36.312  29.839   0.834  0.00  0.00    -0.329 OA
ATOM      2  O   UNL     1     -37.541  23.584   3.731  0.00  0.00    -0.283 OA
ATOM      3  O   UNL     1     -33.396  26.439   5.528  0.00  0.00    -0.286 OA
ATOM      4  C   UNL     1     -36.849  28.880  -0.084  0.00  0.00    +0.192 C 
ATOM      5  C   UNL     1     -37.557  27.768   0.705  0.00  0.00    +0.085 C 
ATOM      6  C   UNL     1     -36.705  27.243   1.833  0.00  0.00    +0.018 A 
ATOM      7  C   UNL     1     -35.632  28.005   2.317  0.00  0.00    +0.040 A 
ATOM      8  C   UNL     1     -35.272  29.311   1.662  0.00  0.00    +0.174 C 
ATOM      9  C   UNL     1     -37.019  26.019   2.441  0.00  0.00    +0.133 A 
ATOM     10  C   UNL     1     -37.857  29.611  -0.970  0.00  0.00    +0.062 C 
ATOM     11  C   UNL     1     -34.861  27.521   3.381  0.00  0.00    +0.135 A 
ATOM     12  C   UNL     1     -36.251  25.544   3.509  0.00  0.00    +0.081 A 
ATOM     13  C   UNL     1     -35.171  26.293   3.977  0.00  0.00    +0.079 A 
ATOM     14  C   UNL     1     -36.593  24.249   4.133  0.00  0.00    +0.232 C 
ATOM     15  C   UNL     1     -34.351  25.802   5.099  0.00  0.00    +0.202 C 
ATOM     16  C   UNL     1     -35.752  23.779   5.260  0.00  0.00    +0.181 C 
ATOM     17  C   UNL     1     -34.718  24.502   5.700  0.00  0.00    +0.082 C 
ENDROOT
BRANCH   9  18
ATOM     18  O   UNL     1     -38.091  25.319   1.966  0.00  0.00    -0.506 OA
ATOM     19  H   UNL     1     -38.747  25.006   2.559  0.00  0.00    +0.292 HD
ENDBRANCH   9  18
BRANCH  11  20
ATOM     20  O   UNL     1     -33.804  28.273   3.809  0.00  0.00    -0.506 OA
ATOM     21  H   UNL     1     -33.901  28.840   4.549  0.00  0.00    +0.292 HD
ENDBRANCH  11  20
BRANCH  16  22
ATOM     22  O   UNL     1     -36.095  22.567   5.820  0.00  0.00    -0.468 OA
ATOM     23  C   UNL     1     -34.958  21.735   5.951  0.00  0.00    +0.253 C 
ENDBRANCH  16  22
BRANCH   4  24
ATOM     24  O   UNL     1     -35.850  28.295  -0.922  0.00  0.00    -0.334 OA
BRANCH  24  25
ATOM     25  C   UNL     1     -36.412  27.330  -1.798  0.00  0.00    +0.145 C 
ATOM     26  C   UNL     1     -35.422  26.200  -1.986  0.00  0.00    +0.035 C 
ENDBRANCH  24  25
ENDBRANCH   4  24
TORSDOF 5
ENDMDL
MODEL 8
REMARK VINA RESULT:      -5.5      3.890      4.715
REMARK  Name = 194401
REMARK  5 active torsions:
REMARK  status: ('A' for Active; 'I' for Inactive)
REMARK    1  A    between atoms: C_4  and  O_24
REMARK    2  A    between atoms: C_9  and  O_18
REMARK    3  A    between atoms: C_11  and  O_20
REMARK    4  A    between atoms: C_16  and  O_22
REMARK    5  A    between atoms: O_24  and  C_25
REMARK                            x       y       z     vdW  Elec       q    Type
REMARK                         _______ _______ _______ _____ _____    ______ ____
ROOT
ATOM      1  O   UNL     1     -35.114  19.571   0.292  0.00  0.00    -0.329 OA
ATOM      2  O   UNL     1     -34.130  26.149   2.482  0.00  0.00    -0.283 OA
ATOM      3  O   UNL     1     -35.748  22.507   6.043  0.00  0.00    -0.286 OA
ATOM      4  C   UNL     1     -35.426  20.556  -0.700  0.00  0.00    +0.192 C 
ATOM      5  C   UNL     1     -34.710  21.869  -0.349  0.00  0.00    +0.085 C 
ATOM      6  C   UNL     1     -34.910  22.256   1.095  0.00  0.00    +0.018 A 
ATOM      7  C   UNL     1     -35.312  21.292   2.032  0.00  0.00    +0.040 A 
ATOM      8  C   UNL     1     -35.628  19.888   1.588  0.00  0.00    +0.174 C 
ATOM      9  C   UNL     1     -34.636  23.563   1.518  0.00  0.00    +0.133 A 
ATOM     10  C   UNL     1     -34.917  20.029  -2.041  0.00  0.00    +0.062 C 
ATOM     11  C   UNL     1     -35.473  21.653   3.375  0.00  0.00    +0.135 A 
ATOM     12  C   UNL     1     -34.789  23.918   2.863  0.00  0.00    +0.081 A 
ATOM     13  C   UNL     1     -35.209  22.964   3.789  0.00  0.00    +0.079 A 
ATOM     14  C   UNL     1     -34.502  25.303   3.288  0.00  0.00    +0.232 C 
ATOM     15  C   UNL     1     -35.378  23.325   5.209  0.00  0.00    +0.202 C 
ATOM     16  C   UNL     1     -34.679  25.639   4.721  0.00  0.00    +0.181 C 
ATOM     17  C   UNL     1     -35.085  24.719   5.602  0.00  0.00    +0.082 C 
ENDROOT
BRANCH   9  18
ATOM     18  O   UNL     1     -34.213  24.468   0.586  0.00  0.00    -0.506 OA
ATOM     19  H   UNL     1     -33.971  24.179  -0.272  0.00  0.00    +0.292 HD
ENDBRANCH   9  18
BRANCH  11  20
ATOM     20  O   UNL     1     -35.895  20.699   4.256  0.00  0.00    -0.506 OA
ATOM     21  H   UNL     1     -36.046  20.924   5.153  0.00  0.00    +0.292 HD
ENDBRANCH  11  20
BRANCH  16  22
ATOM     22  O   UNL     1     -34.405  26.940   5.087  0.00  0.00    -0.468 OA
ATOM     23  C   UNL     1     -33.189  27.014   5.805  0.00  0.00    +0.253 C 
ENDBRANCH  16  22
BRANCH   4  24
ATOM     24  O   UNL     1     -36.829  20.803  -0.813  0.00  0.00    -0.334 OA
BRANCH  24  25
ATOM     25  C   UNL     1     -37.468  19.802  -1.589  0.00  0.00    +0.145 C 
ATOM     26  C   UNL     1     -38.489  19.089  -0.729  0.00  0.00    +0.035 C 
ENDBRANCH  24  25
ENDBRANCH   4  24
TORSDOF 5
ENDMDL
MODEL 9
REMARK VINA RESULT:      -5.5      2.759      3.629
REMARK  Name = 194401
REMARK  5 active torsions:
REMARK  status: ('A' for Active; 'I' for Inactive)
REMARK    1  A    between atoms: C_4  and  O_24
REMARK    2  A    between atoms: C_9  and  O_18
REMARK    3  A    between atoms: C_11  and  O_20
REMARK    4  A    between atoms: C_16  and  O_22
REMARK    5  A    between atoms: O_24  and  C_25
REMARK                            x       y       z     vdW  Elec       q    Type
REMARK                         _______ _______ _______ _____ _____    ______ ____
ROOT
ATOM      1  O   UNL     1     -37.637  20.574  -0.926  0.00  0.00    -0.329 OA
ATOM      2  O   UNL     1     -36.774  25.928   3.504  0.00  0.00    -0.283 OA
ATOM      3  O   UNL     1     -35.149  21.076   5.046  0.00  0.00    -0.286 OA
ATOM      4  C   UNL     1     -38.670  21.563  -1.016  0.00  0.00    +0.192 C 
ATOM      5  C   UNL     1     -38.152  22.888  -0.436  0.00  0.00    +0.085 C 
ATOM      6  C   UNL     1     -37.492  22.699   0.907  0.00  0.00    +0.018 A 
ATOM      7  C   UNL     1     -37.047  21.427   1.299  0.00  0.00    +0.040 A 
ATOM      8  C   UNL     1     -37.297  20.231   0.421  0.00  0.00    +0.174 C 
ATOM      9  C   UNL     1     -37.269  23.802   1.743  0.00  0.00    +0.133 A 
ATOM     10  C   UNL     1     -39.003  21.740  -2.497  0.00  0.00    +0.062 C 
ATOM     11  C   UNL     1     -36.414  21.265   2.538  0.00  0.00    +0.135 A 
ATOM     12  C   UNL     1     -36.628  23.636   2.975  0.00  0.00    +0.081 A 
ATOM     13  C   UNL     1     -36.203  22.368   3.373  0.00  0.00    +0.079 A 
ATOM     14  C   UNL     1     -36.407  24.809   3.845  0.00  0.00    +0.232 C 
ATOM     15  C   UNL     1     -35.531  22.178   4.671  0.00  0.00    +0.202 C 
ATOM     16  C   UNL     1     -35.728  24.590   5.144  0.00  0.00    +0.181 C 
ATOM     17  C   UNL     1     -35.326  23.372   5.519  0.00  0.00    +0.082 C 
ENDROOT
BRANCH   9  18
ATOM     18  O   UNL     1     -37.686  25.030   1.315  0.00  0.00    -0.506 OA
ATOM     19  H   UNL     1     -38.470  25.407   1.665  0.00  0.00    +0.292 HD
ENDBRANCH   9  18
BRANCH  11  20
ATOM     20  O   UNL     1     -36.019  20.009   2.903  0.00  0.00    -0.506 OA
ATOM     21  H   UNL     1     -35.118  19.761   2.829  0.00  0.00    +0.292 HD
ENDBRANCH  11  20
BRANCH  16  22
ATOM     22  O   UNL     1     -35.537  25.704   5.935  0.00  0.00    -0.468 OA
ATOM     23  C   UNL     1     -34.185  26.119   5.900  0.00  0.00    +0.253 C 
ENDBRANCH  16  22
BRANCH   4  24
ATOM     24  O   UNL     1     -39.862  21.184  -0.326  0.00  0.00    -0.334 OA
BRANCH  24  25
ATOM     25  C   UNL     1     -40.714  20.409  -1.155  0.00  0.00    +0.145 C 
ATOM     26  C   UNL     1     -42.151  20.808  -0.895  0.00  0.00    +0.035 C 
ENDBRANCH  24  25
ENDBRANCH   4  24
TORSDOF 5
ENDMDL
