MODEL 1
REMARK VINA RESULT:      -6.8      0.000      0.000
REMARK  Name = 57384863
REMARK  1 active torsions:
REMARK  status: ('A' for Active; 'I' for Inactive)
REMARK    1  A    between atoms: C_21  and  C_25
REMARK                            x       y       z     vdW  Elec       q    Type
REMARK                         _______ _______ _______ _____ _____    ______ ____
ROOT
ATOM      1  O   UNL     1     -38.392  28.200   0.457  0.00  0.00    -0.349 OA
ATOM      2  O   UNL     1     -35.225  21.190   4.934  0.00  0.00    -0.350 OA
ATOM      3  N   UNL     1     -36.176  27.705   1.989  0.00  0.00    -0.234 N 
ATOM      4  N   UNL     1     -34.984  23.919   4.302  0.00  0.00    -0.276 N 
ATOM      5  N   UNL     1     -36.676  25.586   2.415  0.00  0.00    -0.381 NA
ATOM      6  N   UNL     1     -34.191  27.968   3.373  0.00  0.00    -0.322 NA
ATOM      7  N   UNL     1     -33.666  25.892   4.544  0.00  0.00    -0.322 NA
ATOM      8  C   UNL     1     -38.197  26.809   0.798  0.00  0.00    +0.152 C 
ATOM      9  C   UNL     1     -37.039  26.665   1.745  0.00  0.00    +0.190 C 
ATOM     10  C   UNL     1     -36.338  29.019   1.406  0.00  0.00    +0.132 C 
ATOM     11  C   UNL     1     -35.222  27.278   2.861  0.00  0.00    +0.235 C 
ATOM     12  C   UNL     1     -37.196  28.923   0.155  0.00  0.00    +0.164 C 
ATOM     13  C   UNL     1     -35.551  25.955   3.113  0.00  0.00    +0.222 C 
ATOM     14  C   UNL     1     -39.495  26.357   1.476  0.00  0.00    +0.038 C 
ATOM     15  C   UNL     1     -37.969  25.987  -0.474  0.00  0.00    +0.038 C 
ATOM     16  C   UNL     1     -34.726  25.257   3.991  0.00  0.00    +0.230 C 
ATOM     17  C   UNL     1     -34.995  22.909   3.237  0.00  0.00    +0.125 C 
ATOM     18  C   UNL     1     -34.586  23.425   5.628  0.00  0.00    +0.125 C 
ATOM     19  C   UNL     1     -35.761  21.675   3.704  0.00  0.00    +0.164 C 
ATOM     20  C   UNL     1     -35.374  22.165   5.966  0.00  0.00    +0.164 C 
ATOM     21  C   UNL     1     -33.467  27.189   4.206  0.00  0.00    +0.140 C 
ENDROOT
BRANCH  21  25
ATOM     22  N   UNL     1     -31.195  28.629   6.783  0.00  0.00    -0.202 NA
ATOM     23  N   UNL     1     -30.162  28.859   4.617  0.00  0.00    -0.180 NA
ATOM     24  N   UNL     1     -29.086  29.632   6.554  0.00  0.00    -0.303 N 
ATOM     25  C   UNL     1     -32.327  27.824   4.817  0.00  0.00    +0.109 C 
ATOM     26  C   UNL     1     -32.246  28.037   6.177  0.00  0.00    +0.177 C 
ATOM     27  C   UNL     1     -31.245  28.260   4.079  0.00  0.00    +0.120 C 
ATOM     28  C   UNL     1     -30.203  29.008   5.954  0.00  0.00    +0.084 C 
ATOM     29  H   UNL     1     -29.061  29.768   7.528  0.00  0.00    +0.154 HD
ATOM     30  H   UNL     1     -28.331  29.930   5.995  0.00  0.00    +0.154 HD
ENDBRANCH  21  25
TORSDOF 1
ENDMDL
MODEL 2
REMARK VINA RESULT:      -6.6      5.157      7.435
REMARK  Name = 57384863
REMARK  1 active torsions:
REMARK  status: ('A' for Active; 'I' for Inactive)
REMARK    1  A    between atoms: C_21  and  C_25
REMARK                            x       y       z     vdW  Elec       q    Type
REMARK                         _______ _______ _______ _____ _____    ______ ____
ROOT
ATOM      1  O   UNL     1     -41.187  19.055  -1.523  0.00  0.00    -0.349 OA
ATOM      2  O   UNL     1     -32.447  18.287  -0.030  0.00  0.00    -0.350 OA
ATOM      3  N   UNL     1     -39.318  20.480  -0.117  0.00  0.00    -0.234 N 
ATOM      4  N   UNL     1     -34.852  19.626   0.542  0.00  0.00    -0.276 N 
ATOM      5  N   UNL     1     -37.604  19.175  -0.652  0.00  0.00    -0.381 NA
ATOM      6  N   UNL     1     -38.233  22.001   1.442  0.00  0.00    -0.322 NA
ATOM      7  N   UNL     1     -35.872  21.443   1.703  0.00  0.00    -0.322 NA
ATOM      8  C   UNL     1     -39.819  18.654  -1.766  0.00  0.00    +0.152 C 
ATOM      9  C   UNL     1     -38.890  19.401  -0.852  0.00  0.00    +0.190 C 
ATOM     10  C   UNL     1     -40.687  20.946  -0.122  0.00  0.00    +0.132 C 
ATOM     11  C   UNL     1     -38.262  20.963   0.592  0.00  0.00    +0.235 C 
ATOM     12  C   UNL     1     -41.389  20.463  -1.380  0.00  0.00    +0.164 C 
ATOM     13  C   UNL     1     -37.203  20.137   0.245  0.00  0.00    +0.222 C 
ATOM     14  C   UNL     1     -39.763  17.152  -1.467  0.00  0.00    +0.038 C 
ATOM     15  C   UNL     1     -39.457  18.899  -3.234  0.00  0.00    +0.038 C 
ATOM     16  C   UNL     1     -35.972  20.408   0.836  0.00  0.00    +0.230 C 
ATOM     17  C   UNL     1     -34.363  19.536  -0.839  0.00  0.00    +0.125 C 
ATOM     18  C   UNL     1     -33.823  19.468   1.580  0.00  0.00    +0.125 C 
ATOM     19  C   UNL     1     -33.494  18.293  -0.999  0.00  0.00    +0.164 C 
ATOM     20  C   UNL     1     -32.985  18.228   1.291  0.00  0.00    +0.164 C 
ATOM     21  C   UNL     1     -36.992  22.164   1.949  0.00  0.00    +0.140 C 
ENDROOT
BRANCH  21  25
ATOM     22  N   UNL     1     -37.033  25.599   3.391  0.00  0.00    -0.202 NA
ATOM     23  N   UNL     1     -36.191  24.067   5.050  0.00  0.00    -0.180 NA
ATOM     24  N   UNL     1     -36.395  26.358   5.518  0.00  0.00    -0.303 N 
ATOM     25  C   UNL     1     -36.837  23.256   2.878  0.00  0.00    +0.109 C 
ATOM     26  C   UNL     1     -37.166  24.554   2.548  0.00  0.00    +0.177 C 
ATOM     27  C   UNL     1     -36.350  23.070   4.156  0.00  0.00    +0.120 C 
ATOM     28  C   UNL     1     -36.548  25.288   4.608  0.00  0.00    +0.084 C 
ATOM     29  H   UNL     1     -36.639  27.272   5.249  0.00  0.00    +0.154 HD
ATOM     30  H   UNL     1     -36.044  26.188   6.422  0.00  0.00    +0.154 HD
ENDBRANCH  21  25
TORSDOF 1
ENDMDL
MODEL 3
REMARK VINA RESULT:      -6.6      2.948      6.189
REMARK  Name = 57384863
REMARK  1 active torsions:
REMARK  status: ('A' for Active; 'I' for Inactive)
REMARK    1  A    between atoms: C_21  and  C_25
REMARK                            x       y       z     vdW  Elec       q    Type
REMARK                         _______ _______ _______ _____ _____    ______ ____
ROOT
ATOM      1  O   UNL     1     -36.375  31.256  -0.552  0.00  0.00    -0.349 OA
ATOM      2  O   UNL     1     -29.847  30.627   5.463  0.00  0.00    -0.350 OA
ATOM      3  N   UNL     1     -35.702  29.472   1.412  0.00  0.00    -0.234 N 
ATOM      4  N   UNL     1     -32.081  29.437   4.241  0.00  0.00    -0.276 N 
ATOM      5  N   UNL     1     -33.911  30.581   2.108  0.00  0.00    -0.381 NA
ATOM      6  N   UNL     1     -35.531  27.471   2.787  0.00  0.00    -0.322 NA
ATOM      7  N   UNL     1     -33.574  27.577   4.241  0.00  0.00    -0.322 NA
ATOM      8  C   UNL     1     -35.327  31.708   0.334  0.00  0.00    +0.152 C 
ATOM      9  C   UNL     1     -34.943  30.609   1.284  0.00  0.00    +0.190 C 
ATOM     10  C   UNL     1     -36.884  29.217   0.620  0.00  0.00    +0.132 C 
ATOM     11  C   UNL     1     -35.127  28.675   2.354  0.00  0.00    +0.235 C 
ATOM     12  C   UNL     1     -37.432  30.528   0.080  0.00  0.00    +0.164 C 
ATOM     13  C   UNL     1     -34.013  29.384   2.776  0.00  0.00    +0.222 C 
ATOM     14  C   UNL     1     -34.141  32.067  -0.568  0.00  0.00    +0.038 C 
ATOM     15  C   UNL     1     -35.789  32.954   1.096  0.00  0.00    +0.038 C 
ATOM     16  C   UNL     1     -33.223  28.792   3.757  0.00  0.00    +0.230 C 
ATOM     17  C   UNL     1     -32.200  30.750   4.886  0.00  0.00    +0.125 C 
ATOM     18  C   UNL     1     -30.962  28.609   4.712  0.00  0.00    +0.125 C 
ATOM     19  C   UNL     1     -30.848  31.456   4.874  0.00  0.00    +0.164 C 
ATOM     20  C   UNL     1     -29.677  29.429   4.707  0.00  0.00    +0.164 C 
ATOM     21  C   UNL     1     -34.690  27.000   3.733  0.00  0.00    +0.140 C 
ENDROOT
BRANCH  21  25
ATOM     22  N   UNL     1     -36.677  24.063   4.875  0.00  0.00    -0.202 NA
ATOM     23  N   UNL     1     -34.339  23.618   5.257  0.00  0.00    -0.180 NA
ATOM     24  N   UNL     1     -35.976  22.036   5.828  0.00  0.00    -0.303 N 
ATOM     25  C   UNL     1     -35.025  25.708   4.277  0.00  0.00    +0.109 C 
ATOM     26  C   UNL     1     -36.328  25.265   4.371  0.00  0.00    +0.177 C 
ATOM     27  C   UNL     1     -34.062  24.833   4.740  0.00  0.00    +0.120 C 
ATOM     28  C   UNL     1     -35.647  23.302   5.293  0.00  0.00    +0.084 C 
ATOM     29  H   UNL     1     -36.916  21.752   5.879  0.00  0.00    +0.154 HD
ATOM     30  H   UNL     1     -35.262  21.438   6.148  0.00  0.00    +0.154 HD
ENDBRANCH  21  25
TORSDOF 1
ENDMDL
MODEL 4
REMARK VINA RESULT:      -6.5      5.981      9.476
REMARK  Name = 57384863
REMARK  1 active torsions:
REMARK  status: ('A' for Active; 'I' for Inactive)
REMARK    1  A    between atoms: C_21  and  C_25
REMARK                            x       y       z     vdW  Elec       q    Type
REMARK                         _______ _______ _______ _____ _____    ______ ____
ROOT
ATOM      1  O   UNL     1     -31.001  17.392  -0.679  0.00  0.00    -0.349 OA
ATOM      2  O   UNL     1     -39.828  16.652  -1.531  0.00  0.00    -0.350 OA
ATOM      3  N   UNL     1     -33.174  18.698   0.356  0.00  0.00    -0.234 N 
ATOM      4  N   UNL     1     -37.649  18.092  -0.493  0.00  0.00    -0.276 N 
ATOM      5  N   UNL     1     -34.689  17.454  -0.684  0.00  0.00    -0.381 NA
ATOM      6  N   UNL     1     -34.620  20.347   1.412  0.00  0.00    -0.322 NA
ATOM      7  N   UNL     1     -36.963  19.914   0.886  0.00  0.00    -0.322 NA
ATOM      8  C   UNL     1     -32.269  16.752  -0.947  0.00  0.00    +0.152 C 
ATOM      9  C   UNL     1     -33.397  17.613  -0.456  0.00  0.00    +0.190 C 
ATOM     10  C   UNL     1     -31.852  19.126   0.757  0.00  0.00    +0.132 C 
ATOM     11  C   UNL     1     -34.374  19.265   0.656  0.00  0.00    +0.235 C 
ATOM     12  C   UNL     1     -30.876  17.968   0.624  0.00  0.00    +0.164 C 
ATOM     13  C   UNL     1     -35.305  18.475  -0.001  0.00  0.00    +0.222 C 
ATOM     14  C   UNL     1     -32.345  16.594  -2.469  0.00  0.00    +0.038 C 
ATOM     15  C   UNL     1     -32.306  15.371  -0.285  0.00  0.00    +0.038 C 
ATOM     16  C   UNL     1     -36.644  18.834   0.135  0.00  0.00    +0.230 C 
ATOM     17  C   UNL     1     -37.818  16.671  -0.172  0.00  0.00    +0.125 C 
ATOM     18  C   UNL     1     -38.875  18.792  -0.901  0.00  0.00    +0.125 C 
ATOM     19  C   UNL     1     -38.594  15.979  -1.288  0.00  0.00    +0.164 C 
ATOM     20  C   UNL     1     -39.593  17.987  -1.978  0.00  0.00    +0.164 C 
ATOM     21  C   UNL     1     -35.946  20.594   1.469  0.00  0.00    +0.140 C 
ENDROOT
BRANCH  21  25
ATOM     22  N   UNL     1     -35.767  23.480   3.817  0.00  0.00    -0.202 NA
ATOM     23  N   UNL     1     -38.021  23.292   2.984  0.00  0.00    -0.180 NA
ATOM     24  N   UNL     1     -37.435  24.981   4.505  0.00  0.00    -0.303 N 
ATOM     25  C   UNL     1     -36.333  21.736   2.258  0.00  0.00    +0.109 C 
ATOM     26  C   UNL     1     -35.439  22.409   3.065  0.00  0.00    +0.177 C 
ATOM     27  C   UNL     1     -37.623  22.227   2.258  0.00  0.00    +0.120 C 
ATOM     28  C   UNL     1     -37.056  23.862   3.729  0.00  0.00    +0.084 C 
ATOM     29  H   UNL     1     -36.771  25.437   5.069  0.00  0.00    +0.154 HD
ATOM     30  H   UNL     1     -38.366  25.304   4.479  0.00  0.00    +0.154 HD
ENDBRANCH  21  25
TORSDOF 1
ENDMDL
MODEL 5
REMARK VINA RESULT:      -6.4      4.719      8.598
REMARK  Name = 57384863
REMARK  1 active torsions:
REMARK  status: ('A' for Active; 'I' for Inactive)
REMARK    1  A    between atoms: C_21  and  C_25
REMARK                            x       y       z     vdW  Elec       q    Type
REMARK                         _______ _______ _______ _____ _____    ______ ____
ROOT
ATOM      1  O   UNL     1     -36.473  23.900   5.315  0.00  0.00    -0.349 OA
ATOM      2  O   UNL     1     -36.209  24.001  -3.580  0.00  0.00    -0.350 OA
ATOM      3  N   UNL     1     -35.479  22.241   3.377  0.00  0.00    -0.234 N 
ATOM      4  N   UNL     1     -35.708  22.594  -1.199  0.00  0.00    -0.276 N 
ATOM      5  N   UNL     1     -36.092  23.515   1.667  0.00  0.00    -0.381 NA
ATOM      6  N   UNL     1     -34.609  20.306   2.184  0.00  0.00    -0.322 NA
ATOM      7  N   UNL     1     -34.786  20.618  -0.229  0.00  0.00    -0.322 NA
ATOM      8  C   UNL     1     -36.475  24.464   3.984  0.00  0.00    +0.152 C 
ATOM      9  C   UNL     1     -36.040  23.432   2.984  0.00  0.00    +0.190 C 
ATOM     10  C   UNL     1     -35.313  21.866   4.764  0.00  0.00    +0.132 C 
ATOM     11  C   UNL     1     -35.166  21.524   2.263  0.00  0.00    +0.235 C 
ATOM     12  C   UNL     1     -35.326  23.109   5.637  0.00  0.00    +0.164 C 
ATOM     13  C   UNL     1     -35.555  22.336   1.208  0.00  0.00    +0.222 C 
ATOM     14  C   UNL     1     -37.922  24.890   3.711  0.00  0.00    +0.038 C 
ATOM     15  C   UNL     1     -35.561  25.692   3.937  0.00  0.00    +0.038 C 
ATOM     16  C   UNL     1     -35.346  21.842  -0.077  0.00  0.00    +0.230 C 
ATOM     17  C   UNL     1     -35.104  23.912  -1.421  0.00  0.00    +0.125 C 
ATOM     18  C   UNL     1     -36.107  21.875  -2.417  0.00  0.00    +0.125 C 
ATOM     19  C   UNL     1     -35.976  24.725  -2.373  0.00  0.00    +0.164 C 
ATOM     20  C   UNL     1     -36.927  22.796  -3.313  0.00  0.00    +0.164 C 
ATOM     21  C   UNL     1     -34.458  19.936   0.894  0.00  0.00    +0.140 C 
ENDROOT
BRANCH  21  25
ATOM     22  N   UNL     1     -32.027  17.114   0.986  0.00  0.00    -0.202 NA
ATOM     23  N   UNL     1     -33.987  16.416  -0.231  0.00  0.00    -0.180 NA
ATOM     24  N   UNL     1     -32.178  14.954   0.082  0.00  0.00    -0.303 N 
ATOM     25  C   UNL     1     -33.864  18.639   0.684  0.00  0.00    +0.109 C 
ATOM     26  C   UNL     1     -32.613  18.317   1.165  0.00  0.00    +0.177 C 
ATOM     27  C   UNL     1     -34.512  17.640  -0.014  0.00  0.00    +0.120 C 
ATOM     28  C   UNL     1     -32.760  16.224   0.290  0.00  0.00    +0.084 C 
ATOM     29  H   UNL     1     -31.283  14.758   0.440  0.00  0.00    +0.154 HD
ATOM     30  H   UNL     1     -32.670  14.264  -0.421  0.00  0.00    +0.154 HD
ENDBRANCH  21  25
TORSDOF 1
ENDMDL
MODEL 6
REMARK VINA RESULT:      -6.4      4.634      8.869
REMARK  Name = 57384863
REMARK  1 active torsions:
REMARK  status: ('A' for Active; 'I' for Inactive)
REMARK    1  A    between atoms: C_21  and  C_25
REMARK                            x       y       z     vdW  Elec       q    Type
REMARK                         _______ _______ _______ _____ _____    ______ ____
ROOT
ATOM      1  O   UNL     1     -35.974  23.527   5.971  0.00  0.00    -0.349 OA
ATOM      2  O   UNL     1     -34.494  25.121  -2.658  0.00  0.00    -0.350 OA
ATOM      3  N   UNL     1     -35.296  22.006   3.798  0.00  0.00    -0.234 N 
ATOM      4  N   UNL     1     -34.783  23.226  -0.602  0.00  0.00    -0.276 N 
ATOM      5  N   UNL     1     -35.243  23.695   2.360  0.00  0.00    -0.381 NA
ATOM      6  N   UNL     1     -34.920  20.138   2.284  0.00  0.00    -0.322 NA
ATOM      7  N   UNL     1     -34.663  20.917  -0.014  0.00  0.00    -0.322 NA
ATOM      8  C   UNL     1     -35.620  24.288   4.794  0.00  0.00    +0.152 C 
ATOM      9  C   UNL     1     -35.398  23.365   3.630  0.00  0.00    +0.190 C 
ATOM     10  C   UNL     1     -35.443  21.356   5.081  0.00  0.00    +0.132 C 
ATOM     11  C   UNL     1     -35.074  21.437   2.582  0.00  0.00    +0.235 C 
ATOM     12  C   UNL     1     -35.186  22.356   6.196  0.00  0.00    +0.164 C 
ATOM     13  C   UNL     1     -35.044  22.506   1.699  0.00  0.00    +0.222 C 
ATOM     14  C   UNL     1     -36.812  25.212   4.518  0.00  0.00    +0.038 C 
ATOM     15  C   UNL     1     -34.371  25.129   5.073  0.00  0.00    +0.038 C 
ATOM     16  C   UNL     1     -34.829  22.209   0.356  0.00  0.00    +0.230 C 
ATOM     17  C   UNL     1     -33.774  24.285  -0.497  0.00  0.00    +0.125 C 
ATOM     18  C   UNL     1     -35.219  22.910  -1.970  0.00  0.00    +0.125 C 
ATOM     19  C   UNL     1     -34.212  25.498  -1.311  0.00  0.00    +0.164 C 
ATOM     20  C   UNL     1     -35.581  24.196  -2.704  0.00  0.00    +0.164 C 
ATOM     21  C   UNL     1     -34.719  19.975   0.959  0.00  0.00    +0.140 C 
ENDROOT
BRANCH  21  25
ATOM     22  N   UNL     1     -35.369  16.663  -0.617  0.00  0.00    -0.202 NA
ATOM     23  N   UNL     1     -33.177  16.632   0.386  0.00  0.00    -0.180 NA
ATOM     24  N   UNL     1     -34.019  14.746  -0.729  0.00  0.00    -0.303 N 
ATOM     25  C   UNL     1     -34.537  18.615   0.519  0.00  0.00    +0.109 C 
ATOM     26  C   UNL     1     -35.505  17.936  -0.190  0.00  0.00    +0.177 C 
ATOM     27  C   UNL     1     -33.382  17.906   0.781  0.00  0.00    +0.120 C 
ATOM     28  C   UNL     1     -34.197  16.080  -0.299  0.00  0.00    +0.084 C 
ATOM     29  H   UNL     1     -34.731  14.292  -1.233  0.00  0.00    +0.154 HD
ATOM     30  H   UNL     1     -33.181  14.272  -0.524  0.00  0.00    +0.154 HD
ENDBRANCH  21  25
TORSDOF 1
ENDMDL
MODEL 7
REMARK VINA RESULT:      -6.2      3.391      6.169
REMARK  Name = 57384863
REMARK  1 active torsions:
REMARK  status: ('A' for Active; 'I' for Inactive)
REMARK    1  A    between atoms: C_21  and  C_25
REMARK                            x       y       z     vdW  Elec       q    Type
REMARK                         _______ _______ _______ _____ _____    ______ ____
ROOT
ATOM      1  O   UNL     1     -34.322  31.173   1.890  0.00  0.00    -0.349 OA
ATOM      2  O   UNL     1     -41.268  26.268  -0.733  0.00  0.00    -0.350 OA
ATOM      3  N   UNL     1     -35.147  28.593   2.290  0.00  0.00    -0.234 N 
ATOM      4  N   UNL     1     -38.961  26.468   0.859  0.00  0.00    -0.276 N 
ATOM      5  N   UNL     1     -36.975  28.754   1.044  0.00  0.00    -0.381 NA
ATOM      6  N   UNL     1     -35.429  26.346   3.182  0.00  0.00    -0.322 NA
ATOM      7  N   UNL     1     -37.484  25.330   2.348  0.00  0.00    -0.322 NA
ATOM      8  C   UNL     1     -35.428  30.761   1.056  0.00  0.00    +0.152 C 
ATOM      9  C   UNL     1     -35.887  29.385   1.447  0.00  0.00    +0.190 C 
ATOM     10  C   UNL     1     -33.912  29.030   2.903  0.00  0.00    +0.132 C 
ATOM     11  C   UNL     1     -35.792  27.405   2.442  0.00  0.00    +0.235 C 
ATOM     12  C   UNL     1     -33.318  30.177   2.102  0.00  0.00    +0.164 C 
ATOM     13  C   UNL     1     -36.929  27.525   1.657  0.00  0.00    +0.222 C 
ATOM     14  C   UNL     1     -36.544  31.782   1.305  0.00  0.00    +0.038 C 
ATOM     15  C   UNL     1     -35.013  30.803  -0.418  0.00  0.00    +0.038 C 
ATOM     16  C   UNL     1     -37.792  26.433   1.625  0.00  0.00    +0.230 C 
ATOM     17  C   UNL     1     -38.879  26.665  -0.592  0.00  0.00    +0.125 C 
ATOM     18  C   UNL     1     -40.116  25.685   1.320  0.00  0.00    +0.125 C 
ATOM     19  C   UNL     1     -40.222  27.156  -1.123  0.00  0.00    +0.164 C 
ATOM     20  C   UNL     1     -41.392  26.230   0.688  0.00  0.00    +0.164 C 
ATOM     21  C   UNL     1     -36.339  25.355   3.071  0.00  0.00    +0.140 C 
ENDROOT
BRANCH  21  25
ATOM     22  N   UNL     1     -35.548  21.807   3.887  0.00  0.00    -0.202 NA
ATOM     23  N   UNL     1     -35.732  23.056   5.940  0.00  0.00    -0.180 NA
ATOM     24  N   UNL     1     -35.241  20.762   5.966  0.00  0.00    -0.303 N 
ATOM     25  C   UNL     1     -36.052  24.159   3.824  0.00  0.00    +0.109 C 
ATOM     26  C   UNL     1     -35.818  22.945   3.214  0.00  0.00    +0.177 C 
ATOM     27  C   UNL     1     -35.996  24.155   5.203  0.00  0.00    +0.120 C 
ATOM     28  C   UNL     1     -35.520  21.934   5.228  0.00  0.00    +0.084 C 
ATOM     29  H   UNL     1     -35.078  19.912   5.497  0.00  0.00    +0.154 HD
ATOM     30  H   UNL     1     -35.208  20.797   6.949  0.00  0.00    +0.154 HD
ENDBRANCH  21  25
TORSDOF 1
ENDMDL
MODEL 8
REMARK VINA RESULT:      -6.2      3.574      5.064
REMARK  Name = 57384863
REMARK  1 active torsions:
REMARK  status: ('A' for Active; 'I' for Inactive)
REMARK    1  A    between atoms: C_21  and  C_25
REMARK                            x       y       z     vdW  Elec       q    Type
REMARK                         _______ _______ _______ _____ _____    ______ ____
ROOT
ATOM      1  O   UNL     1     -41.869  23.257   0.306  0.00  0.00    -0.349 OA
ATOM      2  O   UNL     1     -34.017  19.180  -0.649  0.00  0.00    -0.350 OA
ATOM      3  N   UNL     1     -39.349  23.624   1.311  0.00  0.00    -0.234 N 
ATOM      4  N   UNL     1     -35.537  21.139   0.675  0.00  0.00    -0.276 N 
ATOM      5  N   UNL     1     -38.428  21.933   0.209  0.00  0.00    -0.381 NA
ATOM      6  N   UNL     1     -37.463  24.325   2.681  0.00  0.00    -0.322 NA
ATOM      7  N   UNL     1     -35.507  22.931   2.249  0.00  0.00    -0.322 NA
ATOM      8  C   UNL     1     -40.848  22.457  -0.330  0.00  0.00    +0.152 C 
ATOM      9  C   UNL     1     -39.536  22.632   0.380  0.00  0.00    +0.190 C 
ATOM     10  C   UNL     1     -40.397  24.534   1.717  0.00  0.00    +0.132 C 
ATOM     11  C   UNL     1     -38.067  23.554   1.764  0.00  0.00    +0.235 C 
ATOM     12  C   UNL     1     -41.473  24.589   0.645  0.00  0.00    +0.164 C 
ATOM     13  C   UNL     1     -37.510  22.494   1.064  0.00  0.00    +0.222 C 
ATOM     14  C   UNL     1     -41.322  21.004  -0.217  0.00  0.00    +0.038 C 
ATOM     15  C   UNL     1     -40.727  22.843  -1.807  0.00  0.00    +0.038 C 
ATOM     16  C   UNL     1     -36.178  22.191   1.335  0.00  0.00    +0.230 C 
ATOM     17  C   UNL     1     -35.415  21.158  -0.787  0.00  0.00    +0.125 C 
ATOM     18  C   UNL     1     -34.463  20.427   1.383  0.00  0.00    +0.125 C 
ATOM     19  C   UNL     1     -35.152  19.746  -1.301  0.00  0.00    +0.164 C 
ATOM     20  C   UNL     1     -34.253  19.055   0.753  0.00  0.00    +0.164 C 
ATOM     21  C   UNL     1     -36.182  23.936   2.857  0.00  0.00    +0.140 C 
ENDROOT
BRANCH  21  25
ATOM     22  N   UNL     1     -35.363  26.146   5.743  0.00  0.00    -0.202 NA
ATOM     23  N   UNL     1     -33.311  25.449   4.688  0.00  0.00    -0.180 NA
ATOM     24  N   UNL     1     -33.283  26.860   6.562  0.00  0.00    -0.303 N 
ATOM     25  C   UNL     1     -35.428  24.697   3.822  0.00  0.00    +0.109 C 
ATOM     26  C   UNL     1     -36.037  25.423   4.824  0.00  0.00    +0.177 C 
ATOM     27  C   UNL     1     -34.049  24.747   3.802  0.00  0.00    +0.120 C 
ATOM     28  C   UNL     1     -34.022  26.114   5.618  0.00  0.00    +0.084 C 
ATOM     29  H   UNL     1     -33.751  27.366   7.265  0.00  0.00    +0.154 HD
ATOM     30  H   UNL     1     -32.299  26.873   6.518  0.00  0.00    +0.154 HD
ENDBRANCH  21  25
TORSDOF 1
ENDMDL
MODEL 9
REMARK VINA RESULT:      -6.2      2.961      6.779
REMARK  Name = 57384863
REMARK  1 active torsions:
REMARK  status: ('A' for Active; 'I' for Inactive)
REMARK    1  A    between atoms: C_21  and  C_25
REMARK                            x       y       z     vdW  Elec       q    Type
REMARK                         _______ _______ _______ _____ _____    ______ ____
ROOT
ATOM      1  O   UNL     1     -31.821  32.228   3.547  0.00  0.00    -0.349 OA
ATOM      2  O   UNL     1     -37.913  28.750  -1.930  0.00  0.00    -0.350 OA
ATOM      3  N   UNL     1     -33.162  29.846   3.386  0.00  0.00    -0.234 N 
ATOM      4  N   UNL     1     -36.414  28.494   0.434  0.00  0.00    -0.276 N 
ATOM      5  N   UNL     1     -34.302  30.363   1.553  0.00  0.00    -0.381 NA
ATOM      6  N   UNL     1     -34.148  27.684   3.912  0.00  0.00    -0.322 NA
ATOM      7  N   UNL     1     -35.854  27.082   2.274  0.00  0.00    -0.322 NA
ATOM      8  C   UNL     1     -32.566  32.041   2.322  0.00  0.00    +0.152 C 
ATOM      9  C   UNL     1     -33.367  30.772   2.392  0.00  0.00    +0.190 C 
ATOM     10  C   UNL     1     -32.211  30.035   4.458  0.00  0.00    +0.132 C 
ATOM     11  C   UNL     1     -34.008  28.800   3.180  0.00  0.00    +0.235 C 
ATOM     12  C   UNL     1     -31.166  31.058   4.043  0.00  0.00    +0.164 C 
ATOM     13  C   UNL     1     -34.709  29.141   2.033  0.00  0.00    +0.222 C 
ATOM     14  C   UNL     1     -33.499  33.251   2.210  0.00  0.00    +0.038 C 
ATOM     15  C   UNL     1     -31.607  32.018   1.128  0.00  0.00    +0.038 C 
ATOM     16  C   UNL     1     -35.662  28.231   1.583  0.00  0.00    +0.230 C 
ATOM     17  C   UNL     1     -35.739  28.687  -0.854  0.00  0.00    +0.125 C 
ATOM     18  C   UNL     1     -37.772  27.939   0.352  0.00  0.00    +0.125 C 
ATOM     19  C   UNL     1     -36.663  29.428  -1.815  0.00  0.00    +0.164 C 
ATOM     20  C   UNL     1     -38.587  28.722  -0.672  0.00  0.00    +0.164 C 
ATOM     21  C   UNL     1     -35.097  26.883   3.380  0.00  0.00    +0.140 C 
ENDROOT
BRANCH  21  25
ATOM     22  N   UNL     1     -36.753  23.764   4.564  0.00  0.00    -0.202 NA
ATOM     23  N   UNL     1     -34.605  23.961   5.638  0.00  0.00    -0.180 NA
ATOM     24  N   UNL     1     -36.012  22.137   6.084  0.00  0.00    -0.303 N 
ATOM     25  C   UNL     1     -35.335  25.648   4.083  0.00  0.00    +0.109 C 
ATOM     26  C   UNL     1     -36.497  24.923   3.922  0.00  0.00    +0.177 C 
ATOM     27  C   UNL     1     -34.415  25.114   4.962  0.00  0.00    +0.120 C 
ATOM     28  C   UNL     1     -35.778  23.347   5.394  0.00  0.00    +0.084 C 
ATOM     29  H   UNL     1     -36.852  21.646   5.945  0.00  0.00    +0.154 HD
ATOM     30  H   UNL     1     -35.332  21.786   6.704  0.00  0.00    +0.154 HD
ENDBRANCH  21  25
TORSDOF 1
ENDMDL
