MODEL 1
REMARK VINA RESULT:      -5.8      0.000      0.000
REMARK  Name = 54347805
REMARK  13 active torsions:
REMARK  status: ('A' for Active; 'I' for Inactive)
REMARK    1  A    between atoms: S_1  and  S_2
REMARK    2  A    between atoms: S_1  and  C_22
REMARK    3  A    between atoms: S_2  and  C_3
REMARK    4  A    between atoms: C_3  and  C_4
REMARK    5  A    between atoms: C_4  and  C_7
REMARK    6  A    between atoms: C_4  and  N_18
REMARK    7  A    between atoms: N_6  and  C_9
REMARK    8  A    between atoms: C_12  and  N_17
REMARK    9  A    between atoms: C_22  and  C_23
REMARK   10  A    between atoms: C_23  and  C_26
REMARK   11  A    between atoms: C_23  and  N_37
REMARK   12  A    between atoms: N_25  and  C_28
REMARK   13  A    between atoms: C_31  and  N_36
REMARK                            x       y       z     vdW  Elec       q    Type
REMARK                         _______ _______ _______ _____ _____    ______ ____
ROOT
ATOM      1  S   UNL     1     -32.765  30.713   1.132  0.00  0.00    -0.084 S 
ENDROOT
BRANCH   1   2
ATOM      2  S   UNL     1     -32.016  31.297   2.954  0.00  0.00    -0.084 S 
BRANCH   2   3
ATOM      3  C   UNL     1     -31.425  29.727   3.632  0.00  0.00    +0.056 C 
BRANCH   3   4
ATOM      4  C   UNL     1     -31.829  29.562   5.101  0.00  0.00    +0.025 C 
BRANCH   4   7
ATOM      5  O   UNL     1     -31.598  27.501   6.330  0.00  0.00    -0.277 OA
ATOM      6  N   UNL     1     -33.253  27.656   4.673  0.00  0.00    -0.286 N 
ATOM      7  C   UNL     1     -32.205  28.123   5.461  0.00  0.00    +0.206 C 
ATOM      8  H   UNL     1     -33.609  28.286   4.006  0.00  0.00    +0.155 HD
BRANCH   6   9
ATOM      9  C   UNL     1     -33.866  26.381   4.719  0.00  0.00    +0.050 C 
ATOM     10  C   UNL     1     -34.624  26.012   5.829  0.00  0.00    +0.016 C 
ATOM     11  C   UNL     1     -33.711  25.494   3.654  0.00  0.00    +0.016 C 
ATOM     12  C   UNL     1     -35.074  23.868   4.809  0.00  0.00    +0.143 C 
ATOM     13  C   UNL     1     -35.229  24.756   5.875  0.00  0.00    +0.025 C 
ATOM     14  C   UNL     1     -34.315  24.238   3.698  0.00  0.00    +0.025 C 
BRANCH  12  17
ATOM     15  O   UNL     1     -35.879  21.966   3.782  0.00  0.00    -0.126 OA
ATOM     16  O   UNL     1     -36.029  22.118   5.967  0.00  0.00    -0.126 OA
ATOM     17  N   UNL     1     -35.690  22.590   4.855  0.00  0.00    +0.058 N 
ENDBRANCH  12  17
ENDBRANCH   6   9
ENDBRANCH   4   7
BRANCH   4  18
ATOM     18  N   UNL     1     -30.692  29.898   5.963  0.00  0.00    +0.388 N 
ATOM     19  H   UNL     1     -30.736  30.885   6.214  0.00  0.00    -0.089 HD
ATOM     20  H   UNL     1     -29.822  29.712   5.464  0.00  0.00    -0.089 HD
ATOM     21  H   UNL     1     -30.728  29.328   6.808  0.00  0.00    -0.089 HD
ENDBRANCH   4  18
ENDBRANCH   3   4
ENDBRANCH   2   3
ENDBRANCH   1   2
BRANCH   1  22
ATOM     22  C   UNL     1     -33.848  29.331   1.616  0.00  0.00    +0.056 C 
BRANCH  22  23
ATOM     23  C   UNL     1     -35.276  29.809   1.899  0.00  0.00    +0.025 C 
BRANCH  23  26
ATOM     24  O   UNL     1     -37.228  29.013   0.729  0.00  0.00    -0.277 OA
ATOM     25  N   UNL     1     -36.167  27.591   2.265  0.00  0.00    -0.286 N 
ATOM     26  C   UNL     1     -36.340  28.767   1.541  0.00  0.00    +0.206 C 
ATOM     27  H   UNL     1     -35.409  27.575   2.894  0.00  0.00    +0.155 HD
BRANCH  25  28
ATOM     28  C   UNL     1     -36.952  26.416   2.202  0.00  0.00    +0.050 C 
ATOM     29  C   UNL     1     -37.038  25.696   1.010  0.00  0.00    +0.016 C 
ATOM     30  C   UNL     1     -37.639  25.975   3.333  0.00  0.00    +0.016 C 
ATOM     31  C   UNL     1     -38.499  24.096   2.079  0.00  0.00    +0.143 C 
ATOM     32  C   UNL     1     -37.810  24.537   0.948  0.00  0.00    +0.025 C 
ATOM     33  C   UNL     1     -38.414  24.815   3.272  0.00  0.00    +0.025 C 
BRANCH  31  36
ATOM     34  O   UNL     1     -38.739  21.809   2.242  0.00  0.00    -0.126 OA
ATOM     35  O   UNL     1     -40.504  23.012   1.737  0.00  0.00    -0.126 OA
ATOM     36  N   UNL     1     -39.285  22.916   2.017  0.00  0.00    +0.058 N 
ENDBRANCH  31  36
ENDBRANCH  25  28
ENDBRANCH  23  26
BRANCH  23  37
ATOM     37  N   UNL     1     -35.436  30.051   3.335  0.00  0.00    +0.388 N 
ATOM     38  H   UNL     1     -34.991  30.935   3.582  0.00  0.00    -0.089 HD
ATOM     39  H   UNL     1     -34.999  29.293   3.859  0.00  0.00    -0.089 HD
ATOM     40  H   UNL     1     -36.429  30.095   3.565  0.00  0.00    -0.089 HD
ENDBRANCH  23  37
ENDBRANCH  22  23
ENDBRANCH   1  22
TORSDOF 13
ENDMDL
MODEL 2
REMARK VINA RESULT:      -5.8      0.396      4.768
REMARK  Name = 54347805
REMARK  13 active torsions:
REMARK  status: ('A' for Active; 'I' for Inactive)
REMARK    1  A    between atoms: S_1  and  S_2
REMARK    2  A    between atoms: S_1  and  C_22
REMARK    3  A    between atoms: S_2  and  C_3
REMARK    4  A    between atoms: C_3  and  C_4
REMARK    5  A    between atoms: C_4  and  C_7
REMARK    6  A    between atoms: C_4  and  N_18
REMARK    7  A    between atoms: N_6  and  C_9
REMARK    8  A    between atoms: C_12  and  N_17
REMARK    9  A    between atoms: C_22  and  C_23
REMARK   10  A    between atoms: C_23  and  C_26
REMARK   11  A    between atoms: C_23  and  N_37
REMARK   12  A    between atoms: N_25  and  C_28
REMARK   13  A    between atoms: C_31  and  N_36
REMARK                            x       y       z     vdW  Elec       q    Type
REMARK                         _______ _______ _______ _____ _____    ______ ____
ROOT
ATOM      1  S   UNL     1     -31.884  31.391   2.414  0.00  0.00    -0.084 S 
ENDROOT
BRANCH   1   2
ATOM      2  S   UNL     1     -33.187  31.179   0.840  0.00  0.00    -0.084 S 
BRANCH   2   3
ATOM      3  C   UNL     1     -34.081  29.675   1.300  0.00  0.00    +0.056 C 
BRANCH   3   4
ATOM      4  C   UNL     1     -35.510  29.988   1.756  0.00  0.00    +0.025 C 
BRANCH   4   7
ATOM      5  O   UNL     1     -37.442  29.008   0.698  0.00  0.00    -0.277 OA
ATOM      6  N   UNL     1     -36.181  27.705   2.187  0.00  0.00    -0.286 N 
ATOM      7  C   UNL     1     -36.495  28.853   1.464  0.00  0.00    +0.206 C 
ATOM      8  H   UNL     1     -35.393  27.764   2.775  0.00  0.00    +0.155 HD
BRANCH   6   9
ATOM      9  C   UNL     1     -36.861  26.465   2.175  0.00  0.00    +0.050 C 
ATOM     10  C   UNL     1     -36.819  25.657   1.039  0.00  0.00    +0.016 C 
ATOM     11  C   UNL     1     -37.575  26.049   3.299  0.00  0.00    +0.016 C 
ATOM     12  C   UNL     1     -38.203  24.019   2.151  0.00  0.00    +0.143 C 
ATOM     13  C   UNL     1     -37.489  24.434   1.026  0.00  0.00    +0.025 C 
ATOM     14  C   UNL     1     -38.245  24.826   3.287  0.00  0.00    +0.025 C 
BRANCH  12  17
ATOM     15  O   UNL     1     -40.139  22.767   2.100  0.00  0.00    -0.126 OA
ATOM     16  O   UNL     1     -38.214  21.713   2.168  0.00  0.00    -0.126 OA
ATOM     17  N   UNL     1     -38.884  22.773   2.139  0.00  0.00    +0.058 N 
ENDBRANCH  12  17
ENDBRANCH   6   9
ENDBRANCH   4   7
BRANCH   4  18
ATOM     18  N   UNL     1     -35.532  30.161   3.212  0.00  0.00    +0.388 N 
ATOM     19  H   UNL     1     -36.495  30.281   3.525  0.00  0.00    -0.089 HD
ATOM     20  H   UNL     1     -34.987  30.985   3.464  0.00  0.00    -0.089 HD
ATOM     21  H   UNL     1     -35.128  29.337   3.657  0.00  0.00    -0.089 HD
ENDBRANCH   4  18
ENDBRANCH   3   4
ENDBRANCH   2   3
ENDBRANCH   1   2
BRANCH   1  22
ATOM     22  C   UNL     1     -31.802  29.685   3.045  0.00  0.00    +0.056 C 
BRANCH  22  23
ATOM     23  C   UNL     1     -32.089  29.627   4.548  0.00  0.00    +0.025 C 
BRANCH  23  26
ATOM     24  O   UNL     1     -31.671  27.691   5.924  0.00  0.00    -0.277 OA
ATOM     25  N   UNL     1     -33.437  27.627   4.380  0.00  0.00    -0.286 N 
ATOM     26  C   UNL     1     -32.366  28.208   5.053  0.00  0.00    +0.206 C 
ATOM     27  H   UNL     1     -33.869  28.181   3.690  0.00  0.00    +0.155 HD
BRANCH  25  28
ATOM     28  C   UNL     1     -33.979  26.335   4.574  0.00  0.00    +0.050 C 
ATOM     29  C   UNL     1     -34.701  26.047   5.733  0.00  0.00    +0.016 C 
ATOM     30  C   UNL     1     -33.795  25.348   3.606  0.00  0.00    +0.016 C 
ATOM     31  C   UNL     1     -35.051  23.786   4.955  0.00  0.00    +0.143 C 
ATOM     32  C   UNL     1     -35.236  24.773   5.924  0.00  0.00    +0.025 C 
ATOM     33  C   UNL     1     -34.330  24.074   3.796  0.00  0.00    +0.025 C 
BRANCH  31  36
ATOM     34  O   UNL     1     -36.026  22.175   6.285  0.00  0.00    -0.126 OA
ATOM     35  O   UNL     1     -35.632  21.695   4.180  0.00  0.00    -0.126 OA
ATOM     36  N   UNL     1     -35.596  22.490   5.149  0.00  0.00    +0.058 N 
ENDBRANCH  31  36
ENDBRANCH  25  28
ENDBRANCH  23  26
BRANCH  23  37
ATOM     37  N   UNL     1     -30.908  30.080   5.290  0.00  0.00    +0.388 N 
ATOM     38  H   UNL     1     -31.148  30.907   5.837  0.00  0.00    -0.089 HD
ATOM     39  H   UNL     1     -30.163  30.312   4.634  0.00  0.00    -0.089 HD
ATOM     40  H   UNL     1     -30.594  29.339   5.916  0.00  0.00    -0.089 HD
ENDBRANCH  23  37
ENDBRANCH  22  23
ENDBRANCH   1  22
TORSDOF 13
ENDMDL
MODEL 3
REMARK VINA RESULT:      -5.5      4.988      8.193
REMARK  Name = 54347805
REMARK  13 active torsions:
REMARK  status: ('A' for Active; 'I' for Inactive)
REMARK    1  A    between atoms: S_1  and  S_2
REMARK    2  A    between atoms: S_1  and  C_22
REMARK    3  A    between atoms: S_2  and  C_3
REMARK    4  A    between atoms: C_3  and  C_4
REMARK    5  A    between atoms: C_4  and  C_7
REMARK    6  A    between atoms: C_4  and  N_18
REMARK    7  A    between atoms: N_6  and  C_9
REMARK    8  A    between atoms: C_12  and  N_17
REMARK    9  A    between atoms: C_22  and  C_23
REMARK   10  A    between atoms: C_23  and  C_26
REMARK   11  A    between atoms: C_23  and  N_37
REMARK   12  A    between atoms: N_25  and  C_28
REMARK   13  A    between atoms: C_31  and  N_36
REMARK                            x       y       z     vdW  Elec       q    Type
REMARK                         _______ _______ _______ _____ _____    ______ ____
ROOT
ATOM      1  S   UNL     1     -37.087  22.838   0.364  0.00  0.00    -0.084 S 
ENDROOT
BRANCH   1   2
ATOM      2  S   UNL     1     -39.025  23.509   0.242  0.00  0.00    -0.084 S 
BRANCH   2   3
ATOM      3  C   UNL     1     -39.051  24.799   1.510  0.00  0.00    +0.056 C 
BRANCH   3   4
ATOM      4  C   UNL     1     -38.991  24.202   2.920  0.00  0.00    +0.025 C 
BRANCH   4   7
ATOM      5  O   UNL     1     -37.053  23.326   4.056  0.00  0.00    -0.277 OA
ATOM      6  N   UNL     1     -37.115  25.608   3.510  0.00  0.00    -0.286 N 
ATOM      7  C   UNL     1     -37.603  24.305   3.556  0.00  0.00    +0.206 C 
ATOM      8  H   UNL     1     -37.702  26.277   3.089  0.00  0.00    +0.155 HD
BRANCH   6   9
ATOM      9  C   UNL     1     -35.874  26.082   3.997  0.00  0.00    +0.050 C 
ATOM     10  C   UNL     1     -35.454  25.743   5.283  0.00  0.00    +0.016 C 
ATOM     11  C   UNL     1     -35.071  26.889   3.192  0.00  0.00    +0.016 C 
ATOM     12  C   UNL     1     -33.427  27.017   4.957  0.00  0.00    +0.143 C 
ATOM     13  C   UNL     1     -34.231  26.210   5.764  0.00  0.00    +0.025 C 
ATOM     14  C   UNL     1     -33.847  27.356   3.672  0.00  0.00    +0.025 C 
BRANCH  12  17
ATOM     15  O   UNL     1     -31.327  27.911   4.629  0.00  0.00    -0.126 OA
ATOM     16  O   UNL     1     -31.970  27.480   6.683  0.00  0.00    -0.126 OA
ATOM     17  N   UNL     1     -32.182  27.492   5.446  0.00  0.00    +0.058 N 
ENDBRANCH  12  17
ENDBRANCH   6   9
ENDBRANCH   4   7
BRANCH   4  18
ATOM     18  N   UNL     1     -39.885  24.950   3.808  0.00  0.00    +0.388 N 
ATOM     19  H   UNL     1     -40.848  24.847   3.487  0.00  0.00    -0.089 HD
ATOM     20  H   UNL     1     -39.627  25.937   3.796  0.00  0.00    -0.089 HD
ATOM     21  H   UNL     1     -39.801  24.588   4.758  0.00  0.00    -0.089 HD
ENDBRANCH   4  18
ENDBRANCH   3   4
ENDBRANCH   2   3
ENDBRANCH   1   2
BRANCH   1  22
ATOM     22  C   UNL     1     -37.299  21.063   0.019  0.00  0.00    +0.056 C 
BRANCH  22  23
ATOM     23  C   UNL     1     -37.110  20.218   1.282  0.00  0.00    +0.025 C 
BRANCH  23  26
ATOM     24  O   UNL     1     -35.230  20.295   2.791  0.00  0.00    -0.277 OA
ATOM     25  N   UNL     1     -34.886  19.573   0.585  0.00  0.00    -0.286 N 
ATOM     26  C   UNL     1     -35.639  20.029   1.663  0.00  0.00    +0.206 C 
ATOM     27  H   UNL     1     -35.376  19.433  -0.259  0.00  0.00    +0.155 HD
BRANCH  25  28
ATOM     28  C   UNL     1     -33.501  19.287   0.559  0.00  0.00    +0.050 C 
ATOM     29  C   UNL     1     -33.017  18.126   1.162  0.00  0.00    +0.016 C 
ATOM     30  C   UNL     1     -32.619  20.164  -0.072  0.00  0.00    +0.016 C 
ATOM     31  C   UNL     1     -30.769  18.720   0.505  0.00  0.00    +0.143 C 
ATOM     32  C   UNL     1     -31.652  17.843   1.135  0.00  0.00    +0.025 C 
ATOM     33  C   UNL     1     -31.253  19.882  -0.099  0.00  0.00    +0.025 C 
BRANCH  31  36
ATOM     34  O   UNL     1     -28.591  19.286   0.004  0.00  0.00    -0.126 OA
ATOM     35  O   UNL     1     -28.978  17.332   0.925  0.00  0.00    -0.126 OA
ATOM     36  N   UNL     1     -29.379  18.432   0.477  0.00  0.00    +0.058 N 
ENDBRANCH  31  36
ENDBRANCH  25  28
ENDBRANCH  23  26
BRANCH  23  37
ATOM     37  N   UNL     1     -37.724  20.901   2.425  0.00  0.00    +0.388 N 
ATOM     38  H   UNL     1     -36.992  21.259   3.040  0.00  0.00    -0.089 HD
ATOM     39  H   UNL     1     -38.308  20.243   2.940  0.00  0.00    -0.089 HD
ATOM     40  H   UNL     1     -38.296  21.676   2.091  0.00  0.00    -0.089 HD
ENDBRANCH  23  37
ENDBRANCH  22  23
ENDBRANCH   1  22
TORSDOF 13
ENDMDL
MODEL 4
REMARK VINA RESULT:      -5.5      4.591      7.709
REMARK  Name = 54347805
REMARK  13 active torsions:
REMARK  status: ('A' for Active; 'I' for Inactive)
REMARK    1  A    between atoms: S_1  and  S_2
REMARK    2  A    between atoms: S_1  and  C_22
REMARK    3  A    between atoms: S_2  and  C_3
REMARK    4  A    between atoms: C_3  and  C_4
REMARK    5  A    between atoms: C_4  and  C_7
REMARK    6  A    between atoms: C_4  and  N_18
REMARK    7  A    between atoms: N_6  and  C_9
REMARK    8  A    between atoms: C_12  and  N_17
REMARK    9  A    between atoms: C_22  and  C_23
REMARK   10  A    between atoms: C_23  and  C_26
REMARK   11  A    between atoms: C_23  and  N_37
REMARK   12  A    between atoms: N_25  and  C_28
REMARK   13  A    between atoms: C_31  and  N_36
REMARK                            x       y       z     vdW  Elec       q    Type
REMARK                         _______ _______ _______ _____ _____    ______ ____
ROOT
ATOM      1  S   UNL     1     -35.594  24.102   1.492  0.00  0.00    -0.084 S 
ENDROOT
BRANCH   1   2
ATOM      2  S   UNL     1     -36.868  25.703   1.683  0.00  0.00    -0.084 S 
BRANCH   2   3
ATOM      3  C   UNL     1     -35.963  26.760   2.839  0.00  0.00    +0.056 C 
BRANCH   3   4
ATOM      4  C   UNL     1     -35.546  25.989   4.096  0.00  0.00    +0.025 C 
BRANCH   4   7
ATOM      5  O   UNL     1     -33.335  25.142   4.550  0.00  0.00    -0.277 OA
ATOM      6  N   UNL     1     -33.685  27.462   4.557  0.00  0.00    -0.286 N 
ATOM      7  C   UNL     1     -34.055  26.127   4.417  0.00  0.00    +0.206 C 
ATOM      8  H   UNL     1     -34.401  28.127   4.437  0.00  0.00    +0.155 HD
BRANCH   6   9
ATOM      9  C   UNL     1     -32.399  27.974   4.852  0.00  0.00    +0.050 C 
ATOM     10  C   UNL     1     -31.463  28.139   3.832  0.00  0.00    +0.016 C 
ATOM     11  C   UNL     1     -32.068  28.314   6.164  0.00  0.00    +0.016 C 
ATOM     12  C   UNL     1     -29.865  28.984   5.434  0.00  0.00    +0.143 C 
ATOM     13  C   UNL     1     -30.196  28.644   4.122  0.00  0.00    +0.025 C 
ATOM     14  C   UNL     1     -30.801  28.819   6.455  0.00  0.00    +0.025 C 
BRANCH  12  17
ATOM     15  O   UNL     1     -27.749  29.643   4.795  0.00  0.00    -0.126 OA
ATOM     16  O   UNL     1     -28.296  29.796   6.916  0.00  0.00    -0.126 OA
ATOM     17  N   UNL     1     -28.575  29.499   5.729  0.00  0.00    +0.058 N 
ENDBRANCH  12  17
ENDBRANCH   6   9
ENDBRANCH   4   7
BRANCH   4  18
ATOM     18  N   UNL     1     -36.249  26.533   5.261  0.00  0.00    +0.388 N 
ATOM     19  H   UNL     1     -35.627  27.160   5.771  0.00  0.00    -0.089 HD
ATOM     20  H   UNL     1     -36.538  25.768   5.871  0.00  0.00    -0.089 HD
ATOM     21  H   UNL     1     -37.073  27.048   4.950  0.00  0.00    -0.089 HD
ENDBRANCH   4  18
ENDBRANCH   3   4
ENDBRANCH   2   3
ENDBRANCH   1   2
BRANCH   1  22
ATOM     22  C   UNL     1     -36.757  22.764   1.080  0.00  0.00    +0.056 C 
BRANCH  22  23
ATOM     23  C   UNL     1     -36.848  21.731   2.207  0.00  0.00    +0.025 C 
BRANCH  23  26
ATOM     24  O   UNL     1     -35.179  20.576   3.509  0.00  0.00    -0.277 OA
ATOM     25  N   UNL     1     -34.904  20.722   1.183  0.00  0.00    -0.286 N 
ATOM     26  C   UNL     1     -35.555  20.932   2.395  0.00  0.00    +0.206 C 
ATOM     27  H   UNL     1     -35.340  21.099   0.384  0.00  0.00    +0.155 HD
BRANCH  25  28
ATOM     28  C   UNL     1     -33.690  20.030   0.964  0.00  0.00    +0.050 C 
ATOM     29  C   UNL     1     -32.668  20.627   0.225  0.00  0.00    +0.016 C 
ATOM     30  C   UNL     1     -33.512  18.750   1.490  0.00  0.00    +0.016 C 
ATOM     31  C   UNL     1     -31.294  18.665   0.536  0.00  0.00    +0.143 C 
ATOM     32  C   UNL     1     -31.471  19.945   0.011  0.00  0.00    +0.025 C 
ATOM     33  C   UNL     1     -32.315  18.066   1.275  0.00  0.00    +0.025 C 
BRANCH  31  36
ATOM     34  O   UNL     1     -29.752  17.048   1.105  0.00  0.00    -0.126 OA
ATOM     35  O   UNL     1     -29.353  18.298  -0.654  0.00  0.00    -0.126 OA
ATOM     36  N   UNL     1     -30.075  17.970   0.318  0.00  0.00    +0.058 N 
ENDBRANCH  31  36
ENDBRANCH  25  28
ENDBRANCH  23  26
BRANCH  23  37
ATOM     37  N   UNL     1     -37.071  22.416   3.484  0.00  0.00    +0.388 N 
ATOM     38  H   UNL     1     -37.339  23.385   3.307  0.00  0.00    -0.089 HD
ATOM     39  H   UNL     1     -36.214  22.396   4.035  0.00  0.00    -0.089 HD
ATOM     40  H   UNL     1     -37.817  21.946   3.997  0.00  0.00    -0.089 HD
ENDBRANCH  23  37
ENDBRANCH  22  23
ENDBRANCH   1  22
TORSDOF 13
ENDMDL
MODEL 5
REMARK VINA RESULT:      -5.5      4.851      8.058
REMARK  Name = 54347805
REMARK  13 active torsions:
REMARK  status: ('A' for Active; 'I' for Inactive)
REMARK    1  A    between atoms: S_1  and  S_2
REMARK    2  A    between atoms: S_1  and  C_22
REMARK    3  A    between atoms: S_2  and  C_3
REMARK    4  A    between atoms: C_3  and  C_4
REMARK    5  A    between atoms: C_4  and  C_7
REMARK    6  A    between atoms: C_4  and  N_18
REMARK    7  A    between atoms: N_6  and  C_9
REMARK    8  A    between atoms: C_12  and  N_17
REMARK    9  A    between atoms: C_22  and  C_23
REMARK   10  A    between atoms: C_23  and  C_26
REMARK   11  A    between atoms: C_23  and  N_37
REMARK   12  A    between atoms: N_25  and  C_28
REMARK   13  A    between atoms: C_31  and  N_36
REMARK                            x       y       z     vdW  Elec       q    Type
REMARK                         _______ _______ _______ _____ _____    ______ ____
ROOT
ATOM      1  S   UNL     1     -38.434  24.676  -0.029  0.00  0.00    -0.084 S 
ENDROOT
BRANCH   1   2
ATOM      2  S   UNL     1     -38.846  22.697   0.339  0.00  0.00    -0.084 S 
BRANCH   2   3
ATOM      3  C   UNL     1     -37.186  21.985   0.430  0.00  0.00    +0.056 C 
BRANCH   3   4
ATOM      4  C   UNL     1     -37.154  20.749   1.336  0.00  0.00    +0.025 C 
BRANCH   4   7
ATOM      5  O   UNL     1     -35.380  20.324   2.913  0.00  0.00    -0.277 OA
ATOM      6  N   UNL     1     -34.958  20.032   0.623  0.00  0.00    -0.286 N 
ATOM      7  C   UNL     1     -35.735  20.337   1.737  0.00  0.00    +0.206 C 
ATOM      8  H   UNL     1     -35.400  20.116  -0.252  0.00  0.00    +0.155 HD
BRANCH   6   9
ATOM      9  C   UNL     1     -33.606  19.615   0.603  0.00  0.00    +0.050 C 
ATOM     10  C   UNL     1     -33.246  18.387   1.157  0.00  0.00    +0.016 C 
ATOM     11  C   UNL     1     -32.632  20.432   0.028  0.00  0.00    +0.016 C 
ATOM     12  C   UNL     1     -30.940  18.793   0.562  0.00  0.00    +0.143 C 
ATOM     13  C   UNL     1     -31.914  17.975   1.137  0.00  0.00    +0.025 C 
ATOM     14  C   UNL     1     -31.300  20.021   0.007  0.00  0.00    +0.025 C 
BRANCH  12  17
ATOM     15  O   UNL     1     -29.273  17.291   1.096  0.00  0.00    -0.126 OA
ATOM     16  O   UNL     1     -28.733  19.095  -0.033  0.00  0.00    -0.126 OA
ATOM     17  N   UNL     1     -29.584  18.373   0.541  0.00  0.00    +0.058 N 
ENDBRANCH  12  17
ENDBRANCH   6   9
ENDBRANCH   4   7
BRANCH   4  18
ATOM     18  N   UNL     1     -37.846  21.045   2.593  0.00  0.00    +0.388 N 
ATOM     19  H   UNL     1     -38.828  21.244   2.402  0.00  0.00    -0.089 HD
ATOM     20  H   UNL     1     -37.414  21.856   3.036  0.00  0.00    -0.089 HD
ATOM     21  H   UNL     1     -37.776  20.240   3.217  0.00  0.00    -0.089 HD
ENDBRANCH   4  18
ENDBRANCH   3   4
ENDBRANCH   2   3
ENDBRANCH   1   2
BRANCH   1  22
ATOM     22  C   UNL     1     -38.895  25.440   1.559  0.00  0.00    +0.056 C 
BRANCH  22  23
ATOM     23  C   UNL     1     -38.743  24.455   2.722  0.00  0.00    +0.025 C 
BRANCH  23  26
ATOM     24  O   UNL     1     -36.855  23.582   3.943  0.00  0.00    -0.277 OA
ATOM     25  N   UNL     1     -36.908  25.869   3.417  0.00  0.00    -0.286 N 
ATOM     26  C   UNL     1     -37.387  24.562   3.426  0.00  0.00    +0.206 C 
ATOM     27  H   UNL     1     -37.480  26.538   2.973  0.00  0.00    +0.155 HD
BRANCH  25  28
ATOM     28  C   UNL     1     -35.697  26.348   3.968  0.00  0.00    +0.050 C 
ATOM     29  C   UNL     1     -35.270  25.894   5.216  0.00  0.00    +0.016 C 
ATOM     30  C   UNL     1     -34.927  27.273   3.262  0.00  0.00    +0.016 C 
ATOM     31  C   UNL     1     -33.306  27.291   5.054  0.00  0.00    +0.143 C 
ATOM     32  C   UNL     1     -34.075  26.365   5.759  0.00  0.00    +0.025 C 
ATOM     33  C   UNL     1     -33.731  27.745   3.805  0.00  0.00    +0.025 C 
BRANCH  31  36
ATOM     34  O   UNL     1     -32.107  28.311   6.738  0.00  0.00    -0.126 OA
ATOM     35  O   UNL     1     -31.030  27.642   4.947  0.00  0.00    -0.126 OA
ATOM     36  N   UNL     1     -32.089  27.771   5.606  0.00  0.00    +0.058 N 
ENDBRANCH  31  36
ENDBRANCH  25  28
ENDBRANCH  23  26
BRANCH  23  37
ATOM     37  N   UNL     1     -39.741  24.755   3.752  0.00  0.00    +0.388 N 
ATOM     38  H   UNL     1     -39.349  24.558   4.673  0.00  0.00    -0.089 HD
ATOM     39  H   UNL     1     -40.567  24.176   3.603  0.00  0.00    -0.089 HD
ATOM     40  H   UNL     1     -40.001  25.740   3.698  0.00  0.00    -0.089 HD
ENDBRANCH  23  37
ENDBRANCH  22  23
ENDBRANCH   1  22
TORSDOF 13
ENDMDL
MODEL 6
REMARK VINA RESULT:      -5.4      4.775      8.572
REMARK  Name = 54347805
REMARK  13 active torsions:
REMARK  status: ('A' for Active; 'I' for Inactive)
REMARK    1  A    between atoms: S_1  and  S_2
REMARK    2  A    between atoms: S_1  and  C_22
REMARK    3  A    between atoms: S_2  and  C_3
REMARK    4  A    between atoms: C_3  and  C_4
REMARK    5  A    between atoms: C_4  and  C_7
REMARK    6  A    between atoms: C_4  and  N_18
REMARK    7  A    between atoms: N_6  and  C_9
REMARK    8  A    between atoms: C_12  and  N_17
REMARK    9  A    between atoms: C_22  and  C_23
REMARK   10  A    between atoms: C_23  and  C_26
REMARK   11  A    between atoms: C_23  and  N_37
REMARK   12  A    between atoms: N_25  and  C_28
REMARK   13  A    between atoms: C_31  and  N_36
REMARK                            x       y       z     vdW  Elec       q    Type
REMARK                         _______ _______ _______ _____ _____    ______ ____
ROOT
ATOM      1  S   UNL     1     -37.989  25.678   2.864  0.00  0.00    -0.084 S 
ENDROOT
BRANCH   1   2
ATOM      2  S   UNL     1     -38.614  23.734   2.639  0.00  0.00    -0.084 S 
BRANCH   2   3
ATOM      3  C   UNL     1     -37.105  22.814   3.026  0.00  0.00    +0.056 C 
BRANCH   3   4
ATOM      4  C   UNL     1     -36.890  21.652   2.050  0.00  0.00    +0.025 C 
BRANCH   4   7
ATOM      5  O   UNL     1     -35.186  20.629   3.414  0.00  0.00    -0.277 OA
ATOM      6  N   UNL     1     -34.910  20.657   1.084  0.00  0.00    -0.286 N 
ATOM      7  C   UNL     1     -35.571  20.910   2.283  0.00  0.00    +0.206 C 
ATOM      8  H   UNL     1     -35.355  20.974   0.266  0.00  0.00    +0.155 HD
BRANCH   6   9
ATOM      9  C   UNL     1     -33.671  19.995   0.906  0.00  0.00    +0.050 C 
ATOM     10  C   UNL     1     -33.478  18.720   1.437  0.00  0.00    +0.016 C 
ATOM     11  C   UNL     1     -32.643  20.618   0.198  0.00  0.00    +0.016 C 
ATOM     12  C   UNL     1     -31.230  18.691   0.553  0.00  0.00    +0.143 C 
ATOM     13  C   UNL     1     -32.259  18.068   1.261  0.00  0.00    +0.025 C 
ATOM     14  C   UNL     1     -31.423  19.966   0.021  0.00  0.00    +0.025 C 
BRANCH  12  17
ATOM     15  O   UNL     1     -29.234  18.390  -0.562  0.00  0.00    -0.126 OA
ATOM     16  O   UNL     1     -29.680  17.094   1.153  0.00  0.00    -0.126 OA
ATOM     17  N   UNL     1     -29.988  18.027   0.372  0.00  0.00    +0.058 N 
ENDBRANCH  12  17
ENDBRANCH   6   9
ENDBRANCH   4   7
BRANCH   4  18
ATOM     18  N   UNL     1     -37.942  20.650   2.241  0.00  0.00    +0.388 N 
ATOM     19  H   UNL     1     -37.804  19.883   1.583  0.00  0.00    -0.089 HD
ATOM     20  H   UNL     1     -38.852  21.079   2.077  0.00  0.00    -0.089 HD
ATOM     21  H   UNL     1     -37.901  20.293   3.195  0.00  0.00    -0.089 HD
ENDBRANCH   4  18
ENDBRANCH   3   4
ENDBRANCH   2   3
ENDBRANCH   1   2
BRANCH   1  22
ATOM     22  C   UNL     1     -36.180  25.474   2.890  0.00  0.00    +0.056 C 
BRANCH  22  23
ATOM     23  C   UNL     1     -35.589  25.864   4.248  0.00  0.00    +0.025 C 
BRANCH  23  26
ATOM     24  O   UNL     1     -34.862  28.008   3.418  0.00  0.00    -0.277 OA
ATOM     25  N   UNL     1     -33.535  26.893   5.000  0.00  0.00    -0.286 N 
ATOM     26  C   UNL     1     -34.638  27.061   4.168  0.00  0.00    +0.206 C 
ATOM     27  H   UNL     1     -33.505  26.057   5.519  0.00  0.00    +0.155 HD
BRANCH  25  28
ATOM     28  C   UNL     1     -32.453  27.785   5.189  0.00  0.00    +0.050 C 
ATOM     29  C   UNL     1     -31.687  28.196   4.097  0.00  0.00    +0.016 C 
ATOM     30  C   UNL     1     -32.152  28.256   6.467  0.00  0.00    +0.016 C 
ATOM     31  C   UNL     1     -30.320  29.546   5.561  0.00  0.00    +0.143 C 
ATOM     32  C   UNL     1     -30.622  29.076   4.283  0.00  0.00    +0.025 C 
ATOM     33  C   UNL     1     -31.085  29.136   6.654  0.00  0.00    +0.025 C 
BRANCH  31  36
ATOM     34  O   UNL     1     -28.422  30.223   6.681  0.00  0.00    -0.126 OA
ATOM     35  O   UNL     1     -29.121  31.429   4.985  0.00  0.00    -0.126 OA
ATOM     36  N   UNL     1     -29.236  30.442   5.751  0.00  0.00    +0.058 N 
ENDBRANCH  31  36
ENDBRANCH  25  28
ENDBRANCH  23  26
BRANCH  23  37
ATOM     37  N   UNL     1     -36.666  26.282   5.149  0.00  0.00    +0.388 N 
ATOM     38  H   UNL     1     -36.299  26.377   6.096  0.00  0.00    -0.089 HD
ATOM     39  H   UNL     1     -37.407  25.581   5.141  0.00  0.00    -0.089 HD
ATOM     40  H   UNL     1     -37.041  27.178   4.840  0.00  0.00    -0.089 HD
ENDBRANCH  23  37
ENDBRANCH  22  23
ENDBRANCH   1  22
TORSDOF 13
ENDMDL
MODEL 7
REMARK VINA RESULT:      -5.4      4.788      7.996
REMARK  Name = 54347805
REMARK  13 active torsions:
REMARK  status: ('A' for Active; 'I' for Inactive)
REMARK    1  A    between atoms: S_1  and  S_2
REMARK    2  A    between atoms: S_1  and  C_22
REMARK    3  A    between atoms: S_2  and  C_3
REMARK    4  A    between atoms: C_3  and  C_4
REMARK    5  A    between atoms: C_4  and  C_7
REMARK    6  A    between atoms: C_4  and  N_18
REMARK    7  A    between atoms: N_6  and  C_9
REMARK    8  A    between atoms: C_12  and  N_17
REMARK    9  A    between atoms: C_22  and  C_23
REMARK   10  A    between atoms: C_23  and  C_26
REMARK   11  A    between atoms: C_23  and  N_37
REMARK   12  A    between atoms: N_25  and  C_28
REMARK   13  A    between atoms: C_31  and  N_36
REMARK                            x       y       z     vdW  Elec       q    Type
REMARK                         _______ _______ _______ _____ _____    ______ ____
ROOT
ATOM      1  S   UNL     1     -36.163  23.415   1.243  0.00  0.00    -0.084 S 
ENDROOT
BRANCH   1   2
ATOM      2  S   UNL     1     -37.723  24.614   1.836  0.00  0.00    -0.084 S 
BRANCH   2   3
ATOM      3  C   UNL     1     -37.698  24.391   3.631  0.00  0.00    +0.056 C 
BRANCH   3   4
ATOM      4  C   UNL     1     -36.278  24.131   4.145  0.00  0.00    +0.025 C 
BRANCH   4   7
ATOM      5  O   UNL     1     -36.320  25.936   5.743  0.00  0.00    -0.277 OA
ATOM      6  N   UNL     1     -34.395  25.618   4.440  0.00  0.00    -0.286 N 
ATOM      7  C   UNL     1     -35.681  25.329   4.888  0.00  0.00    +0.206 C 
ATOM      8  H   UNL     1     -34.042  25.037   3.727  0.00  0.00    +0.155 HD
BRANCH   6   9
ATOM      9  C   UNL     1     -33.536  26.648   4.890  0.00  0.00    +0.050 C 
ATOM     10  C   UNL     1     -33.221  26.752   6.244  0.00  0.00    +0.016 C 
ATOM     11  C   UNL     1     -33.003  27.560   3.978  0.00  0.00    +0.016 C 
ATOM     12  C   UNL     1     -31.841  28.679   5.776  0.00  0.00    +0.143 C 
ATOM     13  C   UNL     1     -32.374  27.767   6.689  0.00  0.00    +0.025 C 
ATOM     14  C   UNL     1     -32.155  28.575   4.422  0.00  0.00    +0.025 C 
BRANCH  12  17
ATOM     15  O   UNL     1     -31.200  30.893   5.865  0.00  0.00    -0.126 OA
ATOM     16  O   UNL     1     -30.016  29.416   6.979  0.00  0.00    -0.126 OA
ATOM     17  N   UNL     1     -30.978  29.712   6.228  0.00  0.00    +0.058 N 
ENDBRANCH  12  17
ENDBRANCH   6   9
ENDBRANCH   4   7
BRANCH   4  18
ATOM     18  N   UNL     1     -36.303  23.038   5.121  0.00  0.00    +0.388 N 
ATOM     19  H   UNL     1     -36.365  23.424   6.062  0.00  0.00    -0.089 HD
ATOM     20  H   UNL     1     -35.449  22.487   5.035  0.00  0.00    -0.089 HD
ATOM     21  H   UNL     1     -37.111  22.441   4.942  0.00  0.00    -0.089 HD
ENDBRANCH   4  18
ENDBRANCH   3   4
ENDBRANCH   2   3
ENDBRANCH   1   2
BRANCH   1  22
ATOM     22  C   UNL     1     -37.038  22.132   0.292  0.00  0.00    +0.056 C 
BRANCH  22  23
ATOM     23  C   UNL     1     -37.115  20.813   1.066  0.00  0.00    +0.025 C 
BRANCH  23  26
ATOM     24  O   UNL     1     -35.484  20.267   2.756  0.00  0.00    -0.277 OA
ATOM     25  N   UNL     1     -34.907  20.011   0.496  0.00  0.00    -0.286 N 
ATOM     26  C   UNL     1     -35.750  20.324   1.558  0.00  0.00    +0.206 C 
ATOM     27  H   UNL     1     -35.279  20.137  -0.408  0.00  0.00    +0.155 HD
BRANCH  25  28
ATOM     28  C   UNL     1     -33.577  19.532   0.562  0.00  0.00    +0.050 C 
ATOM     29  C   UNL     1     -33.292  18.359   1.262  0.00  0.00    +0.016 C 
ATOM     30  C   UNL     1     -32.551  20.229  -0.076  0.00  0.00    +0.016 C 
ATOM     31  C   UNL     1     -30.955  18.585   0.689  0.00  0.00    +0.143 C 
ATOM     32  C   UNL     1     -31.982  17.886   1.326  0.00  0.00    +0.025 C 
ATOM     33  C   UNL     1     -31.240  19.757  -0.012  0.00  0.00    +0.025 C 
BRANCH  31  36
ATOM     34  O   UNL     1     -29.416  16.935   1.165  0.00  0.00    -0.126 OA
ATOM     35  O   UNL     1     -28.685  18.857   0.399  0.00  0.00    -0.126 OA
ATOM     36  N   UNL     1     -29.621  18.103   0.754  0.00  0.00    +0.058 N 
ENDBRANCH  31  36
ENDBRANCH  25  28
ENDBRANCH  23  26
BRANCH  23  37
ATOM     37  N   UNL     1     -37.920  21.002   2.277  0.00  0.00    +0.388 N 
ATOM     38  H   UNL     1     -38.532  20.196   2.406  0.00  0.00    -0.089 HD
ATOM     39  H   UNL     1     -38.485  21.845   2.181  0.00  0.00    -0.089 HD
ATOM     40  H   UNL     1     -37.305  21.094   3.085  0.00  0.00    -0.089 HD
ENDBRANCH  23  37
ENDBRANCH  22  23
ENDBRANCH   1  22
TORSDOF 13
ENDMDL
MODEL 8
REMARK VINA RESULT:      -5.3      4.812      8.726
REMARK  Name = 54347805
REMARK  13 active torsions:
REMARK  status: ('A' for Active; 'I' for Inactive)
REMARK    1  A    between atoms: S_1  and  S_2
REMARK    2  A    between atoms: S_1  and  C_22
REMARK    3  A    between atoms: S_2  and  C_3
REMARK    4  A    between atoms: C_3  and  C_4
REMARK    5  A    between atoms: C_4  and  C_7
REMARK    6  A    between atoms: C_4  and  N_18
REMARK    7  A    between atoms: N_6  and  C_9
REMARK    8  A    between atoms: C_12  and  N_17
REMARK    9  A    between atoms: C_22  and  C_23
REMARK   10  A    between atoms: C_23  and  C_26
REMARK   11  A    between atoms: C_23  and  N_37
REMARK   12  A    between atoms: N_25  and  C_28
REMARK   13  A    between atoms: C_31  and  N_36
REMARK                            x       y       z     vdW  Elec       q    Type
REMARK                         _______ _______ _______ _____ _____    ______ ____
ROOT
ATOM      1  S   UNL     1     -36.230  25.747   1.641  0.00  0.00    -0.084 S 
ENDROOT
BRANCH   1   2
ATOM      2  S   UNL     1     -36.774  25.006   3.479  0.00  0.00    -0.084 S 
BRANCH   2   3
ATOM      3  C   UNL     1     -35.842  23.457   3.544  0.00  0.00    +0.056 C 
BRANCH   3   4
ATOM      4  C   UNL     1     -36.346  22.454   2.501  0.00  0.00    +0.025 C 
BRANCH   4   7
ATOM      5  O   UNL     1     -35.316  20.587   3.625  0.00  0.00    -0.277 OA
ATOM      6  N   UNL     1     -35.321  20.637   1.279  0.00  0.00    -0.286 N 
ATOM      7  C   UNL     1     -35.611  21.113   2.555  0.00  0.00    +0.206 C 
ATOM      8  H   UNL     1     -35.614  21.202   0.528  0.00  0.00    +0.155 HD
BRANCH   6   9
ATOM      9  C   UNL     1     -34.654  19.437   0.936  0.00  0.00    +0.050 C 
ATOM     10  C   UNL     1     -33.430  19.126   1.527  0.00  0.00    +0.016 C 
ATOM     11  C   UNL     1     -35.222  18.565   0.007  0.00  0.00    +0.016 C 
ATOM     12  C   UNL     1     -33.341  17.070   0.260  0.00  0.00    +0.143 C 
ATOM     13  C   UNL     1     -32.773  17.943   1.190  0.00  0.00    +0.025 C 
ATOM     14  C   UNL     1     -34.565  17.382  -0.330  0.00  0.00    +0.025 C 
BRANCH  12  17
ATOM     15  O   UNL     1     -33.278  15.009  -0.771  0.00  0.00    -0.126 OA
ATOM     16  O   UNL     1     -31.494  15.690   0.313  0.00  0.00    -0.126 OA
ATOM     17  N   UNL     1     -32.672  15.865  -0.082  0.00  0.00    +0.058 N 
ENDBRANCH  12  17
ENDBRANCH   6   9
ENDBRANCH   4   7
BRANCH   4  18
ATOM     18  N   UNL     1     -37.753  22.140   2.763  0.00  0.00    +0.388 N 
ATOM     19  H   UNL     1     -37.842  21.155   3.010  0.00  0.00    -0.089 HD
ATOM     20  H   UNL     1     -38.305  22.332   1.927  0.00  0.00    -0.089 HD
ATOM     21  H   UNL     1     -38.092  22.717   3.533  0.00  0.00    -0.089 HD
ENDBRANCH   4  18
ENDBRANCH   3   4
ENDBRANCH   2   3
ENDBRANCH   1   2
BRANCH   1  22
ATOM     22  C   UNL     1     -34.763  26.736   2.072  0.00  0.00    +0.056 C 
BRANCH  22  23
ATOM     23  C   UNL     1     -34.889  27.350   3.469  0.00  0.00    +0.025 C 
BRANCH  23  26
ATOM     24  O   UNL     1     -33.282  26.113   4.774  0.00  0.00    -0.277 OA
ATOM     25  N   UNL     1     -32.969  28.420   4.477  0.00  0.00    -0.286 N 
ATOM     26  C   UNL     1     -33.618  27.199   4.309  0.00  0.00    +0.206 C 
ATOM     27  H   UNL     1     -33.393  29.200   4.050  0.00  0.00    +0.155 HD
BRANCH  25  28
ATOM     28  C   UNL     1     -31.773  28.670   5.188  0.00  0.00    +0.050 C 
ATOM     29  C   UNL     1     -30.538  28.496   4.562  0.00  0.00    +0.016 C 
ATOM     30  C   UNL     1     -31.826  29.094   6.516  0.00  0.00    +0.016 C 
ATOM     31  C   UNL     1     -29.412  29.167   6.591  0.00  0.00    +0.143 C 
ATOM     32  C   UNL     1     -29.359  28.744   5.263  0.00  0.00    +0.025 C 
ATOM     33  C   UNL     1     -30.646  29.342   7.219  0.00  0.00    +0.025 C 
BRANCH  31  36
ATOM     34  O   UNL     1     -27.116  29.354   6.695  0.00  0.00    -0.126 OA
ATOM     35  O   UNL     1     -28.277  29.701   8.526  0.00  0.00    -0.126 OA
ATOM     36  N   UNL     1     -28.211  29.420   7.305  0.00  0.00    +0.058 N 
ENDBRANCH  31  36
ENDBRANCH  25  28
ENDBRANCH  23  26
BRANCH  23  37
ATOM     37  N   UNL     1     -35.110  28.794   3.352  0.00  0.00    +0.388 N 
ATOM     38  H   UNL     1     -34.339  29.214   2.832  0.00  0.00    -0.089 HD
ATOM     39  H   UNL     1     -35.156  29.207   4.283  0.00  0.00    -0.089 HD
ATOM     40  H   UNL     1     -35.986  28.966   2.859  0.00  0.00    -0.089 HD
ENDBRANCH  23  37
ENDBRANCH  22  23
ENDBRANCH   1  22
TORSDOF 13
ENDMDL
MODEL 9
REMARK VINA RESULT:      -5.3      3.516      6.579
REMARK  Name = 54347805
REMARK  13 active torsions:
REMARK  status: ('A' for Active; 'I' for Inactive)
REMARK    1  A    between atoms: S_1  and  S_2
REMARK    2  A    between atoms: S_1  and  C_22
REMARK    3  A    between atoms: S_2  and  C_3
REMARK    4  A    between atoms: C_3  and  C_4
REMARK    5  A    between atoms: C_4  and  C_7
REMARK    6  A    between atoms: C_4  and  N_18
REMARK    7  A    between atoms: N_6  and  C_9
REMARK    8  A    between atoms: C_12  and  N_17
REMARK    9  A    between atoms: C_22  and  C_23
REMARK   10  A    between atoms: C_23  and  C_26
REMARK   11  A    between atoms: C_23  and  N_37
REMARK   12  A    between atoms: N_25  and  C_28
REMARK   13  A    between atoms: C_31  and  N_36
REMARK                            x       y       z     vdW  Elec       q    Type
REMARK                         _______ _______ _______ _____ _____    ______ ____
ROOT
ATOM      1  S   UNL     1     -38.305  26.369   1.551  0.00  0.00    -0.084 S 
ENDROOT
BRANCH   1   2
ATOM      2  S   UNL     1     -36.272  26.188   1.314  0.00  0.00    -0.084 S 
BRANCH   2   3
ATOM      3  C   UNL     1     -35.650  27.128   2.729  0.00  0.00    +0.056 C 
BRANCH   3   4
ATOM      4  C   UNL     1     -35.405  26.222   3.941  0.00  0.00    +0.025 C 
BRANCH   4   7
ATOM      5  O   UNL     1     -33.362  25.344   4.872  0.00  0.00    -0.277 OA
ATOM      6  N   UNL     1     -33.551  27.658   4.529  0.00  0.00    -0.286 N 
ATOM      7  C   UNL     1     -33.982  26.335   4.495  0.00  0.00    +0.206 C 
ATOM      8  H   UNL     1     -34.190  28.332   4.205  0.00  0.00    +0.155 HD
BRANCH   6   9
ATOM      9  C   UNL     1     -32.300  28.146   4.976  0.00  0.00    +0.050 C 
ATOM     10  C   UNL     1     -32.134  28.523   6.308  0.00  0.00    +0.016 C 
ATOM     11  C   UNL     1     -31.233  28.250   4.084  0.00  0.00    +0.016 C 
ATOM     12  C   UNL     1     -29.833  29.108   5.856  0.00  0.00    +0.143 C 
ATOM     13  C   UNL     1     -30.901  29.005   6.749  0.00  0.00    +0.025 C 
ATOM     14  C   UNL     1     -30.000  28.731   4.524  0.00  0.00    +0.025 C 
BRANCH  12  17
ATOM     15  O   UNL     1     -28.341  29.624   7.537  0.00  0.00    -0.126 OA
ATOM     16  O   UNL     1     -27.740  29.990   5.457  0.00  0.00    -0.126 OA
ATOM     17  N   UNL     1     -28.578  29.597   6.305  0.00  0.00    +0.058 N 
ENDBRANCH  12  17
ENDBRANCH   6   9
ENDBRANCH   4   7
BRANCH   4  18
ATOM     18  N   UNL     1     -36.286  26.625   5.040  0.00  0.00    +0.388 N 
ATOM     19  H   UNL     1     -35.725  26.838   5.865  0.00  0.00    -0.089 HD
ATOM     20  H   UNL     1     -36.930  25.864   5.254  0.00  0.00    -0.089 HD
ATOM     21  H   UNL     1     -36.816  27.452   4.765  0.00  0.00    -0.089 HD
ENDBRANCH   4  18
ENDBRANCH   3   4
ENDBRANCH   2   3
ENDBRANCH   1   2
BRANCH   1  22
ATOM     22  C   UNL     1     -38.850  24.648   1.308  0.00  0.00    +0.056 C 
BRANCH  22  23
ATOM     23  C   UNL     1     -38.853  23.868   2.625  0.00  0.00    +0.025 C 
BRANCH  23  26
ATOM     24  O   UNL     1     -37.057  22.978   3.966  0.00  0.00    -0.277 OA
ATOM     25  N   UNL     1     -37.085  22.527   1.663  0.00  0.00    -0.286 N 
ATOM     26  C   UNL     1     -37.567  23.068   2.852  0.00  0.00    +0.206 C 
ATOM     27  H   UNL     1     -37.613  22.718   0.853  0.00  0.00    +0.155 HD
BRANCH  25  28
ATOM     28  C   UNL     1     -35.928  21.734   1.482  0.00  0.00    +0.050 C 
ATOM     29  C   UNL     1     -35.680  20.656   2.333  0.00  0.00    +0.016 C 
ATOM     30  C   UNL     1     -35.035  22.027   0.452  0.00  0.00    +0.016 C 
ATOM     31  C   UNL     1     -33.646  20.168   1.124  0.00  0.00    +0.143 C 
ATOM     32  C   UNL     1     -34.540  19.874   2.154  0.00  0.00    +0.025 C 
ATOM     33  C   UNL     1     -33.894  21.245   0.272  0.00  0.00    +0.025 C 
BRANCH  31  36
ATOM     34  O   UNL     1     -32.490  18.187   1.356  0.00  0.00    -0.126 OA
ATOM     35  O   UNL     1     -31.487  19.873   0.372  0.00  0.00    -0.126 OA
ATOM     36  N   UNL     1     -32.485  19.371   0.941  0.00  0.00    +0.058 N 
ENDBRANCH  31  36
ENDBRANCH  25  28
ENDBRANCH  23  26
BRANCH  23  37
ATOM     37  N   UNL     1     -38.932  24.804   3.750  0.00  0.00    +0.388 N 
ATOM     38  H   UNL     1     -39.465  24.379   4.509  0.00  0.00    -0.089 HD
ATOM     39  H   UNL     1     -39.396  25.660   3.447  0.00  0.00    -0.089 HD
ATOM     40  H   UNL     1     -37.991  25.024   4.077  0.00  0.00    -0.089 HD
ENDBRANCH  23  37
ENDBRANCH  22  23
ENDBRANCH   1  22
TORSDOF 13
ENDMDL
