MODEL 1
REMARK VINA RESULT:      -6.3      0.000      0.000
REMARK  Name = 5328127
REMARK  4 active torsions:
REMARK  status: ('A' for Active; 'I' for Inactive)
REMARK    1  A    between atoms: C_5  and  C_24
REMARK    2  A    between atoms: N_15  and  C_20
REMARK    3  A    between atoms: C_27  and  O_30
REMARK    4  A    between atoms: C_28  and  O_32
REMARK                            x       y       z     vdW  Elec       q    Type
REMARK                         _______ _______ _______ _____ _____    ______ ____
ROOT
ATOM      1  N   UNL     1     -34.113  25.567   4.576  0.00  0.00    -0.324 NA
ATOM      2  N   UNL     1     -34.742  23.460   5.301  0.00  0.00    -0.272 NA
ATOM      3  N   UNL     1     -36.372  22.152   4.105  0.00  0.00    -0.169 NA
ATOM      4  N   UNL     1     -35.366  21.325   6.051  0.00  0.00    -0.292 N 
ATOM      5  C   UNL     1     -35.073  26.538   2.583  0.00  0.00    +0.046 C 
ATOM      6  C   UNL     1     -34.238  26.564   3.674  0.00  0.00    +0.199 C 
ATOM      7  C   UNL     1     -35.837  25.397   2.413  0.00  0.00    +0.018 C 
ATOM      8  C   UNL     1     -35.729  24.346   3.335  0.00  0.00    +0.106 C 
ATOM      9  C   UNL     1     -34.850  24.459   4.418  0.00  0.00    +0.152 C 
ATOM     10  C   UNL     1     -36.464  23.167   3.231  0.00  0.00    +0.124 C 
ATOM     11  C   UNL     1     -35.503  22.363   5.103  0.00  0.00    +0.152 C 
ATOM     12  H   UNL     1     -34.741  21.426   6.805  0.00  0.00    +0.155 HD
ATOM     13  H   UNL     1     -35.896  20.501   5.958  0.00  0.00    +0.155 HD
ATOM     14  O   UNL     1     -32.259  27.180   5.845  0.00  0.00    -0.252 OA
ATOM     15  N   UNL     1     -31.944  29.202   4.768  0.00  0.00    -0.292 N 
ATOM     16  N   UNL     1     -33.439  27.712   3.886  0.00  0.00    -0.243 N 
ATOM     17  C   UNL     1     -32.530  27.945   4.921  0.00  0.00    +0.306 C 
ATOM     18  H   UNL     1     -32.213  29.756   4.001  0.00  0.00    +0.151 HD
ATOM     19  H   UNL     1     -33.536  28.434   3.224  0.00  0.00    +0.159 HD
ENDROOT
BRANCH   5  20
ATOM     20  C   UNL     1     -35.181  27.626   1.634  0.00  0.00    +0.010 C 
ATOM     21  C   UNL     1     -36.144  28.618   1.818  0.00  0.00    +0.037 C 
ATOM     22  C   UNL     1     -34.322  27.682   0.538  0.00  0.00    +0.037 C 
ATOM     23  C   UNL     1     -34.426  28.730  -0.376  0.00  0.00    +0.142 C 
ATOM     24  C   UNL     1     -36.248  29.666   0.905  0.00  0.00    +0.142 C 
ATOM     25  C   UNL     1     -35.389  29.723  -0.193  0.00  0.00    +0.074 C 
BRANCH  23  26
ATOM     26  O   UNL     1     -33.587  28.785  -1.447  0.00  0.00    -0.471 OA
ATOM     27  C   UNL     1     -32.329  28.124  -1.320  0.00  0.00    +0.252 C 
ENDBRANCH  23  26
BRANCH  24  28
ATOM     28  O   UNL     1     -37.187  30.634   1.083  0.00  0.00    -0.471 OA
ATOM     29  C   UNL     1     -36.794  31.795   1.815  0.00  0.00    +0.252 C 
ENDBRANCH  24  28
ENDBRANCH   5  20
BRANCH  15  30
ATOM     30  C   UNL     1     -30.955  29.727   5.693  0.00  0.00    +0.058 C 
ATOM     31  C   UNL     1     -30.556  31.141   5.259  0.00  0.00    +0.020 C 
ATOM     32  C   UNL     1     -31.558  29.766   7.101  0.00  0.00    +0.020 C 
ATOM     33  C   UNL     1     -29.720  28.818   5.683  0.00  0.00    +0.020 C 
ENDBRANCH  15  30
TORSDOF 4
ENDMDL
MODEL 2
REMARK VINA RESULT:      -6.2      0.105      2.331
REMARK  Name = 5328127
REMARK  4 active torsions:
REMARK  status: ('A' for Active; 'I' for Inactive)
REMARK    1  A    between atoms: C_5  and  C_24
REMARK    2  A    between atoms: N_15  and  C_20
REMARK    3  A    between atoms: C_27  and  O_30
REMARK    4  A    between atoms: C_28  and  O_32
REMARK                            x       y       z     vdW  Elec       q    Type
REMARK                         _______ _______ _______ _____ _____    ______ ____
ROOT
ATOM      1  N   UNL     1     -34.121  25.589   4.573  0.00  0.00    -0.324 NA
ATOM      2  N   UNL     1     -34.754  23.486   5.305  0.00  0.00    -0.272 NA
ATOM      3  N   UNL     1     -36.387  22.178   4.112  0.00  0.00    -0.169 NA
ATOM      4  N   UNL     1     -35.383  21.355   6.061  0.00  0.00    -0.292 N 
ATOM      5  C   UNL     1     -35.079  26.556   2.577  0.00  0.00    +0.046 C 
ATOM      6  C   UNL     1     -34.243  26.583   3.668  0.00  0.00    +0.199 C 
ATOM      7  C   UNL     1     -35.846  25.417   2.410  0.00  0.00    +0.018 C 
ATOM      8  C   UNL     1     -35.739  24.368   3.336  0.00  0.00    +0.106 C 
ATOM      9  C   UNL     1     -34.860  24.482   4.419  0.00  0.00    +0.152 C 
ATOM     10  C   UNL     1     -36.477  23.190   3.235  0.00  0.00    +0.124 C 
ATOM     11  C   UNL     1     -35.517  22.389   5.110  0.00  0.00    +0.152 C 
ATOM     12  H   UNL     1     -34.758  21.457   6.815  0.00  0.00    +0.155 HD
ATOM     13  H   UNL     1     -35.915  20.532   5.971  0.00  0.00    +0.155 HD
ATOM     14  O   UNL     1     -32.264  27.202   5.837  0.00  0.00    -0.252 OA
ATOM     15  N   UNL     1     -31.944  29.220   4.754  0.00  0.00    -0.292 N 
ATOM     16  N   UNL     1     -33.442  27.730   3.876  0.00  0.00    -0.243 N 
ATOM     17  C   UNL     1     -32.533  27.964   4.911  0.00  0.00    +0.306 C 
ATOM     18  H   UNL     1     -32.211  29.773   3.986  0.00  0.00    +0.151 HD
ATOM     19  H   UNL     1     -33.538  28.451   3.212  0.00  0.00    +0.159 HD
ENDROOT
BRANCH   5  20
ATOM     20  C   UNL     1     -35.184  27.642   1.625  0.00  0.00    +0.010 C 
ATOM     21  C   UNL     1     -34.309  27.705   0.542  0.00  0.00    +0.037 C 
ATOM     22  C   UNL     1     -36.162  28.622   1.792  0.00  0.00    +0.037 C 
ATOM     23  C   UNL     1     -36.264  29.668   0.875  0.00  0.00    +0.142 C 
ATOM     24  C   UNL     1     -34.411  28.751  -0.376  0.00  0.00    +0.142 C 
ATOM     25  C   UNL     1     -35.388  29.732  -0.210  0.00  0.00    +0.074 C 
BRANCH  23  26
ATOM     26  O   UNL     1     -37.218  30.625   1.037  0.00  0.00    -0.471 OA
ATOM     27  C   UNL     1     -36.846  31.794   1.767  0.00  0.00    +0.252 C 
ENDBRANCH  23  26
BRANCH  24  28
ATOM     28  O   UNL     1     -33.557  28.814  -1.433  0.00  0.00    -0.471 OA
ATOM     29  C   UNL     1     -32.613  27.753  -1.571  0.00  0.00    +0.252 C 
ENDBRANCH  24  28
ENDBRANCH   5  20
BRANCH  15  30
ATOM     30  C   UNL     1     -30.954  29.745   5.678  0.00  0.00    +0.058 C 
ATOM     31  C   UNL     1     -30.511  31.135   5.208  0.00  0.00    +0.020 C 
ATOM     32  C   UNL     1     -31.574  29.842   7.075  0.00  0.00    +0.020 C 
ATOM     33  C   UNL     1     -29.743  28.804   5.711  0.00  0.00    +0.020 C 
ENDBRANCH  15  30
TORSDOF 4
ENDMDL
MODEL 3
REMARK VINA RESULT:      -6.2      4.472      8.194
REMARK  Name = 5328127
REMARK  4 active torsions:
REMARK  status: ('A' for Active; 'I' for Inactive)
REMARK    1  A    between atoms: C_5  and  C_24
REMARK    2  A    between atoms: N_15  and  C_20
REMARK    3  A    between atoms: C_27  and  O_30
REMARK    4  A    between atoms: C_28  and  O_32
REMARK                            x       y       z     vdW  Elec       q    Type
REMARK                         _______ _______ _______ _____ _____    ______ ____
ROOT
ATOM      1  N   UNL     1     -39.359  23.396   1.359  0.00  0.00    -0.324 NA
ATOM      2  N   UNL     1     -41.510  24.019   0.775  0.00  0.00    -0.272 NA
ATOM      3  N   UNL     1     -42.611  25.884   1.829  0.00  0.00    -0.169 NA
ATOM      4  N   UNL     1     -43.692  24.636   0.168  0.00  0.00    -0.292 N 
ATOM      5  C   UNL     1     -38.130  24.598   3.056  0.00  0.00    +0.046 C 
ATOM      6  C   UNL     1     -38.261  23.604   2.117  0.00  0.00    +0.199 C 
ATOM      7  C   UNL     1     -39.214  25.441   3.225  0.00  0.00    +0.018 C 
ATOM      8  C   UNL     1     -40.368  25.248   2.450  0.00  0.00    +0.106 C 
ATOM      9  C   UNL     1     -40.413  24.208   1.516  0.00  0.00    +0.152 C 
ATOM     10  C   UNL     1     -41.499  26.054   2.562  0.00  0.00    +0.124 C 
ATOM     11  C   UNL     1     -42.549  24.860   0.966  0.00  0.00    +0.152 C 
ATOM     12  H   UNL     1     -43.702  23.898  -0.483  0.00  0.00    +0.155 HD
ATOM     13  H   UNL     1     -44.481  25.218   0.265  0.00  0.00    +0.155 HD
ATOM     14  O   UNL     1     -37.972  21.283   0.237  0.00  0.00    -0.252 OA
ATOM     15  N   UNL     1     -35.853  21.027   1.126  0.00  0.00    -0.292 N 
ATOM     16  N   UNL     1     -37.175  22.720   1.914  0.00  0.00    -0.243 N 
ATOM     17  C   UNL     1     -37.097  21.650   1.019  0.00  0.00    +0.306 C 
ATOM     18  H   UNL     1     -35.205  21.380   1.776  0.00  0.00    +0.151 HD
ATOM     19  H   UNL     1     -36.379  22.877   2.471  0.00  0.00    +0.159 HD
ENDROOT
BRANCH   5  20
ATOM     20  C   UNL     1     -36.936  24.792   3.853  0.00  0.00    +0.010 C 
ATOM     21  C   UNL     1     -36.258  26.009   3.805  0.00  0.00    +0.037 C 
ATOM     22  C   UNL     1     -36.467  23.761   4.666  0.00  0.00    +0.037 C 
ATOM     23  C   UNL     1     -35.317  23.948   5.433  0.00  0.00    +0.142 C 
ATOM     24  C   UNL     1     -35.109  26.196   4.573  0.00  0.00    +0.142 C 
ATOM     25  C   UNL     1     -34.637  25.166   5.387  0.00  0.00    +0.074 C 
BRANCH  23  26
ATOM     26  O   UNL     1     -34.858  22.943   6.228  0.00  0.00    -0.471 OA
ATOM     27  C   UNL     1     -35.215  21.611   5.859  0.00  0.00    +0.252 C 
ENDBRANCH  23  26
BRANCH  24  28
ATOM     28  O   UNL     1     -34.446  27.384   4.528  0.00  0.00    -0.471 OA
ATOM     29  C   UNL     1     -33.044  27.336   4.261  0.00  0.00    +0.252 C 
ENDBRANCH  24  28
ENDBRANCH   5  20
BRANCH  15  30
ATOM     30  C   UNL     1     -35.476  19.879   0.320  0.00  0.00    +0.058 C 
ATOM     31  C   UNL     1     -36.629  18.870   0.305  0.00  0.00    +0.020 C 
ATOM     32  C   UNL     1     -35.176  20.348  -1.107  0.00  0.00    +0.020 C 
ATOM     33  C   UNL     1     -34.227  19.225   0.925  0.00  0.00    +0.020 C 
ENDBRANCH  15  30
TORSDOF 4
ENDMDL
MODEL 4
REMARK VINA RESULT:      -6.1      6.118     10.276
REMARK  Name = 5328127
REMARK  4 active torsions:
REMARK  status: ('A' for Active; 'I' for Inactive)
REMARK    1  A    between atoms: C_5  and  C_24
REMARK    2  A    between atoms: N_15  and  C_20
REMARK    3  A    between atoms: C_27  and  O_30
REMARK    4  A    between atoms: C_28  and  O_32
REMARK                            x       y       z     vdW  Elec       q    Type
REMARK                         _______ _______ _______ _____ _____    ______ ____
ROOT
ATOM      1  N   UNL     1     -37.631  21.439   1.296  0.00  0.00    -0.324 NA
ATOM      2  N   UNL     1     -38.744  23.081   2.489  0.00  0.00    -0.272 NA
ATOM      3  N   UNL     1     -37.553  24.688   3.831  0.00  0.00    -0.169 NA
ATOM      4  N   UNL     1     -39.890  24.739   3.692  0.00  0.00    -0.292 N 
ATOM      5  C   UNL     1     -35.221  21.274   1.351  0.00  0.00    +0.046 C 
ATOM      6  C   UNL     1     -36.464  20.862   0.936  0.00  0.00    +0.199 C 
ATOM      7  C   UNL     1     -35.180  22.364   2.202  0.00  0.00    +0.018 C 
ATOM      8  C   UNL     1     -36.377  22.983   2.594  0.00  0.00    +0.106 C 
ATOM      9  C   UNL     1     -37.600  22.495   2.120  0.00  0.00    +0.152 C 
ATOM     10  C   UNL     1     -36.417  24.084   3.447  0.00  0.00    +0.124 C 
ATOM     11  C   UNL     1     -38.666  24.141   3.321  0.00  0.00    +0.152 C 
ATOM     12  H   UNL     1     -40.739  24.379   3.347  0.00  0.00    +0.155 HD
ATOM     13  H   UNL     1     -39.895  25.516   4.297  0.00  0.00    +0.155 HD
ATOM     14  O   UNL     1     -38.863  19.531  -0.282  0.00  0.00    -0.252 OA
ATOM     15  N   UNL     1     -37.359  18.091  -1.287  0.00  0.00    -0.292 N 
ATOM     16  N   UNL     1     -36.551  19.750   0.065  0.00  0.00    -0.243 N 
ATOM     17  C   UNL     1     -37.703  19.171  -0.473  0.00  0.00    +0.306 C 
ATOM     18  H   UNL     1     -36.407  17.865  -1.391  0.00  0.00    +0.151 HD
ATOM     19  H   UNL     1     -35.696  19.335  -0.192  0.00  0.00    +0.159 HD
ENDROOT
BRANCH   5  20
ATOM     20  C   UNL     1     -33.989  20.631   0.944  0.00  0.00    +0.010 C 
ATOM     21  C   UNL     1     -33.045  21.341   0.204  0.00  0.00    +0.037 C 
ATOM     22  C   UNL     1     -33.749  19.303   1.293  0.00  0.00    +0.037 C 
ATOM     23  C   UNL     1     -32.562  18.683   0.901  0.00  0.00    +0.142 C 
ATOM     24  C   UNL     1     -31.858  20.722  -0.187  0.00  0.00    +0.142 C 
ATOM     25  C   UNL     1     -31.616  19.393   0.161  0.00  0.00    +0.074 C 
BRANCH  23  26
ATOM     26  O   UNL     1     -32.327  17.387   1.242  0.00  0.00    -0.471 OA
ATOM     27  C   UNL     1     -32.491  16.407   0.217  0.00  0.00    +0.252 C 
ENDBRANCH  23  26
BRANCH  24  28
ATOM     28  O   UNL     1     -30.936  21.413  -0.910  0.00  0.00    -0.471 OA
ATOM     29  C   UNL     1     -29.710  20.746  -1.208  0.00  0.00    +0.252 C 
ENDBRANCH  24  28
ENDBRANCH   5  20
BRANCH  15  30
ATOM     30  C   UNL     1     -38.345  17.288  -1.988  0.00  0.00    +0.058 C 
ATOM     31  C   UNL     1     -39.215  16.550  -0.965  0.00  0.00    +0.020 C 
ATOM     32  C   UNL     1     -39.220  18.206  -2.847  0.00  0.00    +0.020 C 
ATOM     33  C   UNL     1     -37.627  16.269  -2.881  0.00  0.00    +0.020 C 
ENDBRANCH  15  30
TORSDOF 4
ENDMDL
MODEL 5
REMARK VINA RESULT:      -6.1      6.022     10.191
REMARK  Name = 5328127
REMARK  4 active torsions:
REMARK  status: ('A' for Active; 'I' for Inactive)
REMARK    1  A    between atoms: C_5  and  C_24
REMARK    2  A    between atoms: N_15  and  C_20
REMARK    3  A    between atoms: C_27  and  O_30
REMARK    4  A    between atoms: C_28  and  O_32
REMARK                            x       y       z     vdW  Elec       q    Type
REMARK                         _______ _______ _______ _____ _____    ______ ____
ROOT
ATOM      1  N   UNL     1     -37.627  21.462   1.327  0.00  0.00    -0.324 NA
ATOM      2  N   UNL     1     -38.735  23.106   2.522  0.00  0.00    -0.272 NA
ATOM      3  N   UNL     1     -37.536  24.728   3.840  0.00  0.00    -0.169 NA
ATOM      4  N   UNL     1     -39.875  24.767   3.727  0.00  0.00    -0.292 N 
ATOM      5  C   UNL     1     -35.217  21.309   1.356  0.00  0.00    +0.046 C 
ATOM      6  C   UNL     1     -36.462  20.889   0.957  0.00  0.00    +0.199 C 
ATOM      7  C   UNL     1     -35.171  22.404   2.200  0.00  0.00    +0.018 C 
ATOM      8  C   UNL     1     -36.366  23.021   2.601  0.00  0.00    +0.106 C 
ATOM      9  C   UNL     1     -37.592  22.524   2.144  0.00  0.00    +0.152 C 
ATOM     10  C   UNL     1     -36.402  24.126   3.448  0.00  0.00    +0.124 C 
ATOM     11  C   UNL     1     -38.653  24.173   3.346  0.00  0.00    +0.152 C 
ATOM     12  H   UNL     1     -40.726  24.401   3.394  0.00  0.00    +0.155 HD
ATOM     13  H   UNL     1     -39.877  25.547   4.327  0.00  0.00    +0.155 HD
ATOM     14  O   UNL     1     -38.868  19.539  -0.225  0.00  0.00    -0.252 OA
ATOM     15  N   UNL     1     -37.369  18.100  -1.238  0.00  0.00    -0.292 N 
ATOM     16  N   UNL     1     -36.554  19.771   0.095  0.00  0.00    -0.243 N 
ATOM     17  C   UNL     1     -37.709  19.183  -0.427  0.00  0.00    +0.306 C 
ATOM     18  H   UNL     1     -36.417  17.877  -1.351  0.00  0.00    +0.151 HD
ATOM     19  H   UNL     1     -35.700  19.358  -0.169  0.00  0.00    +0.159 HD
ENDROOT
BRANCH   5  20
ATOM     20  C   UNL     1     -33.986  20.669   0.939  0.00  0.00    +0.010 C 
ATOM     21  C   UNL     1     -33.715  19.359   1.333  0.00  0.00    +0.037 C 
ATOM     22  C   UNL     1     -33.075  21.364   0.146  0.00  0.00    +0.037 C 
ATOM     23  C   UNL     1     -31.890  20.747  -0.256  0.00  0.00    +0.142 C 
ATOM     24  C   UNL     1     -32.530  18.743   0.931  0.00  0.00    +0.142 C 
ATOM     25  C   UNL     1     -31.617  19.437   0.137  0.00  0.00    +0.074 C 
BRANCH  23  26
ATOM     26  O   UNL     1     -30.999  21.425  -1.031  0.00  0.00    -0.471 OA
ATOM     27  C   UNL     1     -31.535  22.252  -2.063  0.00  0.00    +0.252 C 
ENDBRANCH  23  26
BRANCH  24  28
ATOM     28  O   UNL     1     -32.264  17.465   1.314  0.00  0.00    -0.471 OA
ATOM     29  C   UNL     1     -32.166  16.484   0.281  0.00  0.00    +0.252 C 
ENDBRANCH  24  28
ENDBRANCH   5  20
BRANCH  15  30
ATOM     30  C   UNL     1     -38.359  17.287  -1.922  0.00  0.00    +0.058 C 
ATOM     31  C   UNL     1     -39.338  18.202  -2.665  0.00  0.00    +0.020 C 
ATOM     32  C   UNL     1     -37.649  16.367  -2.920  0.00  0.00    +0.020 C 
ATOM     33  C   UNL     1     -39.123  16.446  -0.892  0.00  0.00    +0.020 C 
ENDBRANCH  15  30
TORSDOF 4
ENDMDL
MODEL 6
REMARK VINA RESULT:      -6.1      5.412      9.028
REMARK  Name = 5328127
REMARK  4 active torsions:
REMARK  status: ('A' for Active; 'I' for Inactive)
REMARK    1  A    between atoms: C_5  and  C_24
REMARK    2  A    between atoms: N_15  and  C_20
REMARK    3  A    between atoms: C_27  and  O_30
REMARK    4  A    between atoms: C_28  and  O_32
REMARK                            x       y       z     vdW  Elec       q    Type
REMARK                         _______ _______ _______ _____ _____    ______ ____
ROOT
ATOM      1  N   UNL     1     -35.026  23.457   1.606  0.00  0.00    -0.324 NA
ATOM      2  N   UNL     1     -35.654  24.760   3.413  0.00  0.00    -0.272 NA
ATOM      3  N   UNL     1     -36.194  23.779   5.546  0.00  0.00    -0.169 NA
ATOM      4  N   UNL     1     -36.288  26.098   5.235  0.00  0.00    -0.292 N 
ATOM      5  C   UNL     1     -34.887  21.052   1.791  0.00  0.00    +0.046 C 
ATOM      6  C   UNL     1     -34.779  22.231   1.095  0.00  0.00    +0.199 C 
ATOM      7  C   UNL     1     -35.279  21.145   3.115  0.00  0.00    +0.018 C 
ATOM      8  C   UNL     1     -35.541  22.406   3.673  0.00  0.00    +0.106 C 
ATOM      9  C   UNL     1     -35.405  23.556   2.888  0.00  0.00    +0.152 C 
ATOM     10  C   UNL     1     -35.939  22.581   4.997  0.00  0.00    +0.124 C 
ATOM     11  C   UNL     1     -36.033  24.814   4.708  0.00  0.00    +0.152 C 
ATOM     12  H   UNL     1     -36.186  26.894   4.664  0.00  0.00    +0.155 HD
ATOM     13  H   UNL     1     -36.569  26.199   6.172  0.00  0.00    +0.155 HD
ATOM     14  O   UNL     1     -34.379  24.441  -0.896  0.00  0.00    -0.252 OA
ATOM     15  N   UNL     1     -33.812  22.776  -2.396  0.00  0.00    -0.292 N 
ATOM     16  N   UNL     1     -34.383  22.180  -0.262  0.00  0.00    -0.243 N 
ATOM     17  C   UNL     1     -34.212  23.249  -1.146  0.00  0.00    +0.306 C 
ATOM     18  H   UNL     1     -33.699  21.806  -2.518  0.00  0.00    +0.151 HD
ATOM     19  H   UNL     1     -34.206  21.283  -0.627  0.00  0.00    +0.159 HD
ENDROOT
BRANCH   5  20
ATOM     20  C   UNL     1     -34.615  19.754   1.211  0.00  0.00    +0.010 C 
ATOM     21  C   UNL     1     -33.395  19.124   1.455  0.00  0.00    +0.037 C 
ATOM     22  C   UNL     1     -35.573  19.136   0.408  0.00  0.00    +0.037 C 
ATOM     23  C   UNL     1     -35.311  17.885  -0.151  0.00  0.00    +0.142 C 
ATOM     24  C   UNL     1     -33.134  17.873   0.896  0.00  0.00    +0.142 C 
ATOM     25  C   UNL     1     -34.091  17.253   0.093  0.00  0.00    +0.074 C 
BRANCH  23  26
ATOM     26  O   UNL     1     -36.246  17.281  -0.935  0.00  0.00    -0.471 OA
ATOM     27  C   UNL     1     -37.536  17.074  -0.362  0.00  0.00    +0.252 C 
ENDBRANCH  23  26
BRANCH  24  28
ATOM     28  O   UNL     1     -31.944  17.257   1.134  0.00  0.00    -0.471 OA
ATOM     29  C   UNL     1     -30.762  17.953   0.740  0.00  0.00    +0.252 C 
ENDBRANCH  24  28
ENDBRANCH   5  20
BRANCH  15  30
ATOM     30  C   UNL     1     -33.555  23.653  -3.524  0.00  0.00    +0.058 C 
ATOM     31  C   UNL     1     -32.413  24.612  -3.169  0.00  0.00    +0.020 C 
ATOM     32  C   UNL     1     -33.162  22.805  -4.738  0.00  0.00    +0.020 C 
ATOM     33  C   UNL     1     -34.822  24.456  -3.840  0.00  0.00    +0.020 C 
ENDBRANCH  15  30
TORSDOF 4
ENDMDL
MODEL 7
REMARK VINA RESULT:      -6.1      5.414      8.865
REMARK  Name = 5328127
REMARK  4 active torsions:
REMARK  status: ('A' for Active; 'I' for Inactive)
REMARK    1  A    between atoms: C_5  and  C_24
REMARK    2  A    between atoms: N_15  and  C_20
REMARK    3  A    between atoms: C_27  and  O_30
REMARK    4  A    between atoms: C_28  and  O_32
REMARK                            x       y       z     vdW  Elec       q    Type
REMARK                         _______ _______ _______ _____ _____    ______ ____
ROOT
ATOM      1  N   UNL     1     -35.064  23.447   1.611  0.00  0.00    -0.324 NA
ATOM      2  N   UNL     1     -35.693  24.743   3.423  0.00  0.00    -0.272 NA
ATOM      3  N   UNL     1     -36.202  23.756   5.560  0.00  0.00    -0.169 NA
ATOM      4  N   UNL     1     -36.328  26.074   5.249  0.00  0.00    -0.292 N 
ATOM      5  C   UNL     1     -34.895  21.044   1.795  0.00  0.00    +0.046 C 
ATOM      6  C   UNL     1     -34.808  22.225   1.098  0.00  0.00    +0.199 C 
ATOM      7  C   UNL     1     -35.276  21.133   3.122  0.00  0.00    +0.018 C 
ATOM      8  C   UNL     1     -35.549  22.391   3.682  0.00  0.00    +0.106 C 
ATOM      9  C   UNL     1     -35.434  23.542   2.895  0.00  0.00    +0.152 C 
ATOM     10  C   UNL     1     -35.938  22.561   5.009  0.00  0.00    +0.124 C 
ATOM     11  C   UNL     1     -36.062  24.792   4.721  0.00  0.00    +0.152 C 
ATOM     12  H   UNL     1     -36.240  26.871   4.678  0.00  0.00    +0.155 HD
ATOM     13  H   UNL     1     -36.602  26.171   6.190  0.00  0.00    +0.155 HD
ATOM     14  O   UNL     1     -34.451  24.439  -0.897  0.00  0.00    -0.252 OA
ATOM     15  N   UNL     1     -33.876  22.780  -2.402  0.00  0.00    -0.292 N 
ATOM     16  N   UNL     1     -34.422  22.179  -0.263  0.00  0.00    -0.243 N 
ATOM     17  C   UNL     1     -34.272  23.249  -1.148  0.00  0.00    +0.306 C 
ATOM     18  H   UNL     1     -33.753  21.812  -2.524  0.00  0.00    +0.151 HD
ATOM     19  H   UNL     1     -34.238  21.284  -0.630  0.00  0.00    +0.159 HD
ENDROOT
BRANCH   5  20
ATOM     20  C   UNL     1     -34.612  19.750   1.212  0.00  0.00    +0.010 C 
ATOM     21  C   UNL     1     -35.566  19.123   0.411  0.00  0.00    +0.037 C 
ATOM     22  C   UNL     1     -33.385  19.131   1.452  0.00  0.00    +0.037 C 
ATOM     23  C   UNL     1     -33.113  17.884   0.890  0.00  0.00    +0.142 C 
ATOM     24  C   UNL     1     -35.293  17.876  -0.151  0.00  0.00    +0.142 C 
ATOM     25  C   UNL     1     -34.066  17.256   0.089  0.00  0.00    +0.074 C 
BRANCH  23  26
ATOM     26  O   UNL     1     -31.916  17.279   1.124  0.00  0.00    -0.471 OA
ATOM     27  C   UNL     1     -30.741  18.000   0.751  0.00  0.00    +0.252 C 
ENDBRANCH  23  26
BRANCH  24  28
ATOM     28  O   UNL     1     -36.223  17.264  -0.933  0.00  0.00    -0.471 OA
ATOM     29  C   UNL     1     -37.525  17.085  -0.375  0.00  0.00    +0.252 C 
ENDBRANCH  24  28
ENDBRANCH   5  20
BRANCH  15  30
ATOM     30  C   UNL     1     -33.640  23.660  -3.532  0.00  0.00    +0.058 C 
ATOM     31  C   UNL     1     -34.937  24.400  -3.878  0.00  0.00    +0.020 C 
ATOM     32  C   UNL     1     -32.549  24.670  -3.161  0.00  0.00    +0.020 C 
ATOM     33  C   UNL     1     -33.187  22.827  -4.737  0.00  0.00    +0.020 C 
ENDBRANCH  15  30
TORSDOF 4
ENDMDL
MODEL 8
REMARK VINA RESULT:      -6.1      4.484      8.211
REMARK  Name = 5328127
REMARK  4 active torsions:
REMARK  status: ('A' for Active; 'I' for Inactive)
REMARK    1  A    between atoms: C_5  and  C_24
REMARK    2  A    between atoms: N_15  and  C_20
REMARK    3  A    between atoms: C_27  and  O_30
REMARK    4  A    between atoms: C_28  and  O_32
REMARK                            x       y       z     vdW  Elec       q    Type
REMARK                         _______ _______ _______ _____ _____    ______ ____
ROOT
ATOM      1  N   UNL     1     -39.277  23.228   1.233  0.00  0.00    -0.324 NA
ATOM      2  N   UNL     1     -41.429  23.786   0.588  0.00  0.00    -0.272 NA
ATOM      3  N   UNL     1     -42.603  25.636   1.589  0.00  0.00    -0.169 NA
ATOM      4  N   UNL     1     -43.611  24.338  -0.080  0.00  0.00    -0.292 N 
ATOM      5  C   UNL     1     -38.122  24.485   2.942  0.00  0.00    +0.046 C 
ATOM      6  C   UNL     1     -38.204  23.475   2.014  0.00  0.00    +0.199 C 
ATOM      7  C   UNL     1     -39.231  25.302   3.072  0.00  0.00    +0.018 C 
ATOM      8  C   UNL     1     -40.361  25.068   2.273  0.00  0.00    +0.106 C 
ATOM      9  C   UNL     1     -40.356  24.014   1.352  0.00  0.00    +0.152 C 
ATOM     10  C   UNL     1     -41.515  25.846   2.346  0.00  0.00    +0.124 C 
ATOM     11  C   UNL     1     -42.494  24.602   0.742  0.00  0.00    +0.152 C 
ATOM     12  H   UNL     1     -43.586  23.591  -0.721  0.00  0.00    +0.155 HD
ATOM     13  H   UNL     1     -44.416  24.899  -0.011  0.00  0.00    +0.155 HD
ATOM     14  O   UNL     1     -37.809  21.137   0.175  0.00  0.00    -0.252 OA
ATOM     15  N   UNL     1     -35.707  20.949   1.119  0.00  0.00    -0.292 N 
ATOM     16  N   UNL     1     -37.091  22.617   1.850  0.00  0.00    -0.243 N 
ATOM     17  C   UNL     1     -36.964  21.538   0.972  0.00  0.00    +0.306 C 
ATOM     18  H   UNL     1     -35.084  21.328   1.779  0.00  0.00    +0.151 HD
ATOM     19  H   UNL     1     -36.314  22.803   2.424  0.00  0.00    +0.159 HD
ENDROOT
BRANCH   5  20
ATOM     20  C   UNL     1     -36.953  24.722   3.764  0.00  0.00    +0.010 C 
ATOM     21  C   UNL     1     -36.515  23.738   4.649  0.00  0.00    +0.037 C 
ATOM     22  C   UNL     1     -36.269  25.932   3.669  0.00  0.00    +0.037 C 
ATOM     23  C   UNL     1     -35.144  26.160   4.461  0.00  0.00    +0.142 C 
ATOM     24  C   UNL     1     -35.389  23.965   5.440  0.00  0.00    +0.142 C 
ATOM     25  C   UNL     1     -34.703  25.177   5.347  0.00  0.00    +0.074 C 
BRANCH  23  26
ATOM     26  O   UNL     1     -34.475  27.342   4.369  0.00  0.00    -0.471 OA
ATOM     27  C   UNL     1     -34.526  28.020   3.114  0.00  0.00    +0.252 C 
ENDBRANCH  23  26
BRANCH  24  28
ATOM     28  O   UNL     1     -34.959  23.006   6.305  0.00  0.00    -0.471 OA
ATOM     29  C   UNL     1     -35.171  21.647   5.924  0.00  0.00    +0.252 C 
ENDBRANCH  24  28
ENDBRANCH   5  20
BRANCH  15  30
ATOM     30  C   UNL     1     -35.280  19.801   0.339  0.00  0.00    +0.058 C 
ATOM     31  C   UNL     1     -36.423  18.784   0.268  0.00  0.00    +0.020 C 
ATOM     32  C   UNL     1     -34.909  20.266  -1.073  0.00  0.00    +0.020 C 
ATOM     33  C   UNL     1     -34.060  19.158   1.010  0.00  0.00    +0.020 C 
ENDBRANCH  15  30
TORSDOF 4
ENDMDL
MODEL 9
REMARK VINA RESULT:      -6.0      1.954      6.227
REMARK  Name = 5328127
REMARK  4 active torsions:
REMARK  status: ('A' for Active; 'I' for Inactive)
REMARK    1  A    between atoms: C_5  and  C_24
REMARK    2  A    between atoms: N_15  and  C_20
REMARK    3  A    between atoms: C_27  and  O_30
REMARK    4  A    between atoms: C_28  and  O_32
REMARK                            x       y       z     vdW  Elec       q    Type
REMARK                         _______ _______ _______ _____ _____    ______ ____
ROOT
ATOM      1  N   UNL     1     -32.134  27.750   5.015  0.00  0.00    -0.324 NA
ATOM      2  N   UNL     1     -30.251  28.067   6.324  0.00  0.00    -0.272 NA
ATOM      3  N   UNL     1     -29.005  30.127   6.258  0.00  0.00    -0.169 NA
ATOM      4  N   UNL     1     -28.345  28.371   7.659  0.00  0.00    -0.292 N 
ATOM      5  C   UNL     1     -32.924  29.481   3.527  0.00  0.00    +0.046 C 
ATOM      6  C   UNL     1     -32.998  28.234   4.097  0.00  0.00    +0.199 C 
ATOM      7  C   UNL     1     -31.878  30.290   3.935  0.00  0.00    +0.018 C 
ATOM      8  C   UNL     1     -30.965  29.814   4.887  0.00  0.00    +0.106 C 
ATOM      9  C   UNL     1     -31.118  28.527   5.416  0.00  0.00    +0.152 C 
ATOM     10  C   UNL     1     -29.887  30.568   5.347  0.00  0.00    +0.124 C 
ATOM     11  C   UNL     1     -29.243  28.883   6.699  0.00  0.00    +0.152 C 
ATOM     12  H   UNL     1     -28.472  27.463   8.017  0.00  0.00    +0.155 HD
ATOM     13  H   UNL     1     -27.589  28.921   7.969  0.00  0.00    +0.155 HD
ATOM     14  O   UNL     1     -33.661  25.445   4.986  0.00  0.00    -0.252 OA
ATOM     15  N   UNL     1     -35.450  25.572   3.526  0.00  0.00    -0.292 N 
ATOM     16  N   UNL     1     -34.052  27.375   3.707  0.00  0.00    -0.243 N 
ATOM     17  C   UNL     1     -34.313  26.078   4.158  0.00  0.00    +0.306 C 
ATOM     18  H   UNL     1     -35.918  26.141   2.874  0.00  0.00    +0.151 HD
ATOM     19  H   UNL     1     -34.678  27.734   3.037  0.00  0.00    +0.159 HD
ENDROOT
BRANCH   5  20
ATOM     20  C   UNL     1     -33.870  29.968   2.544  0.00  0.00    +0.010 C 
ATOM     21  C   UNL     1     -33.642  29.743   1.187  0.00  0.00    +0.037 C 
ATOM     22  C   UNL     1     -35.008  30.660   2.956  0.00  0.00    +0.037 C 
ATOM     23  C   UNL     1     -35.919  31.129   2.010  0.00  0.00    +0.142 C 
ATOM     24  C   UNL     1     -34.553  30.211   0.241  0.00  0.00    +0.142 C 
ATOM     25  C   UNL     1     -35.692  30.904   0.651  0.00  0.00    +0.074 C 
BRANCH  23  26
ATOM     26  O   UNL     1     -37.030  31.805   2.411  0.00  0.00    -0.471 OA
ATOM     27  C   UNL     1     -37.845  32.378   1.389  0.00  0.00    +0.252 C 
ENDBRANCH  23  26
BRANCH  24  28
ATOM     28  O   UNL     1     -34.332  29.992  -1.084  0.00  0.00    -0.471 OA
ATOM     29  C   UNL     1     -33.821  28.712  -1.455  0.00  0.00    +0.252 C 
ENDBRANCH  24  28
ENDBRANCH   5  20
BRANCH  15  30
ATOM     30  C   UNL     1     -35.970  24.242   3.790  0.00  0.00    +0.058 C 
ATOM     31  C   UNL     1     -35.140  23.211   3.018  0.00  0.00    +0.020 C 
ATOM     32  C   UNL     1     -35.883  23.960   5.293  0.00  0.00    +0.020 C 
ATOM     33  C   UNL     1     -37.432  24.171   3.332  0.00  0.00    +0.020 C 
ENDBRANCH  15  30
TORSDOF 4
ENDMDL
