MODEL 1
REMARK VINA RESULT:      -6.6      0.000      0.000
REMARK  Name = 50990953
REMARK  3 active torsions:
REMARK  status: ('A' for Active; 'I' for Inactive)
REMARK    1  A    between atoms: C_2  and  C_12
REMARK    2  A    between atoms: C_4  and  O_18
REMARK    3  A    between atoms: O_18  and  C_21
REMARK                            x       y       z     vdW  Elec       q    Type
REMARK                         _______ _______ _______ _____ _____    ______ ____
ROOT
ATOM      1  F   UNL     1     -35.407  21.384   6.372  0.00  0.00    -0.204 F 
ATOM      2  C   UNL     1     -34.741  24.604   4.818  0.00  0.00    +0.059 C 
ATOM      3  C   UNL     1     -35.307  24.405   3.560  0.00  0.00    +0.042 C 
ATOM      4  C   UNL     1     -35.908  23.185   3.251  0.00  0.00    +0.148 C 
ATOM      5  C   UNL     1     -34.775  23.584   5.769  0.00  0.00    +0.034 C 
ATOM      6  C   UNL     1     -35.943  22.164   4.201  0.00  0.00    +0.067 C 
ATOM      7  C   UNL     1     -35.376  22.364   5.460  0.00  0.00    +0.143 C 
ENDROOT
BRANCH   2  12
ATOM      8  S   UNL     1     -32.363  28.402   2.539  0.00  0.00    -0.060 S 
ATOM      9  O   UNL     1     -34.123  26.273   6.316  0.00  0.00    -0.270 OA
ATOM     10  N   UNL     1     -33.564  26.579   4.059  0.00  0.00    -0.251 N 
ATOM     11  N   UNL     1     -32.701  28.628   5.092  0.00  0.00    -0.388 NA
ATOM     12  C   UNL     1     -34.115  25.878   5.139  0.00  0.00    +0.252 C 
ATOM     13  C   UNL     1     -32.920  27.841   4.062  0.00  0.00    +0.213 C 
ATOM     14  C   UNL     1     -32.045  29.762   4.655  0.00  0.00    +0.101 C 
ATOM     15  C   UNL     1     -31.775  29.820   3.304  0.00  0.00    +0.120 C 
ATOM     16  C   UNL     1     -31.695  30.796   5.649  0.00  0.00    +0.063 C 
ATOM     17  H   UNL     1     -33.633  26.137   3.181  0.00  0.00    +0.158 HD
ENDBRANCH   2  12
BRANCH   4  18
ATOM     18  O   UNL     1     -36.461  22.989   2.023  0.00  0.00    -0.450 OA
BRANCH  18  21
ATOM     19  N   UNL     1     -39.559  24.869   1.428  0.00  0.00    -0.219 NA
ATOM     20  N   UNL     1     -40.104  22.560   1.854  0.00  0.00    -0.219 NA
ATOM     21  C   UNL     1     -37.808  23.278   1.870  0.00  0.00    +0.183 C 
ATOM     22  C   UNL     1     -38.257  24.551   1.583  0.00  0.00    +0.140 C 
ATOM     23  C   UNL     1     -38.785  22.314   1.996  0.00  0.00    +0.140 C 
ATOM     24  C   UNL     1     -40.417  23.841   1.575  0.00  0.00    +0.199 C 
ENDBRANCH  18  21
ENDBRANCH   4  18
TORSDOF 3
ENDMDL
MODEL 2
REMARK VINA RESULT:      -6.6      3.272      3.871
REMARK  Name = 50990953
REMARK  3 active torsions:
REMARK  status: ('A' for Active; 'I' for Inactive)
REMARK    1  A    between atoms: C_2  and  C_12
REMARK    2  A    between atoms: C_4  and  O_18
REMARK    3  A    between atoms: O_18  and  C_21
REMARK                            x       y       z     vdW  Elec       q    Type
REMARK                         _______ _______ _______ _____ _____    ______ ____
ROOT
ATOM      1  F   UNL     1     -35.248  22.147   6.955  0.00  0.00    -0.204 F 
ATOM      2  C   UNL     1     -35.073  24.660   4.332  0.00  0.00    +0.059 C 
ATOM      3  C   UNL     1     -35.354  23.881   3.210  0.00  0.00    +0.042 C 
ATOM      4  C   UNL     1     -35.599  22.516   3.353  0.00  0.00    +0.148 C 
ATOM      5  C   UNL     1     -35.038  24.075   5.598  0.00  0.00    +0.034 C 
ATOM      6  C   UNL     1     -35.565  21.929   4.618  0.00  0.00    +0.067 C 
ATOM      7  C   UNL     1     -35.283  22.709   5.741  0.00  0.00    +0.143 C 
ENDROOT
BRANCH   2  12
ATOM      8  S   UNL     1     -36.117  28.440   1.187  0.00  0.00    -0.060 S 
ATOM      9  O   UNL     1     -34.161  26.674   5.054  0.00  0.00    -0.270 OA
ATOM     10  N   UNL     1     -35.374  26.689   3.046  0.00  0.00    -0.251 N 
ATOM     11  N   UNL     1     -34.718  29.040   3.277  0.00  0.00    -0.388 NA
ATOM     12  C   UNL     1     -34.819  26.085   4.182  0.00  0.00    +0.252 C 
ATOM     13  C   UNL     1     -35.314  28.049   2.653  0.00  0.00    +0.213 C 
ATOM     14  C   UNL     1     -34.904  30.201   2.551  0.00  0.00    +0.101 C 
ATOM     15  C   UNL     1     -35.635  30.074   1.389  0.00  0.00    +0.120 C 
ATOM     16  C   UNL     1     -34.316  31.452   3.068  0.00  0.00    +0.063 C 
ATOM     17  H   UNL     1     -35.871  26.091   2.442  0.00  0.00    +0.158 HD
ENDBRANCH   2  12
BRANCH   4  18
ATOM     18  O   UNL     1     -35.873  21.754   2.259  0.00  0.00    -0.450 OA
BRANCH  18  21
ATOM     19  N   UNL     1     -33.016  21.175   0.027  0.00  0.00    -0.219 NA
ATOM     20  N   UNL     1     -33.411  19.191   1.336  0.00  0.00    -0.219 NA
ATOM     21  C   UNL     1     -34.811  21.126   1.629  0.00  0.00    +0.183 C 
ATOM     22  C   UNL     1     -34.056  21.755   0.660  0.00  0.00    +0.140 C 
ATOM     23  C   UNL     1     -34.439  19.833   1.930  0.00  0.00    +0.140 C 
ATOM     24  C   UNL     1     -32.751  19.911   0.407  0.00  0.00    +0.199 C 
ENDBRANCH  18  21
ENDBRANCH   4  18
TORSDOF 3
ENDMDL
MODEL 3
REMARK VINA RESULT:      -6.6      3.958      7.733
REMARK  Name = 50990953
REMARK  3 active torsions:
REMARK  status: ('A' for Active; 'I' for Inactive)
REMARK    1  A    between atoms: C_2  and  C_12
REMARK    2  A    between atoms: C_4  and  O_18
REMARK    3  A    between atoms: O_18  and  C_21
REMARK                            x       y       z     vdW  Elec       q    Type
REMARK                         _______ _______ _______ _____ _____    ______ ____
ROOT
ATOM      1  F   UNL     1     -34.897  21.810   7.118  0.00  0.00    -0.204 F 
ATOM      2  C   UNL     1     -35.641  22.023   3.565  0.00  0.00    +0.059 C 
ATOM      3  C   UNL     1     -35.880  23.391   3.433  0.00  0.00    +0.042 C 
ATOM      4  C   UNL     1     -35.786  24.225   4.547  0.00  0.00    +0.148 C 
ATOM      5  C   UNL     1     -35.308  21.489   4.809  0.00  0.00    +0.034 C 
ATOM      6  C   UNL     1     -35.453  23.692   5.792  0.00  0.00    +0.067 C 
ATOM      7  C   UNL     1     -35.215  22.323   5.923  0.00  0.00    +0.143 C 
ENDROOT
BRANCH   2  12
ATOM      8  S   UNL     1     -33.036  18.407   1.239  0.00  0.00    -0.060 S 
ATOM      9  O   UNL     1     -36.749  21.219   1.685  0.00  0.00    -0.270 OA
ATOM     10  N   UNL     1     -34.663  20.279   2.200  0.00  0.00    -0.251 N 
ATOM     11  N   UNL     1     -35.316  19.031   0.194  0.00  0.00    -0.388 NA
ATOM     12  C   UNL     1     -35.738  21.155   2.402  0.00  0.00    +0.252 C 
ATOM     13  C   UNL     1     -34.492  19.313   1.178  0.00  0.00    +0.213 C 
ATOM     14  C   UNL     1     -34.765  18.024  -0.575  0.00  0.00    +0.101 C 
ATOM     15  C   UNL     1     -33.534  17.558  -0.165  0.00  0.00    +0.120 C 
ATOM     16  C   UNL     1     -35.524  17.541  -1.746  0.00  0.00    +0.063 C 
ATOM     17  H   UNL     1     -33.929  20.345   2.853  0.00  0.00    +0.158 HD
ENDBRANCH   2  12
BRANCH   4  18
ATOM     18  O   UNL     1     -36.019  25.560   4.421  0.00  0.00    -0.450 OA
BRANCH  18  21
ATOM     19  N   UNL     1     -33.636  28.051   3.154  0.00  0.00    -0.219 NA
ATOM     20  N   UNL     1     -32.898  27.277   5.313  0.00  0.00    -0.219 NA
ATOM     21  C   UNL     1     -34.920  26.401   4.346  0.00  0.00    +0.183 C 
ATOM     22  C   UNL     1     -34.695  27.221   3.260  0.00  0.00    +0.140 C 
ATOM     23  C   UNL     1     -33.980  26.471   5.353  0.00  0.00    +0.140 C 
ATOM     24  C   UNL     1     -32.790  28.029   4.200  0.00  0.00    +0.199 C 
ENDBRANCH  18  21
ENDBRANCH   4  18
TORSDOF 3
ENDMDL
MODEL 4
REMARK VINA RESULT:      -6.6      2.658      3.411
REMARK  Name = 50990953
REMARK  3 active torsions:
REMARK  status: ('A' for Active; 'I' for Inactive)
REMARK    1  A    between atoms: C_2  and  C_12
REMARK    2  A    between atoms: C_4  and  O_18
REMARK    3  A    between atoms: O_18  and  C_21
REMARK                            x       y       z     vdW  Elec       q    Type
REMARK                         _______ _______ _______ _____ _____    ______ ____
ROOT
ATOM      1  F   UNL     1     -35.901  21.768   6.717  0.00  0.00    -0.204 F 
ATOM      2  C   UNL     1     -34.644  24.604   4.819  0.00  0.00    +0.059 C 
ATOM      3  C   UNL     1     -34.860  24.158   3.515  0.00  0.00    +0.042 C 
ATOM      4  C   UNL     1     -35.429  22.904   3.293  0.00  0.00    +0.148 C 
ATOM      5  C   UNL     1     -34.996  23.797   5.900  0.00  0.00    +0.034 C 
ATOM      6  C   UNL     1     -35.782  22.097   4.374  0.00  0.00    +0.067 C 
ATOM      7  C   UNL     1     -35.564  22.543   5.678  0.00  0.00    +0.143 C 
ENDROOT
BRANCH   2  12
ATOM      8  S   UNL     1     -32.257  28.241   2.299  0.00  0.00    -0.060 S 
ATOM      9  O   UNL     1     -34.104  26.406   6.187  0.00  0.00    -0.270 OA
ATOM     10  N   UNL     1     -33.477  26.530   3.930  0.00  0.00    -0.251 N 
ATOM     11  N   UNL     1     -32.683  28.676   4.811  0.00  0.00    -0.388 NA
ATOM     12  C   UNL     1     -34.051  25.913   5.049  0.00  0.00    +0.252 C 
ATOM     13  C   UNL     1     -32.855  27.800   3.846  0.00  0.00    +0.213 C 
ATOM     14  C   UNL     1     -32.033  29.782   4.299  0.00  0.00    +0.101 C 
ATOM     15  C   UNL     1     -31.719  29.730   2.957  0.00  0.00    +0.120 C 
ATOM     16  C   UNL     1     -31.733  30.903   5.212  0.00  0.00    +0.063 C 
ATOM     17  H   UNL     1     -33.509  26.014   3.092  0.00  0.00    +0.158 HD
ENDBRANCH   2  12
BRANCH   4  18
ATOM     18  O   UNL     1     -35.641  22.467   2.022  0.00  0.00    -0.450 OA
BRANCH  18  21
ATOM     19  N   UNL     1     -33.836  19.332   1.394  0.00  0.00    -0.219 NA
ATOM     20  N   UNL     1     -32.910  21.069   0.003  0.00  0.00    -0.219 NA
ATOM     21  C   UNL     1     -34.735  21.562   1.493  0.00  0.00    +0.183 C 
ATOM     22  C   UNL     1     -34.703  20.240   1.887  0.00  0.00    +0.140 C 
ATOM     23  C   UNL     1     -33.807  21.923   0.539  0.00  0.00    +0.140 C 
ATOM     24  C   UNL     1     -32.980  19.806   0.469  0.00  0.00    +0.199 C 
ENDBRANCH  18  21
ENDBRANCH   4  18
TORSDOF 3
ENDMDL
MODEL 5
REMARK VINA RESULT:      -6.4      4.333      7.043
REMARK  Name = 50990953
REMARK  3 active torsions:
REMARK  status: ('A' for Active; 'I' for Inactive)
REMARK    1  A    between atoms: C_2  and  C_12
REMARK    2  A    between atoms: C_4  and  O_18
REMARK    3  A    between atoms: O_18  and  C_21
REMARK                            x       y       z     vdW  Elec       q    Type
REMARK                         _______ _______ _______ _____ _____    ______ ____
ROOT
ATOM      1  F   UNL     1     -35.050  22.099   6.923  0.00  0.00    -0.204 F 
ATOM      2  C   UNL     1     -35.630  21.805   3.344  0.00  0.00    +0.059 C 
ATOM      3  C   UNL     1     -35.914  23.131   3.020  0.00  0.00    +0.042 C 
ATOM      4  C   UNL     1     -35.905  24.109   4.014  0.00  0.00    +0.148 C 
ATOM      5  C   UNL     1     -35.338  21.456   4.663  0.00  0.00    +0.034 C 
ATOM      6  C   UNL     1     -35.613  23.762   5.333  0.00  0.00    +0.067 C 
ATOM      7  C   UNL     1     -35.329  22.434   5.657  0.00  0.00    +0.143 C 
ENDROOT
BRANCH   2  12
ATOM      8  S   UNL     1     -32.527  18.490   1.187  0.00  0.00    -0.060 S 
ATOM      9  O   UNL     1     -36.695  20.554   1.698  0.00  0.00    -0.270 OA
ATOM     10  N   UNL     1     -34.424  20.119   2.093  0.00  0.00    -0.251 N 
ATOM     11  N   UNL     1     -34.964  18.509   0.325  0.00  0.00    -0.388 NA
ATOM     12  C   UNL     1     -35.638  20.786   2.306  0.00  0.00    +0.252 C 
ATOM     13  C   UNL     1     -34.140  19.077   1.177  0.00  0.00    +0.213 C 
ATOM     14  C   UNL     1     -34.280  17.536  -0.377  0.00  0.00    +0.101 C 
ATOM     15  C   UNL     1     -32.950  17.380  -0.050  0.00  0.00    +0.120 C 
ATOM     16  C   UNL     1     -35.014  16.761  -1.398  0.00  0.00    +0.063 C 
ATOM     17  H   UNL     1     -33.670  20.415   2.652  0.00  0.00    +0.158 HD
ENDBRANCH   2  12
BRANCH   4  18
ATOM     18  O   UNL     1     -36.182  25.404   3.699  0.00  0.00    -0.450 OA
BRANCH  18  21
ATOM     19  N   UNL     1     -38.664  26.833   1.400  0.00  0.00    -0.219 NA
ATOM     20  N   UNL     1     -39.768  25.317   2.914  0.00  0.00    -0.219 NA
ATOM     21  C   UNL     1     -37.394  25.672   3.083  0.00  0.00    +0.183 C 
ATOM     22  C   UNL     1     -37.501  26.549   2.023  0.00  0.00    +0.140 C 
ATOM     23  C   UNL     1     -38.571  25.080   3.489  0.00  0.00    +0.140 C 
ATOM     24  C   UNL     1     -39.742  26.192   1.889  0.00  0.00    +0.199 C 
ENDBRANCH  18  21
ENDBRANCH   4  18
TORSDOF 3
ENDMDL
MODEL 6
REMARK VINA RESULT:      -6.4      5.115      7.356
REMARK  Name = 50990953
REMARK  3 active torsions:
REMARK  status: ('A' for Active; 'I' for Inactive)
REMARK    1  A    between atoms: C_2  and  C_12
REMARK    2  A    between atoms: C_4  and  O_18
REMARK    3  A    between atoms: O_18  and  C_21
REMARK                            x       y       z     vdW  Elec       q    Type
REMARK                         _______ _______ _______ _____ _____    ______ ____
ROOT
ATOM      1  F   UNL     1     -40.447  27.841  -0.505  0.00  0.00    -0.204 F 
ATOM      2  C   UNL     1     -40.115  25.817   2.499  0.00  0.00    +0.059 C 
ATOM      3  C   UNL     1     -41.378  25.988   3.065  0.00  0.00    +0.042 C 
ATOM      4  C   UNL     1     -42.327  26.785   2.426  0.00  0.00    +0.148 C 
ATOM      5  C   UNL     1     -39.801  26.442   1.293  0.00  0.00    +0.034 C 
ATOM      6  C   UNL     1     -42.013  27.411   1.219  0.00  0.00    +0.067 C 
ATOM      7  C   UNL     1     -40.750  27.239   0.653  0.00  0.00    +0.143 C 
ENDROOT
BRANCH   2  12
ATOM      8  S   UNL     1     -35.672  26.230   4.812  0.00  0.00    -0.060 S 
ATOM      9  O   UNL     1     -39.344  23.767   3.283  0.00  0.00    -0.270 OA
ATOM     10  N   UNL     1     -37.995  25.649   3.656  0.00  0.00    -0.251 N 
ATOM     11  N   UNL     1     -36.695  23.859   4.711  0.00  0.00    -0.388 NA
ATOM     12  C   UNL     1     -39.127  24.984   3.167  0.00  0.00    +0.252 C 
ATOM     13  C   UNL     1     -36.892  25.111   4.362  0.00  0.00    +0.213 C 
ATOM     14  C   UNL     1     -35.493  23.767   5.386  0.00  0.00    +0.101 C 
ATOM     15  C   UNL     1     -34.796  24.947   5.538  0.00  0.00    +0.120 C 
ATOM     16  C   UNL     1     -35.065  22.442   5.876  0.00  0.00    +0.063 C 
ATOM     17  H   UNL     1     -37.962  26.619   3.486  0.00  0.00    +0.158 HD
ENDBRANCH   2  12
BRANCH   4  18
ATOM     18  O   UNL     1     -43.560  26.953   2.978  0.00  0.00    -0.450 OA
BRANCH  18  21
ATOM     19  N   UNL     1     -45.003  28.891   5.742  0.00  0.00    -0.219 NA
ATOM     20  N   UNL     1     -42.749  29.644   5.342  0.00  0.00    -0.219 NA
ATOM     21  C   UNL     1     -43.686  27.878   4.002  0.00  0.00    +0.183 C 
ATOM     22  C   UNL     1     -44.846  28.003   4.739  0.00  0.00    +0.140 C 
ATOM     23  C   UNL     1     -42.661  28.732   4.351  0.00  0.00    +0.140 C 
ATOM     24  C   UNL     1     -43.932  29.669   5.987  0.00  0.00    +0.199 C 
ENDBRANCH  18  21
ENDBRANCH   4  18
TORSDOF 3
ENDMDL
MODEL 7
REMARK VINA RESULT:      -6.3      3.533      7.902
REMARK  Name = 50990953
REMARK  3 active torsions:
REMARK  status: ('A' for Active; 'I' for Inactive)
REMARK    1  A    between atoms: C_2  and  C_12
REMARK    2  A    between atoms: C_4  and  O_18
REMARK    3  A    between atoms: O_18  and  C_21
REMARK                            x       y       z     vdW  Elec       q    Type
REMARK                         _______ _______ _______ _____ _____    ______ ____
ROOT
ATOM      1  F   UNL     1     -34.975  22.047   7.291  0.00  0.00    -0.204 F 
ATOM      2  C   UNL     1     -35.595  21.834   3.714  0.00  0.00    +0.059 C 
ATOM      3  C   UNL     1     -35.788  23.180   3.406  0.00  0.00    +0.042 C 
ATOM      4  C   UNL     1     -35.706  24.144   4.410  0.00  0.00    +0.148 C 
ATOM      5  C   UNL     1     -35.320  21.451   5.026  0.00  0.00    +0.034 C 
ATOM      6  C   UNL     1     -35.430  23.762   5.723  0.00  0.00    +0.067 C 
ATOM      7  C   UNL     1     -35.238  22.415   6.031  0.00  0.00    +0.143 C 
ENDROOT
BRANCH   2  12
ATOM      8  S   UNL     1     -38.623  20.459  -0.056  0.00  0.00    -0.060 S 
ATOM      9  O   UNL     1     -34.762  20.002   2.548  0.00  0.00    -0.270 OA
ATOM     10  N   UNL     1     -36.809  20.901   1.839  0.00  0.00    -0.251 N 
ATOM     11  N   UNL     1     -36.463  19.072   0.244  0.00  0.00    -0.388 NA
ATOM     12  C   UNL     1     -35.680  20.830   2.665  0.00  0.00    +0.252 C 
ATOM     13  C   UNL     1     -37.146  20.082   0.733  0.00  0.00    +0.213 C 
ATOM     14  C   UNL     1     -37.148  18.550  -0.836  0.00  0.00    +0.101 C 
ATOM     15  C   UNL     1     -38.339  19.169  -1.150  0.00  0.00    +0.120 C 
ATOM     16  C   UNL     1     -36.561  17.398  -1.549  0.00  0.00    +0.063 C 
ATOM     17  H   UNL     1     -37.454  21.613   2.056  0.00  0.00    +0.158 HD
ENDBRANCH   2  12
BRANCH   4  18
ATOM     18  O   UNL     1     -35.894  25.458   4.111  0.00  0.00    -0.450 OA
BRANCH  18  21
ATOM     19  N   UNL     1     -32.915  27.269   5.266  0.00  0.00    -0.219 NA
ATOM     20  N   UNL     1     -33.297  27.777   2.941  0.00  0.00    -0.219 NA
ATOM     21  C   UNL     1     -34.780  26.283   4.108  0.00  0.00    +0.183 C 
ATOM     22  C   UNL     1     -34.005  26.474   5.233  0.00  0.00    +0.140 C 
ATOM     23  C   UNL     1     -34.375  26.966   2.980  0.00  0.00    +0.140 C 
ATOM     24  C   UNL     1     -32.622  27.881   4.103  0.00  0.00    +0.199 C 
ENDBRANCH  18  21
ENDBRANCH   4  18
TORSDOF 3
ENDMDL
MODEL 8
REMARK VINA RESULT:      -6.3      2.163      2.330
REMARK  Name = 50990953
REMARK  3 active torsions:
REMARK  status: ('A' for Active; 'I' for Inactive)
REMARK    1  A    between atoms: C_2  and  C_12
REMARK    2  A    between atoms: C_4  and  O_18
REMARK    3  A    between atoms: O_18  and  C_21
REMARK                            x       y       z     vdW  Elec       q    Type
REMARK                         _______ _______ _______ _____ _____    ______ ____
ROOT
ATOM      1  F   UNL     1     -35.238  22.187   7.032  0.00  0.00    -0.204 F 
ATOM      2  C   UNL     1     -35.052  24.660   4.371  0.00  0.00    +0.059 C 
ATOM      3  C   UNL     1     -35.274  23.854   3.255  0.00  0.00    +0.042 C 
ATOM      4  C   UNL     1     -35.485  22.484   3.415  0.00  0.00    +0.148 C 
ATOM      5  C   UNL     1     -35.040  24.097   5.647  0.00  0.00    +0.034 C 
ATOM      6  C   UNL     1     -35.474  21.921   4.691  0.00  0.00    +0.067 C 
ATOM      7  C   UNL     1     -35.251  22.728   5.807  0.00  0.00    +0.143 C 
ENDROOT
BRANCH   2  12
ATOM      8  S   UNL     1     -36.099  28.354   1.126  0.00  0.00    -0.060 S 
ATOM      9  O   UNL     1     -34.220  26.711   5.085  0.00  0.00    -0.270 OA
ATOM     10  N   UNL     1     -35.368  26.657   3.040  0.00  0.00    -0.251 N 
ATOM     11  N   UNL     1     -34.786  29.029   3.248  0.00  0.00    -0.388 NA
ATOM     12  C   UNL     1     -34.833  26.088   4.203  0.00  0.00    +0.252 C 
ATOM     13  C   UNL     1     -35.334  28.010   2.623  0.00  0.00    +0.213 C 
ATOM     14  C   UNL     1     -34.981  30.171   2.496  0.00  0.00    +0.101 C 
ATOM     15  C   UNL     1     -35.671  30.004   1.314  0.00  0.00    +0.120 C 
ATOM     16  C   UNL     1     -34.446  31.448   3.009  0.00  0.00    +0.063 C 
ATOM     17  H   UNL     1     -35.827  26.034   2.431  0.00  0.00    +0.158 HD
ENDBRANCH   2  12
BRANCH   4  18
ATOM     18  O   UNL     1     -35.703  21.697   2.326  0.00  0.00    -0.450 OA
BRANCH  18  21
ATOM     19  N   UNL     1     -38.010  22.361  -0.453  0.00  0.00    -0.219 NA
ATOM     20  N   UNL     1     -39.282  21.992   1.560  0.00  0.00    -0.219 NA
ATOM     21  C   UNL     1     -36.879  21.888   1.619  0.00  0.00    +0.183 C 
ATOM     22  C   UNL     1     -36.885  22.169   0.268  0.00  0.00    +0.140 C 
ATOM     23  C   UNL     1     -38.118  21.810   2.218  0.00  0.00    +0.140 C 
ATOM     24  C   UNL     1     -39.156  22.260   0.246  0.00  0.00    +0.199 C 
ENDBRANCH  18  21
ENDBRANCH   4  18
TORSDOF 3
ENDMDL
MODEL 9
REMARK VINA RESULT:      -6.3      7.091      9.685
REMARK  Name = 50990953
REMARK  3 active torsions:
REMARK  status: ('A' for Active; 'I' for Inactive)
REMARK    1  A    between atoms: C_2  and  C_12
REMARK    2  A    between atoms: C_4  and  O_18
REMARK    3  A    between atoms: O_18  and  C_21
REMARK                            x       y       z     vdW  Elec       q    Type
REMARK                         _______ _______ _______ _____ _____    ______ ____
ROOT
ATOM      1  F   UNL     1     -32.850  22.558  -0.621  0.00  0.00    -0.204 F 
ATOM      2  C   UNL     1     -33.112  19.294   0.962  0.00  0.00    +0.059 C 
ATOM      3  C   UNL     1     -34.227  19.491   1.775  0.00  0.00    +0.042 C 
ATOM      4  C   UNL     1     -34.879  20.724   1.778  0.00  0.00    +0.148 C 
ATOM      5  C   UNL     1     -32.647  20.330   0.152  0.00  0.00    +0.034 C 
ATOM      6  C   UNL     1     -34.415  21.761   0.968  0.00  0.00    +0.067 C 
ATOM      7  C   UNL     1     -33.298  21.564   0.156  0.00  0.00    +0.143 C 
ENDROOT
BRANCH   2  12
ATOM      8  S   UNL     1     -32.929  15.052  -1.729  0.00  0.00    -0.060 S 
ATOM      9  O   UNL     1     -31.594  17.766   1.841  0.00  0.00    -0.270 OA
ATOM     10  N   UNL     1     -32.779  17.136  -0.083  0.00  0.00    -0.251 N 
ATOM     11  N   UNL     1     -31.362  15.177   0.322  0.00  0.00    -0.388 NA
ATOM     12  C   UNL     1     -32.434  18.007   0.959  0.00  0.00    +0.252 C 
ATOM     13  C   UNL     1     -32.272  15.841  -0.354  0.00  0.00    +0.213 C 
ATOM     14  C   UNL     1     -31.160  13.952  -0.284  0.00  0.00    +0.101 C 
ATOM     15  C   UNL     1     -31.919  13.704  -1.408  0.00  0.00    +0.120 C 
ATOM     16  C   UNL     1     -30.170  13.031   0.309  0.00  0.00    +0.063 C 
ATOM     17  H   UNL     1     -33.464  17.466  -0.708  0.00  0.00    +0.158 HD
ENDBRANCH   2  12
BRANCH   4  18
ATOM     18  O   UNL     1     -35.968  20.918   2.571  0.00  0.00    -0.450 OA
BRANCH  18  21
ATOM     19  N   UNL     1     -34.943  22.222   5.848  0.00  0.00    -0.219 NA
ATOM     20  N   UNL     1     -36.306  23.867   4.733  0.00  0.00    -0.219 NA
ATOM     21  C   UNL     1     -35.831  21.768   3.657  0.00  0.00    +0.183 C 
ATOM     22  C   UNL     1     -35.098  21.420   4.773  0.00  0.00    +0.140 C 
ATOM     23  C   UNL     1     -36.418  23.015   3.693  0.00  0.00    +0.140 C 
ATOM     24  C   UNL     1     -35.565  23.413   5.763  0.00  0.00    +0.199 C 
ENDBRANCH  18  21
ENDBRANCH   4  18
TORSDOF 3
ENDMDL
