MODEL 1
REMARK VINA RESULT:      -5.6      0.000      0.000
REMARK  Name = 5492703
REMARK  7 active torsions:
REMARK  status: ('A' for Active; 'I' for Inactive)
REMARK    1  A    between atoms: C_1  and  N_7
REMARK    2  A    between atoms: C_2  and  O_11
REMARK    3  A    between atoms: C_3  and  C_14
REMARK    4  A    between atoms: C_14  and  O_15
REMARK    5  A    between atoms: O_15  and  C_16
REMARK    6  A    between atoms: C_16  and  C_19
REMARK    7  A    between atoms: C_19  and  O_20
REMARK                            x       y       z     vdW  Elec       q    Type
REMARK                         _______ _______ _______ _____ _____    ______ ____
ROOT
ATOM      1  C   UNL     1     -33.499  26.852   4.080  0.00  0.00    +0.066 C 
ATOM      2  C   UNL     1     -32.609  28.115   4.265  0.00  0.00    +0.145 C 
ATOM      3  C   UNL     1     -33.977  26.258   5.384  0.00  0.00    +0.090 C 
ATOM      4  C   UNL     1     -31.967  28.242   5.620  0.00  0.00    +0.038 C 
ATOM      5  C   UNL     1     -33.450  26.577   6.575  0.00  0.00    +0.008 C 
ATOM      6  C   UNL     1     -32.356  27.511   6.673  0.00  0.00    +0.003 C 
ENDROOT
BRANCH   1   7
ATOM      7  N   UNL     1     -32.772  25.833   3.311  0.00  0.00    -0.413 NA
ATOM      8  H   UNL     1     -32.190  25.281   3.941  0.00  0.00    +0.121 HD
ATOM      9  H   UNL     1     -32.181  26.290   2.616  0.00  0.00    +0.121 HD
ATOM     10  H   UNL     1     -33.438  25.221   2.840  0.00  0.00    +0.121 HD
ENDBRANCH   1   7
BRANCH   2  11
ATOM     11  O   UNL     1     -33.401  29.285   4.041  0.00  0.00    -0.504 OA
ATOM     12  H   UNL     1     -32.819  30.053   3.926  0.00  0.00    +0.292 HD
ENDBRANCH   2  11
BRANCH   3  14
ATOM     13  O   UNL     1     -36.263  25.645   5.508  0.00  0.00    -0.245 OA
ATOM     14  C   UNL     1     -35.096  25.311   5.374  0.00  0.00    +0.343 C 
BRANCH  14  15
ATOM     15  O   UNL     1     -34.605  24.060   5.195  0.00  0.00    -0.438 OA
BRANCH  15  16
ATOM     16  C   UNL     1     -35.575  23.008   5.241  0.00  0.00    +0.266 C 
ATOM     17  C   UNL     1     -35.237  22.109   6.418  0.00  0.00    +0.060 C 
BRANCH  16  19
ATOM     18  O   UNL     1     -35.415  22.764   2.829  0.00  0.00    -0.246 OA
ATOM     19  C   UNL     1     -35.519  22.247   3.933  0.00  0.00    +0.355 C 
BRANCH  19  20
ATOM     20  O   UNL     1     -35.578  20.903   4.118  0.00  0.00    -0.478 OA
ATOM     21  H   UNL     1     -35.414  20.539   4.966  0.00  0.00    +0.295 HD
ENDBRANCH  19  20
ENDBRANCH  16  19
ENDBRANCH  15  16
ENDBRANCH  14  15
ENDBRANCH   3  14
TORSDOF 7
ENDMDL
MODEL 2
REMARK VINA RESULT:      -5.4      3.218      5.070
REMARK  Name = 5492703
REMARK  7 active torsions:
REMARK  status: ('A' for Active; 'I' for Inactive)
REMARK    1  A    between atoms: C_1  and  N_7
REMARK    2  A    between atoms: C_2  and  O_11
REMARK    3  A    between atoms: C_3  and  C_14
REMARK    4  A    between atoms: C_14  and  O_15
REMARK    5  A    between atoms: O_15  and  C_16
REMARK    6  A    between atoms: C_16  and  C_19
REMARK    7  A    between atoms: C_19  and  O_20
REMARK                            x       y       z     vdW  Elec       q    Type
REMARK                         _______ _______ _______ _____ _____    ______ ____
ROOT
ATOM      1  C   UNL     1     -35.935  23.775   3.199  0.00  0.00    +0.066 C 
ATOM      2  C   UNL     1     -36.045  24.738   4.416  0.00  0.00    +0.145 C 
ATOM      3  C   UNL     1     -35.756  22.328   3.593  0.00  0.00    +0.090 C 
ATOM      4  C   UNL     1     -35.471  24.201   5.700  0.00  0.00    +0.038 C 
ATOM      5  C   UNL     1     -35.413  21.938   4.828  0.00  0.00    +0.008 C 
ATOM      6  C   UNL     1     -35.169  22.907   5.868  0.00  0.00    +0.003 C 
ENDROOT
BRANCH   1   7
ATOM      7  N   UNL     1     -34.826  24.191   2.328  0.00  0.00    -0.413 NA
ATOM      8  H   UNL     1     -34.521  23.398   1.763  0.00  0.00    +0.121 HD
ATOM      9  H   UNL     1     -34.048  24.519   2.901  0.00  0.00    +0.121 HD
ATOM     10  H   UNL     1     -35.138  24.944   1.715  0.00  0.00    +0.121 HD
ENDBRANCH   1   7
BRANCH   2  11
ATOM     11  O   UNL     1     -37.422  25.051   4.645  0.00  0.00    -0.504 OA
ATOM     12  H   UNL     1     -37.943  24.811   3.863  0.00  0.00    +0.292 HD
ENDBRANCH   2  11
BRANCH   3  14
ATOM     13  O   UNL     1     -35.538  20.152   2.680  0.00  0.00    -0.245 OA
ATOM     14  C   UNL     1     -36.001  21.279   2.597  0.00  0.00    +0.343 C 
BRANCH  14  15
ATOM     15  O   UNL     1     -36.798  21.782   1.623  0.00  0.00    -0.438 OA
BRANCH  15  16
ATOM     16  C   UNL     1     -37.996  21.039   1.368  0.00  0.00    +0.266 C 
ATOM     17  C   UNL     1     -38.171  20.934  -0.137  0.00  0.00    +0.060 C 
BRANCH  16  19
ATOM     18  O   UNL     1     -39.146  22.950   2.334  0.00  0.00    -0.246 OA
ATOM     19  C   UNL     1     -39.158  21.770   2.007  0.00  0.00    +0.355 C 
BRANCH  19  20
ATOM     20  O   UNL     1     -40.244  20.970   2.166  0.00  0.00    -0.478 OA
ATOM     21  H   UNL     1     -40.223  20.085   1.856  0.00  0.00    +0.295 HD
ENDBRANCH  19  20
ENDBRANCH  16  19
ENDBRANCH  15  16
ENDBRANCH  14  15
ENDBRANCH   3  14
TORSDOF 7
ENDMDL
MODEL 3
REMARK VINA RESULT:      -5.3      1.933      5.477
REMARK  Name = 5492703
REMARK  7 active torsions:
REMARK  status: ('A' for Active; 'I' for Inactive)
REMARK    1  A    between atoms: C_1  and  N_7
REMARK    2  A    between atoms: C_2  and  O_11
REMARK    3  A    between atoms: C_3  and  C_14
REMARK    4  A    between atoms: C_14  and  O_15
REMARK    5  A    between atoms: O_15  and  C_16
REMARK    6  A    between atoms: C_16  and  C_19
REMARK    7  A    between atoms: C_19  and  O_20
REMARK                            x       y       z     vdW  Elec       q    Type
REMARK                         _______ _______ _______ _____ _____    ______ ____
ROOT
ATOM      1  C   UNL     1     -36.114  23.925   3.772  0.00  0.00    +0.066 C 
ATOM      2  C   UNL     1     -35.955  22.464   3.260  0.00  0.00    +0.145 C 
ATOM      3  C   UNL     1     -35.364  24.197   5.054  0.00  0.00    +0.090 C 
ATOM      4  C   UNL     1     -35.544  21.469   4.310  0.00  0.00    +0.038 C 
ATOM      5  C   UNL     1     -34.873  23.228   5.840  0.00  0.00    +0.008 C 
ATOM      6  C   UNL     1     -35.062  21.838   5.504  0.00  0.00    +0.003 C 
ENDROOT
BRANCH   1   7
ATOM      7  N   UNL     1     -37.538  24.241   3.957  0.00  0.00    -0.413 NA
ATOM      8  H   UNL     1     -38.039  24.077   3.083  0.00  0.00    +0.121 HD
ATOM      9  H   UNL     1     -37.637  25.220   4.227  0.00  0.00    +0.121 HD
ATOM     10  H   UNL     1     -37.926  23.645   4.688  0.00  0.00    +0.121 HD
ENDBRANCH   1   7
BRANCH   2  11
ATOM     11  O   UNL     1     -34.976  22.436   2.217  0.00  0.00    -0.504 OA
ATOM     12  H   UNL     1     -34.095  22.312   2.604  0.00  0.00    +0.292 HD
ENDBRANCH   2  11
BRANCH   3  14
ATOM     13  O   UNL     1     -36.000  26.357   5.792  0.00  0.00    -0.245 OA
ATOM     14  C   UNL     1     -35.116  25.585   5.459  0.00  0.00    +0.343 C 
BRANCH  14  15
ATOM     15  O   UNL     1     -33.783  25.824   5.394  0.00  0.00    -0.438 OA
BRANCH  15  16
ATOM     16  C   UNL     1     -33.414  27.084   4.821  0.00  0.00    +0.266 C 
ATOM     17  C   UNL     1     -32.687  26.812   3.516  0.00  0.00    +0.060 C 
BRANCH  16  19
ATOM     18  O   UNL     1     -32.276  29.013   5.764  0.00  0.00    -0.246 OA
ATOM     19  C   UNL     1     -32.524  27.815   5.805  0.00  0.00    +0.355 C 
BRANCH  19  20
ATOM     20  O   UNL     1     -32.037  26.991   6.768  0.00  0.00    -0.478 OA
ATOM     21  H   UNL     1     -32.030  26.063   6.631  0.00  0.00    +0.295 HD
ENDBRANCH  19  20
ENDBRANCH  16  19
ENDBRANCH  15  16
ENDBRANCH  14  15
ENDBRANCH   3  14
TORSDOF 7
ENDMDL
MODEL 4
REMARK VINA RESULT:      -5.3      3.127      4.376
REMARK  Name = 5492703
REMARK  7 active torsions:
REMARK  status: ('A' for Active; 'I' for Inactive)
REMARK    1  A    between atoms: C_1  and  N_7
REMARK    2  A    between atoms: C_2  and  O_11
REMARK    3  A    between atoms: C_3  and  C_14
REMARK    4  A    between atoms: C_14  and  O_15
REMARK    5  A    between atoms: O_15  and  C_16
REMARK    6  A    between atoms: C_16  and  C_19
REMARK    7  A    between atoms: C_19  and  O_20
REMARK                            x       y       z     vdW  Elec       q    Type
REMARK                         _______ _______ _______ _____ _____    ______ ____
ROOT
ATOM      1  C   UNL     1     -36.512  23.839   3.273  0.00  0.00    +0.066 C 
ATOM      2  C   UNL     1     -37.089  25.182   3.808  0.00  0.00    +0.145 C 
ATOM      3  C   UNL     1     -35.598  23.146   4.255  0.00  0.00    +0.090 C 
ATOM      4  C   UNL     1     -36.299  25.808   4.925  0.00  0.00    +0.038 C 
ATOM      5  C   UNL     1     -35.082  23.750   5.335  0.00  0.00    +0.008 C 
ATOM      6  C   UNL     1     -35.363  25.138   5.610  0.00  0.00    +0.003 C 
ENDROOT
BRANCH   1   7
ATOM      7  N   UNL     1     -35.797  24.067   2.009  0.00  0.00    -0.413 NA
ATOM      8  H   UNL     1     -36.403  23.819   1.227  0.00  0.00    +0.121 HD
ATOM      9  H   UNL     1     -34.957  23.488   1.985  0.00  0.00    +0.121 HD
ATOM     10  H   UNL     1     -35.535  25.050   1.939  0.00  0.00    +0.121 HD
ENDBRANCH   1   7
BRANCH   2  11
ATOM     11  O   UNL     1     -38.423  24.966   4.278  0.00  0.00    -0.504 OA
ATOM     12  H   UNL     1     -39.035  24.961   3.525  0.00  0.00    +0.292 HD
ENDBRANCH   2  11
BRANCH   3  14
ATOM     13  O   UNL     1     -35.216  20.917   4.967  0.00  0.00    -0.245 OA
ATOM     14  C   UNL     1     -35.275  21.729   4.057  0.00  0.00    +0.343 C 
BRANCH  14  15
ATOM     15  O   UNL     1     -35.066  21.512   2.735  0.00  0.00    -0.438 OA
BRANCH  15  16
ATOM     16  C   UNL     1     -35.358  20.187   2.278  0.00  0.00    +0.266 C 
ATOM     17  C   UNL     1     -34.141  19.670   1.530  0.00  0.00    +0.060 C 
BRANCH  16  19
ATOM     18  O   UNL     1     -37.046  21.276   0.910  0.00  0.00    -0.246 OA
ATOM     19  C   UNL     1     -36.572  20.247   1.376  0.00  0.00    +0.355 C 
BRANCH  19  20
ATOM     20  O   UNL     1     -37.081  19.015   1.116  0.00  0.00    -0.478 OA
ATOM     21  H   UNL     1     -36.713  18.490   0.433  0.00  0.00    +0.295 HD
ENDBRANCH  19  20
ENDBRANCH  16  19
ENDBRANCH  15  16
ENDBRANCH  14  15
ENDBRANCH   3  14
TORSDOF 7
ENDMDL
MODEL 5
REMARK VINA RESULT:      -5.2      3.114      5.013
REMARK  Name = 5492703
REMARK  7 active torsions:
REMARK  status: ('A' for Active; 'I' for Inactive)
REMARK    1  A    between atoms: C_1  and  N_7
REMARK    2  A    between atoms: C_2  and  O_11
REMARK    3  A    between atoms: C_3  and  C_14
REMARK    4  A    between atoms: C_14  and  O_15
REMARK    5  A    between atoms: O_15  and  C_16
REMARK    6  A    between atoms: C_16  and  C_19
REMARK    7  A    between atoms: C_19  and  O_20
REMARK                            x       y       z     vdW  Elec       q    Type
REMARK                         _______ _______ _______ _____ _____    ______ ____
ROOT
ATOM      1  C   UNL     1     -35.301  22.983   5.019  0.00  0.00    +0.066 C 
ATOM      2  C   UNL     1     -34.987  24.399   5.583  0.00  0.00    +0.145 C 
ATOM      3  C   UNL     1     -36.215  23.006   3.816  0.00  0.00    +0.090 C 
ATOM      4  C   UNL     1     -35.981  25.464   5.207  0.00  0.00    +0.038 C 
ATOM      5  C   UNL     1     -36.932  24.079   3.456  0.00  0.00    +0.008 C 
ATOM      6  C   UNL     1     -36.886  25.294   4.233  0.00  0.00    +0.003 C 
ENDROOT
BRANCH   1   7
ATOM      7  N   UNL     1     -35.890  22.142   6.071  0.00  0.00    -0.413 NA
ATOM      8  H   UNL     1     -35.154  21.605   6.529  0.00  0.00    +0.121 HD
ATOM      9  H   UNL     1     -36.569  21.504   5.655  0.00  0.00    +0.121 HD
ATOM     10  H   UNL     1     -36.358  22.734   6.758  0.00  0.00    +0.121 HD
ENDBRANCH   1   7
BRANCH   2  11
ATOM     11  O   UNL     1     -33.699  24.815   5.119  0.00  0.00    -0.504 OA
ATOM     12  H   UNL     1     -33.597  24.571   4.186  0.00  0.00    +0.292 HD
ENDBRANCH   2  11
BRANCH   3  14
ATOM     13  O   UNL     1     -35.725  20.770   3.202  0.00  0.00    -0.245 OA
ATOM     14  C   UNL     1     -36.308  21.816   2.964  0.00  0.00    +0.343 C 
BRANCH  14  15
ATOM     15  O   UNL     1     -37.125  22.094   1.919  0.00  0.00    -0.438 OA
BRANCH  15  16
ATOM     16  C   UNL     1     -38.150  21.125   1.668  0.00  0.00    +0.266 C 
ATOM     17  C   UNL     1     -37.994  20.636   0.239  0.00  0.00    +0.060 C 
BRANCH  16  19
ATOM     18  O   UNL     1     -39.718  22.980   1.732  0.00  0.00    -0.246 OA
ATOM     19  C   UNL     1     -39.495  21.785   1.880  0.00  0.00    +0.355 C 
BRANCH  19  20
ATOM     20  O   UNL     1     -40.455  20.893   2.240  0.00  0.00    -0.478 OA
ATOM     21  H   UNL     1     -40.295  20.290   2.939  0.00  0.00    +0.295 HD
ENDBRANCH  19  20
ENDBRANCH  16  19
ENDBRANCH  15  16
ENDBRANCH  14  15
ENDBRANCH   3  14
TORSDOF 7
ENDMDL
MODEL 6
REMARK VINA RESULT:      -5.1      2.886      4.217
REMARK  Name = 5492703
REMARK  7 active torsions:
REMARK  status: ('A' for Active; 'I' for Inactive)
REMARK    1  A    between atoms: C_1  and  N_7
REMARK    2  A    between atoms: C_2  and  O_11
REMARK    3  A    between atoms: C_3  and  C_14
REMARK    4  A    between atoms: C_14  and  O_15
REMARK    5  A    between atoms: O_15  and  C_16
REMARK    6  A    between atoms: C_16  and  C_19
REMARK    7  A    between atoms: C_19  and  O_20
REMARK                            x       y       z     vdW  Elec       q    Type
REMARK                         _______ _______ _______ _____ _____    ______ ____
ROOT
ATOM      1  C   UNL     1     -35.491  23.463   4.390  0.00  0.00    +0.066 C 
ATOM      2  C   UNL     1     -34.535  24.326   5.265  0.00  0.00    +0.145 C 
ATOM      3  C   UNL     1     -36.636  24.250   3.798  0.00  0.00    +0.090 C 
ATOM      4  C   UNL     1     -35.137  25.603   5.785  0.00  0.00    +0.038 C 
ATOM      5  C   UNL     1     -36.984  25.475   4.218  0.00  0.00    +0.008 C 
ATOM      6  C   UNL     1     -36.278  26.112   5.302  0.00  0.00    +0.003 C 
ENDROOT
BRANCH   1   7
ATOM      7  N   UNL     1     -36.019  22.341   5.180  0.00  0.00    -0.413 NA
ATOM      8  H   UNL     1     -36.895  22.018   4.768  0.00  0.00    +0.121 HD
ATOM      9  H   UNL     1     -36.187  22.650   6.138  0.00  0.00    +0.121 HD
ATOM     10  H   UNL     1     -35.342  21.578   5.182  0.00  0.00    +0.121 HD
ENDBRANCH   1   7
BRANCH   2  11
ATOM     11  O   UNL     1     -33.375  24.664   4.499  0.00  0.00    -0.504 OA
ATOM     12  H   UNL     1     -33.603  25.349   3.852  0.00  0.00    +0.292 HD
ENDBRANCH   2  11
BRANCH   3  14
ATOM     13  O   UNL     1     -37.839  24.345   1.758  0.00  0.00    -0.245 OA
ATOM     14  C   UNL     1     -37.395  23.680   2.680  0.00  0.00    +0.343 C 
BRANCH  14  15
ATOM     15  O   UNL     1     -37.500  22.341   2.866  0.00  0.00    -0.438 OA
BRANCH  15  16
ATOM     16  C   UNL     1     -37.254  21.540   1.704  0.00  0.00    +0.266 C 
ATOM     17  C   UNL     1     -38.596  21.119   1.131  0.00  0.00    +0.060 C 
BRANCH  16  19
ATOM     18  O   UNL     1     -35.547  20.355   2.962  0.00  0.00    -0.246 OA
ATOM     19  C   UNL     1     -36.431  20.338   2.115  0.00  0.00    +0.355 C 
BRANCH  19  20
ATOM     20  O   UNL     1     -36.795  19.213   1.448  0.00  0.00    -0.478 OA
ATOM     21  H   UNL     1     -37.501  18.687   1.768  0.00  0.00    +0.295 HD
ENDBRANCH  19  20
ENDBRANCH  16  19
ENDBRANCH  15  16
ENDBRANCH  14  15
ENDBRANCH   3  14
TORSDOF 7
ENDMDL
MODEL 7
REMARK VINA RESULT:      -5.1      3.428      5.892
REMARK  Name = 5492703
REMARK  7 active torsions:
REMARK  status: ('A' for Active; 'I' for Inactive)
REMARK    1  A    between atoms: C_1  and  N_7
REMARK    2  A    between atoms: C_2  and  O_11
REMARK    3  A    between atoms: C_3  and  C_14
REMARK    4  A    between atoms: C_14  and  O_15
REMARK    5  A    between atoms: O_15  and  C_16
REMARK    6  A    between atoms: C_16  and  C_19
REMARK    7  A    between atoms: C_19  and  O_20
REMARK                            x       y       z     vdW  Elec       q    Type
REMARK                         _______ _______ _______ _____ _____    ______ ____
ROOT
ATOM      1  C   UNL     1     -38.051  24.676   2.738  0.00  0.00    +0.066 C 
ATOM      2  C   UNL     1     -39.167  25.228   1.804  0.00  0.00    +0.145 C 
ATOM      3  C   UNL     1     -37.894  23.176   2.662  0.00  0.00    +0.090 C 
ATOM      4  C   UNL     1     -40.202  24.217   1.391  0.00  0.00    +0.038 C 
ATOM      5  C   UNL     1     -38.805  22.366   2.104  0.00  0.00    +0.008 C 
ATOM      6  C   UNL     1     -40.027  22.899   1.552  0.00  0.00    +0.003 C 
ENDROOT
BRANCH   1   7
ATOM      7  N   UNL     1     -38.315  25.075   4.128  0.00  0.00    -0.413 NA
ATOM      8  H   UNL     1     -39.091  25.737   4.150  0.00  0.00    +0.121 HD
ATOM      9  H   UNL     1     -37.482  25.516   4.518  0.00  0.00    +0.121 HD
ATOM     10  H   UNL     1     -38.554  24.251   4.679  0.00  0.00    +0.121 HD
ENDBRANCH   1   7
BRANCH   2  11
ATOM     11  O   UNL     1     -38.567  25.756   0.617  0.00  0.00    -0.504 OA
ATOM     12  H   UNL     1     -38.949  25.319  -0.160  0.00  0.00    +0.292 HD
ENDBRANCH   2  11
BRANCH   3  14
ATOM     13  O   UNL     1     -35.921  21.871   2.512  0.00  0.00    -0.245 OA
ATOM     14  C   UNL     1     -36.673  22.555   3.188  0.00  0.00    +0.343 C 
BRANCH  14  15
ATOM     15  O   UNL     1     -36.553  22.876   4.500  0.00  0.00    -0.438 OA
BRANCH  15  16
ATOM     16  C   UNL     1     -35.215  22.877   5.010  0.00  0.00    +0.266 C 
ATOM     17  C   UNL     1     -35.232  22.212   6.375  0.00  0.00    +0.060 C 
BRANCH  16  19
ATOM     18  O   UNL     1     -33.644  24.710   4.730  0.00  0.00    -0.246 OA
ATOM     19  C   UNL     1     -34.740  24.312   5.103  0.00  0.00    +0.355 C 
BRANCH  19  20
ATOM     20  O   UNL     1     -35.682  25.132   5.637  0.00  0.00    -0.478 OA
ATOM     21  H   UNL     1     -36.284  24.801   6.275  0.00  0.00    +0.295 HD
ENDBRANCH  19  20
ENDBRANCH  16  19
ENDBRANCH  15  16
ENDBRANCH  14  15
ENDBRANCH   3  14
TORSDOF 7
ENDMDL
MODEL 8
REMARK VINA RESULT:      -5.1      3.554      5.269
REMARK  Name = 5492703
REMARK  7 active torsions:
REMARK  status: ('A' for Active; 'I' for Inactive)
REMARK    1  A    between atoms: C_1  and  N_7
REMARK    2  A    between atoms: C_2  and  O_11
REMARK    3  A    between atoms: C_3  and  C_14
REMARK    4  A    between atoms: C_14  and  O_15
REMARK    5  A    between atoms: O_15  and  C_16
REMARK    6  A    between atoms: C_16  and  C_19
REMARK    7  A    between atoms: C_19  and  O_20
REMARK                            x       y       z     vdW  Elec       q    Type
REMARK                         _______ _______ _______ _____ _____    ______ ____
ROOT
ATOM      1  C   UNL     1     -35.830  23.150   3.095  0.00  0.00    +0.066 C 
ATOM      2  C   UNL     1     -36.076  24.179   4.236  0.00  0.00    +0.145 C 
ATOM      3  C   UNL     1     -35.576  21.748   3.595  0.00  0.00    +0.090 C 
ATOM      4  C   UNL     1     -35.543  23.767   5.582  0.00  0.00    +0.038 C 
ATOM      5  C   UNL     1     -35.280  21.463   4.871  0.00  0.00    +0.008 C 
ATOM      6  C   UNL     1     -35.163  22.512   5.854  0.00  0.00    +0.003 C 
ENDROOT
BRANCH   1   7
ATOM      7  N   UNL     1     -34.704  23.588   2.258  0.00  0.00    -0.413 NA
ATOM      8  H   UNL     1     -34.254  24.396   2.688  0.00  0.00    +0.121 HD
ATOM      9  H   UNL     1     -35.048  23.844   1.332  0.00  0.00    +0.121 HD
ATOM     10  H   UNL     1     -34.029  22.828   2.172  0.00  0.00    +0.121 HD
ENDBRANCH   1   7
BRANCH   2  11
ATOM     11  O   UNL     1     -37.482  24.406   4.370  0.00  0.00    -0.504 OA
ATOM     12  H   UNL     1     -37.722  25.227   3.912  0.00  0.00    +0.292 HD
ENDBRANCH   2  11
BRANCH   3  14
ATOM     13  O   UNL     1     -36.728  20.322   2.092  0.00  0.00    -0.245 OA
ATOM     14  C   UNL     1     -35.691  20.622   2.662  0.00  0.00    +0.343 C 
BRANCH  14  15
ATOM     15  O   UNL     1     -34.482  20.015   2.563  0.00  0.00    -0.438 OA
BRANCH  15  16
ATOM     16  C   UNL     1     -34.141  19.537   1.257  0.00  0.00    +0.266 C 
ATOM     17  C   UNL     1     -33.140  18.407   1.418  0.00  0.00    +0.060 C 
BRANCH  16  19
ATOM     18  O   UNL     1     -34.196  21.622   0.010  0.00  0.00    -0.246 OA
ATOM     19  C   UNL     1     -33.553  20.686   0.465  0.00  0.00    +0.355 C 
BRANCH  19  20
ATOM     20  O   UNL     1     -32.206  20.577   0.326  0.00  0.00    -0.478 OA
ATOM     21  H   UNL     1     -31.707  21.307   0.015  0.00  0.00    +0.295 HD
ENDBRANCH  19  20
ENDBRANCH  16  19
ENDBRANCH  15  16
ENDBRANCH  14  15
ENDBRANCH   3  14
TORSDOF 7
ENDMDL
MODEL 9
REMARK VINA RESULT:      -5.1      4.333      7.569
REMARK  Name = 5492703
REMARK  7 active torsions:
REMARK  status: ('A' for Active; 'I' for Inactive)
REMARK    1  A    between atoms: C_1  and  N_7
REMARK    2  A    between atoms: C_2  and  O_11
REMARK    3  A    between atoms: C_3  and  C_14
REMARK    4  A    between atoms: C_14  and  O_15
REMARK    5  A    between atoms: O_15  and  C_16
REMARK    6  A    between atoms: C_16  and  C_19
REMARK    7  A    between atoms: C_19  and  O_20
REMARK                            x       y       z     vdW  Elec       q    Type
REMARK                         _______ _______ _______ _____ _____    ______ ____
ROOT
ATOM      1  C   UNL     1     -35.974  19.152   0.226  0.00  0.00    +0.066 C 
ATOM      2  C   UNL     1     -34.984  18.379  -0.693  0.00  0.00    +0.145 C 
ATOM      3  C   UNL     1     -35.303  19.820   1.403  0.00  0.00    +0.090 C 
ATOM      4  C   UNL     1     -33.684  17.995  -0.039  0.00  0.00    +0.038 C 
ATOM      5  C   UNL     1     -34.056  19.531   1.801  0.00  0.00    +0.008 C 
ATOM      6  C   UNL     1     -33.278  18.524   1.123  0.00  0.00    +0.003 C 
ENDROOT
BRANCH   1   7
ATOM      7  N   UNL     1     -37.026  18.245   0.707  0.00  0.00    -0.413 NA
ATOM      8  H   UNL     1     -37.362  18.565   1.615  0.00  0.00    +0.121 HD
ATOM      9  H   UNL     1     -36.646  17.303   0.798  0.00  0.00    +0.121 HD
ATOM     10  H   UNL     1     -37.799  18.237   0.041  0.00  0.00    +0.121 HD
ENDBRANCH   1   7
BRANCH   2  11
ATOM     11  O   UNL     1     -34.681  19.181  -1.838  0.00  0.00    -0.504 OA
ATOM     12  H   UNL     1     -33.732  19.378  -1.853  0.00  0.00    +0.292 HD
ENDBRANCH   2  11
BRANCH   3  14
ATOM     13  O   UNL     1     -37.141  21.250   1.843  0.00  0.00    -0.245 OA
ATOM     14  C   UNL     1     -36.020  20.867   2.138  0.00  0.00    +0.343 C 
BRANCH  14  15
ATOM     15  O   UNL     1     -35.234  21.299   3.155  0.00  0.00    -0.438 OA
BRANCH  15  16
ATOM     16  C   UNL     1     -35.803  22.328   3.973  0.00  0.00    +0.266 C 
ATOM     17  C   UNL     1     -35.121  23.638   3.621  0.00  0.00    +0.060 C 
BRANCH  16  19
ATOM     18  O   UNL     1     -35.734  22.728   6.369  0.00  0.00    -0.246 OA
ATOM     19  C   UNL     1     -35.577  21.964   5.426  0.00  0.00    +0.355 C 
BRANCH  19  20
ATOM     20  O   UNL     1     -35.195  20.669   5.578  0.00  0.00    -0.478 OA
ATOM     21  H   UNL     1     -34.341  20.398   5.302  0.00  0.00    +0.295 HD
ENDBRANCH  19  20
ENDBRANCH  16  19
ENDBRANCH  15  16
ENDBRANCH  14  15
ENDBRANCH   3  14
TORSDOF 7
ENDMDL
