MODEL 1
REMARK VINA RESULT:      -5.4      0.000      0.000
REMARK  Name = 195625
REMARK  7 active torsions:
REMARK  status: ('A' for Active; 'I' for Inactive)
REMARK    1  A    between atoms: C_1  and  C_13
REMARK    2  A    between atoms: C_2  and  N_9
REMARK    3  A    between atoms: C_5  and  N_10
REMARK    4  A    between atoms: C_13  and  N_14
REMARK    5  A    between atoms: N_14  and  C_17
REMARK    6  A    between atoms: C_17  and  C_20
REMARK    7  A    between atoms: N_19  and  N_22
REMARK                            x       y       z     vdW  Elec       q    Type
REMARK                         _______ _______ _______ _____ _____    ______ ____
ROOT
ATOM      1  C   UNL     1     -34.750  24.263   3.212  0.00  0.00    -0.021 C 
ATOM      2  C   UNL     1     -34.732  24.750   4.513  0.00  0.00    +0.138 C 
ATOM      3  C   UNL     1     -35.169  22.965   2.945  0.00  0.00    -0.003 C 
ATOM      4  C   UNL     1     -35.138  23.927   5.563  0.00  0.00    +0.038 C 
ATOM      5  C   UNL     1     -35.560  22.623   5.304  0.00  0.00    +0.043 C 
ATOM      6  C   UNL     1     -35.575  22.142   3.995  0.00  0.00    +0.014 C 
ENDROOT
BRANCH   2   9
ATOM      7  O   UNL     1     -33.090  26.279   5.026  0.00  0.00    -0.126 OA
ATOM      8  O   UNL     1     -35.159  26.992   4.814  0.00  0.00    -0.126 OA
ATOM      9  N   UNL     1     -34.305  26.075   4.800  0.00  0.00    +0.057 N 
ENDBRANCH   2   9
BRANCH   5  10
ATOM     10  N   UNL     1     -35.972  21.790   6.366  0.00  0.00    -0.357 N 
ATOM     11  H   UNL     1     -36.467  20.961   6.178  0.00  0.00    +0.142 HD
ATOM     12  H   UNL     1     -35.764  22.039   7.296  0.00  0.00    +0.142 HD
ENDBRANCH   5  10
BRANCH   1  13
ATOM     13  C   UNL     1     -34.318  25.124   2.056  0.00  0.00    -0.052 C 
BRANCH  13  14
ATOM     14  N   UNL     1     -35.445  25.518   1.221  0.00  0.00    +0.392 N 
ATOM     15  H   UNL     1     -36.246  24.927   1.442  0.00  0.00    -0.083 HD
ATOM     16  H   UNL     1     -35.179  25.408   0.242  0.00  0.00    -0.083 HD
BRANCH  14  17
ATOM     17  C   UNL     1     -35.802  26.911   1.451  0.00  0.00    +0.007 C 
BRANCH  17  20
ATOM     18  O   UNL     1     -38.087  27.556   1.025  0.00  0.00    -0.276 OA
ATOM     19  N   UNL     1     -37.598  26.350   2.950  0.00  0.00    -0.255 N 
ATOM     20  C   UNL     1     -37.284  26.980   1.758  0.00  0.00    +0.214 C 
ATOM     21  H   UNL     1     -36.897  25.910   3.482  0.00  0.00    +0.169 HD
BRANCH  19  22
ATOM     22  N   UNL     1     -38.910  26.349   3.381  0.00  0.00    -0.254 NA
ATOM     23  H   UNL     1     -38.939  26.140   4.379  0.00  0.00    +0.140 HD
ATOM     24  H   UNL     1     -39.435  25.641   2.868  0.00  0.00    +0.140 HD
ENDBRANCH  19  22
ENDBRANCH  17  20
ENDBRANCH  14  17
ENDBRANCH  13  14
ENDBRANCH   1  13
TORSDOF 7
ENDMDL
MODEL 2
REMARK VINA RESULT:      -5.3      2.900      3.874
REMARK  Name = 195625
REMARK  7 active torsions:
REMARK  status: ('A' for Active; 'I' for Inactive)
REMARK    1  A    between atoms: C_1  and  C_13
REMARK    2  A    between atoms: C_2  and  N_9
REMARK    3  A    between atoms: C_5  and  N_10
REMARK    4  A    between atoms: C_13  and  N_14
REMARK    5  A    between atoms: N_14  and  C_17
REMARK    6  A    between atoms: C_17  and  C_20
REMARK    7  A    between atoms: N_19  and  N_22
REMARK                            x       y       z     vdW  Elec       q    Type
REMARK                         _______ _______ _______ _____ _____    ______ ____
ROOT
ATOM      1  C   UNL     1     -35.227  23.230   3.497  0.00  0.00    -0.021 C 
ATOM      2  C   UNL     1     -35.118  23.173   4.880  0.00  0.00    +0.138 C 
ATOM      3  C   UNL     1     -34.912  24.394   2.806  0.00  0.00    -0.003 C 
ATOM      4  C   UNL     1     -34.686  24.297   5.585  0.00  0.00    +0.038 C 
ATOM      5  C   UNL     1     -34.368  25.469   4.900  0.00  0.00    +0.043 C 
ATOM      6  C   UNL     1     -34.481  25.518   3.511  0.00  0.00    +0.014 C 
ENDROOT
BRANCH   2   9
ATOM      7  O   UNL     1     -36.153  22.082   6.623  0.00  0.00    -0.126 OA
ATOM      8  O   UNL     1     -34.994  20.893   5.180  0.00  0.00    -0.126 OA
ATOM      9  N   UNL     1     -35.438  21.988   5.599  0.00  0.00    +0.057 N 
ENDBRANCH   2   9
BRANCH   5  10
ATOM     10  N   UNL     1     -33.931  26.606   5.612  0.00  0.00    -0.357 N 
ATOM     11  H   UNL     1     -33.533  27.366   5.130  0.00  0.00    +0.142 HD
ATOM     12  H   UNL     1     -34.024  26.639   6.592  0.00  0.00    +0.142 HD
ENDBRANCH   5  10
BRANCH   1  13
ATOM     13  C   UNL     1     -35.689  22.035   2.706  0.00  0.00    -0.052 C 
BRANCH  13  14
ATOM     14  N   UNL     1     -37.116  21.793   2.872  0.00  0.00    +0.392 N 
ATOM     15  H   UNL     1     -37.421  22.192   3.760  0.00  0.00    -0.083 HD
ATOM     16  H   UNL     1     -37.279  20.785   2.860  0.00  0.00    -0.083 HD
BRANCH  14  17
ATOM     17  C   UNL     1     -37.878  22.398   1.789  0.00  0.00    +0.007 C 
BRANCH  17  20
ATOM     18  O   UNL     1     -40.238  22.786   2.102  0.00  0.00    -0.276 OA
ATOM     19  N   UNL     1     -38.717  24.122   3.242  0.00  0.00    -0.255 N 
ATOM     20  C   UNL     1     -39.082  23.098   2.385  0.00  0.00    +0.214 C 
ATOM     21  H   UNL     1     -37.767  24.311   3.418  0.00  0.00    +0.169 HD
BRANCH  19  22
ATOM     22  N   UNL     1     -39.705  24.873   3.847  0.00  0.00    -0.254 NA
ATOM     23  H   UNL     1     -40.618  24.487   3.608  0.00  0.00    +0.140 HD
ATOM     24  H   UNL     1     -39.646  25.837   3.521  0.00  0.00    +0.140 HD
ENDBRANCH  19  22
ENDBRANCH  17  20
ENDBRANCH  14  17
ENDBRANCH  13  14
ENDBRANCH   1  13
TORSDOF 7
ENDMDL
MODEL 3
REMARK VINA RESULT:      -5.2      2.832      4.573
REMARK  Name = 195625
REMARK  7 active torsions:
REMARK  status: ('A' for Active; 'I' for Inactive)
REMARK    1  A    between atoms: C_1  and  C_13
REMARK    2  A    between atoms: C_2  and  N_9
REMARK    3  A    between atoms: C_5  and  N_10
REMARK    4  A    between atoms: C_13  and  N_14
REMARK    5  A    between atoms: N_14  and  C_17
REMARK    6  A    between atoms: C_17  and  C_20
REMARK    7  A    between atoms: N_19  and  N_22
REMARK                            x       y       z     vdW  Elec       q    Type
REMARK                         _______ _______ _______ _____ _____    ______ ____
ROOT
ATOM      1  C   UNL     1     -35.462  26.768   3.038  0.00  0.00    -0.021 C 
ATOM      2  C   UNL     1     -35.546  25.897   4.117  0.00  0.00    +0.138 C 
ATOM      3  C   UNL     1     -36.543  26.949   2.184  0.00  0.00    -0.003 C 
ATOM      4  C   UNL     1     -36.729  25.196   4.346  0.00  0.00    +0.038 C 
ATOM      5  C   UNL     1     -37.820  25.371   3.495  0.00  0.00    +0.043 C 
ATOM      6  C   UNL     1     -37.727  26.247   2.414  0.00  0.00    +0.014 C 
ENDROOT
BRANCH   2   9
ATOM      7  O   UNL     1     -34.393  26.380   6.050  0.00  0.00    -0.126 OA
ATOM      8  O   UNL     1     -33.571  24.861   4.689  0.00  0.00    -0.126 OA
ATOM      9  N   UNL     1     -34.446  25.703   4.997  0.00  0.00    +0.057 N 
ENDBRANCH   2   9
BRANCH   5  10
ATOM     10  N   UNL     1     -39.018  24.662   3.727  0.00  0.00    -0.357 N 
ATOM     11  H   UNL     1     -39.786  25.117   4.141  0.00  0.00    +0.142 HD
ATOM     12  H   UNL     1     -39.085  23.713   3.474  0.00  0.00    +0.142 HD
ENDBRANCH   5  10
BRANCH   1  13
ATOM     13  C   UNL     1     -34.200  27.540   2.762  0.00  0.00    -0.052 C 
BRANCH  13  14
ATOM     14  N   UNL     1     -34.073  28.702   3.632  0.00  0.00    +0.392 N 
ATOM     15  H   UNL     1     -34.342  28.439   4.580  0.00  0.00    -0.083 HD
ATOM     16  H   UNL     1     -34.681  29.441   3.279  0.00  0.00    -0.083 HD
BRANCH  14  17
ATOM     17  C   UNL     1     -32.703  29.196   3.645  0.00  0.00    +0.007 C 
BRANCH  17  20
ATOM     18  O   UNL     1     -30.935  27.627   4.123  0.00  0.00    -0.276 OA
ATOM     19  N   UNL     1     -32.333  28.306   5.849  0.00  0.00    -0.255 N 
ATOM     20  C   UNL     1     -31.878  28.295   4.542  0.00  0.00    +0.214 C 
ATOM     21  H   UNL     1     -33.097  28.870   6.107  0.00  0.00    +0.169 HD
BRANCH  19  22
ATOM     22  N   UNL     1     -31.699  27.514   6.785  0.00  0.00    -0.254 NA
ATOM     23  H   UNL     1     -30.689  27.631   6.700  0.00  0.00    +0.140 HD
ATOM     24  H   UNL     1     -31.943  26.537   6.624  0.00  0.00    +0.140 HD
ENDBRANCH  19  22
ENDBRANCH  17  20
ENDBRANCH  14  17
ENDBRANCH  13  14
ENDBRANCH   1  13
TORSDOF 7
ENDMDL
MODEL 4
REMARK VINA RESULT:      -5.2      2.496      4.845
REMARK  Name = 195625
REMARK  7 active torsions:
REMARK  status: ('A' for Active; 'I' for Inactive)
REMARK    1  A    between atoms: C_1  and  C_13
REMARK    2  A    between atoms: C_2  and  N_9
REMARK    3  A    between atoms: C_5  and  N_10
REMARK    4  A    between atoms: C_13  and  N_14
REMARK    5  A    between atoms: N_14  and  C_17
REMARK    6  A    between atoms: C_17  and  C_20
REMARK    7  A    between atoms: N_19  and  N_22
REMARK                            x       y       z     vdW  Elec       q    Type
REMARK                         _______ _______ _______ _____ _____    ______ ____
ROOT
ATOM      1  C   UNL     1     -36.516  25.240   3.903  0.00  0.00    -0.021 C 
ATOM      2  C   UNL     1     -35.933  26.236   3.130  0.00  0.00    +0.138 C 
ATOM      3  C   UNL     1     -36.029  24.949   5.173  0.00  0.00    -0.003 C 
ATOM      4  C   UNL     1     -34.848  26.952   3.632  0.00  0.00    +0.038 C 
ATOM      5  C   UNL     1     -34.352  26.668   4.905  0.00  0.00    +0.043 C 
ATOM      6  C   UNL     1     -34.943  25.666   5.675  0.00  0.00    +0.014 C 
ENDROOT
BRANCH   2   9
ATOM      7  O   UNL     1     -37.321  27.405   1.714  0.00  0.00    -0.126 OA
ATOM      8  O   UNL     1     -35.932  25.938   0.847  0.00  0.00    -0.126 OA
ATOM      9  N   UNL     1     -36.421  26.542   1.830  0.00  0.00    +0.057 N 
ENDBRANCH   2   9
BRANCH   5  10
ATOM     10  N   UNL     1     -33.254  27.394   5.414  0.00  0.00    -0.357 N 
ATOM     11  H   UNL     1     -33.216  28.370   5.301  0.00  0.00    +0.142 HD
ATOM     12  H   UNL     1     -32.527  26.922   5.882  0.00  0.00    +0.142 HD
ENDBRANCH   5  10
BRANCH   1  13
ATOM     13  C   UNL     1     -37.689  24.447   3.392  0.00  0.00    -0.052 C 
BRANCH  13  14
ATOM     14  N   UNL     1     -37.503  23.015   3.585  0.00  0.00    +0.392 N 
ATOM     15  H   UNL     1     -38.367  22.531   3.344  0.00  0.00    -0.083 HD
ATOM     16  H   UNL     1     -37.260  22.848   4.562  0.00  0.00    -0.083 HD
BRANCH  14  17
ATOM     17  C   UNL     1     -36.423  22.512   2.747  0.00  0.00    +0.007 C 
BRANCH  17  20
ATOM     18  O   UNL     1     -35.233  20.422   2.925  0.00  0.00    -0.276 OA
ATOM     19  N   UNL     1     -35.715  21.611   4.862  0.00  0.00    -0.255 N 
ATOM     20  C   UNL     1     -35.718  21.399   3.494  0.00  0.00    +0.214 C 
ATOM     21  H   UNL     1     -36.124  22.421   5.242  0.00  0.00    +0.169 HD
BRANCH  19  22
ATOM     22  N   UNL     1     -35.129  20.669   5.684  0.00  0.00    -0.254 NA
ATOM     23  H   UNL     1     -35.830  20.292   6.321  0.00  0.00    +0.140 HD
ATOM     24  H   UNL     1     -34.380  21.106   6.221  0.00  0.00    +0.140 HD
ENDBRANCH  19  22
ENDBRANCH  17  20
ENDBRANCH  14  17
ENDBRANCH  13  14
ENDBRANCH   1  13
TORSDOF 7
ENDMDL
MODEL 5
REMARK VINA RESULT:      -5.1      2.669      3.693
REMARK  Name = 195625
REMARK  7 active torsions:
REMARK  status: ('A' for Active; 'I' for Inactive)
REMARK    1  A    between atoms: C_1  and  C_13
REMARK    2  A    between atoms: C_2  and  N_9
REMARK    3  A    between atoms: C_5  and  N_10
REMARK    4  A    between atoms: C_13  and  N_14
REMARK    5  A    between atoms: N_14  and  C_17
REMARK    6  A    between atoms: C_17  and  C_20
REMARK    7  A    between atoms: N_19  and  N_22
REMARK                            x       y       z     vdW  Elec       q    Type
REMARK                         _______ _______ _______ _____ _____    ______ ____
ROOT
ATOM      1  C   UNL     1     -36.349  24.601   3.804  0.00  0.00    -0.021 C 
ATOM      2  C   UNL     1     -35.551  24.000   4.769  0.00  0.00    +0.138 C 
ATOM      3  C   UNL     1     -36.199  25.948   3.495  0.00  0.00    -0.003 C 
ATOM      4  C   UNL     1     -34.589  24.757   5.437  0.00  0.00    +0.038 C 
ATOM      5  C   UNL     1     -34.432  26.110   5.134  0.00  0.00    +0.043 C 
ATOM      6  C   UNL     1     -35.237  26.705   4.164  0.00  0.00    +0.014 C 
ENDROOT
BRANCH   2   9
ATOM      7  O   UNL     1     -35.406  21.768   4.225  0.00  0.00    -0.126 OA
ATOM      8  O   UNL     1     -36.103  22.315   6.238  0.00  0.00    -0.126 OA
ATOM      9  N   UNL     1     -35.695  22.623   5.093  0.00  0.00    +0.057 N 
ENDBRANCH   2   9
BRANCH   5  10
ATOM     10  N   UNL     1     -33.457  26.875   5.809  0.00  0.00    -0.357 N 
ATOM     11  H   UNL     1     -33.564  27.851   5.886  0.00  0.00    +0.142 HD
ATOM     12  H   UNL     1     -32.671  26.434   6.204  0.00  0.00    +0.142 HD
ENDBRANCH   5  10
BRANCH   1  13
ATOM     13  C   UNL     1     -37.397  23.814   3.064  0.00  0.00    -0.052 C 
BRANCH  13  14
ATOM     14  N   UNL     1     -38.738  24.096   3.558  0.00  0.00    +0.392 N 
ATOM     15  H   UNL     1     -38.691  24.859   4.233  0.00  0.00    -0.083 HD
ATOM     16  H   UNL     1     -39.108  23.252   3.996  0.00  0.00    -0.083 HD
BRANCH  14  17
ATOM     17  C   UNL     1     -39.625  24.478   2.468  0.00  0.00    +0.007 C 
BRANCH  17  20
ATOM     18  O   UNL     1     -39.638  26.834   1.951  0.00  0.00    -0.276 OA
ATOM     19  N   UNL     1     -40.880  26.072   3.760  0.00  0.00    -0.255 N 
ATOM     20  C   UNL     1     -40.038  25.921   2.671  0.00  0.00    +0.214 C 
ATOM     21  H   UNL     1     -41.157  25.290   4.289  0.00  0.00    +0.169 HD
BRANCH  19  22
ATOM     22  N   UNL     1     -41.326  27.336   4.092  0.00  0.00    -0.254 NA
ATOM     23  H   UNL     1     -42.270  27.468   3.730  0.00  0.00    +0.140 HD
ATOM     24  H   UNL     1     -40.703  28.033   3.683  0.00  0.00    +0.140 HD
ENDBRANCH  19  22
ENDBRANCH  17  20
ENDBRANCH  14  17
ENDBRANCH  13  14
ENDBRANCH   1  13
TORSDOF 7
ENDMDL
MODEL 6
REMARK VINA RESULT:      -5.1      1.752      2.168
REMARK  Name = 195625
REMARK  7 active torsions:
REMARK  status: ('A' for Active; 'I' for Inactive)
REMARK    1  A    between atoms: C_1  and  C_13
REMARK    2  A    between atoms: C_2  and  N_9
REMARK    3  A    between atoms: C_5  and  N_10
REMARK    4  A    between atoms: C_13  and  N_14
REMARK    5  A    between atoms: N_14  and  C_17
REMARK    6  A    between atoms: C_17  and  C_20
REMARK    7  A    between atoms: N_19  and  N_22
REMARK                            x       y       z     vdW  Elec       q    Type
REMARK                         _______ _______ _______ _____ _____    ______ ____
ROOT
ATOM      1  C   UNL     1     -34.798  24.336   3.249  0.00  0.00    -0.021 C 
ATOM      2  C   UNL     1     -34.744  24.777   4.565  0.00  0.00    +0.138 C 
ATOM      3  C   UNL     1     -35.230  23.050   2.948  0.00  0.00    -0.003 C 
ATOM      4  C   UNL     1     -35.127  23.920   5.596  0.00  0.00    +0.038 C 
ATOM      5  C   UNL     1     -35.561  22.627   5.303  0.00  0.00    +0.043 C 
ATOM      6  C   UNL     1     -35.613  22.192   3.979  0.00  0.00    +0.014 C 
ENDROOT
BRANCH   2   9
ATOM      7  O   UNL     1     -35.126  27.033   4.822  0.00  0.00    -0.126 OA
ATOM      8  O   UNL     1     -33.107  26.257   5.225  0.00  0.00    -0.126 OA
ATOM      9  N   UNL     1     -34.303  26.090   4.887  0.00  0.00    +0.057 N 
ENDBRANCH   2   9
BRANCH   5  10
ATOM     10  N   UNL     1     -35.950  21.759   6.346  0.00  0.00    -0.357 N 
ATOM     11  H   UNL     1     -36.278  22.129   7.197  0.00  0.00    +0.142 HD
ATOM     12  H   UNL     1     -35.893  20.784   6.221  0.00  0.00    +0.142 HD
ENDBRANCH   5  10
BRANCH   1  13
ATOM     13  C   UNL     1     -34.392  25.236   2.113  0.00  0.00    -0.052 C 
BRANCH  13  14
ATOM     14  N   UNL     1     -35.485  26.099   1.687  0.00  0.00    +0.392 N 
ATOM     15  H   UNL     1     -35.906  26.535   2.508  0.00  0.00    -0.083 HD
ATOM     16  H   UNL     1     -36.174  25.532   1.191  0.00  0.00    -0.083 HD
BRANCH  14  17
ATOM     17  C   UNL     1     -35.007  27.140   0.787  0.00  0.00    +0.007 C 
BRANCH  17  20
ATOM     18  O   UNL     1     -33.420  28.804   1.512  0.00  0.00    -0.276 OA
ATOM     19  N   UNL     1     -35.516  28.738   2.511  0.00  0.00    -0.255 N 
ATOM     20  C   UNL     1     -34.544  28.317   1.620  0.00  0.00    +0.214 C 
ATOM     21  H   UNL     1     -36.395  28.296   2.537  0.00  0.00    +0.169 HD
BRANCH  19  22
ATOM     22  N   UNL     1     -35.235  29.790   3.360  0.00  0.00    -0.254 NA
ATOM     23  H   UNL     1     -36.002  30.462   3.333  0.00  0.00    +0.140 HD
ATOM     24  H   UNL     1     -34.372  30.244   3.064  0.00  0.00    +0.140 HD
ENDBRANCH  19  22
ENDBRANCH  17  20
ENDBRANCH  14  17
ENDBRANCH  13  14
ENDBRANCH   1  13
TORSDOF 7
ENDMDL
MODEL 7
REMARK VINA RESULT:      -5.1      2.282      4.187
REMARK  Name = 195625
REMARK  7 active torsions:
REMARK  status: ('A' for Active; 'I' for Inactive)
REMARK    1  A    between atoms: C_1  and  C_13
REMARK    2  A    between atoms: C_2  and  N_9
REMARK    3  A    between atoms: C_5  and  N_10
REMARK    4  A    between atoms: C_13  and  N_14
REMARK    5  A    between atoms: N_14  and  C_17
REMARK    6  A    between atoms: C_17  and  C_20
REMARK    7  A    between atoms: N_19  and  N_22
REMARK                            x       y       z     vdW  Elec       q    Type
REMARK                         _______ _______ _______ _____ _____    ______ ____
ROOT
ATOM      1  C   UNL     1     -35.794  24.773   4.103  0.00  0.00    -0.021 C 
ATOM      2  C   UNL     1     -36.025  23.653   3.314  0.00  0.00    +0.138 C 
ATOM      3  C   UNL     1     -35.391  24.639   5.426  0.00  0.00    -0.003 C 
ATOM      4  C   UNL     1     -35.852  22.380   3.856  0.00  0.00    +0.038 C 
ATOM      5  C   UNL     1     -35.448  22.236   5.183  0.00  0.00    +0.043 C 
ATOM      6  C   UNL     1     -35.217  23.365   5.969  0.00  0.00    +0.014 C 
ENDROOT
BRANCH   2   9
ATOM      7  O   UNL     1     -37.664  23.836   1.708  0.00  0.00    -0.126 OA
ATOM      8  O   UNL     1     -35.561  23.824   1.065  0.00  0.00    -0.126 OA
ATOM      9  N   UNL     1     -36.439  23.777   1.959  0.00  0.00    +0.057 N 
ENDBRANCH   2   9
BRANCH   5  10
ATOM     10  N   UNL     1     -35.272  20.948   5.732  0.00  0.00    -0.357 N 
ATOM     11  H   UNL     1     -34.480  20.752   6.282  0.00  0.00    +0.142 HD
ATOM     12  H   UNL     1     -35.941  20.246   5.564  0.00  0.00    +0.142 HD
ENDBRANCH   5  10
BRANCH   1  13
ATOM     13  C   UNL     1     -35.971  26.162   3.549  0.00  0.00    -0.052 C 
BRANCH  13  14
ATOM     14  N   UNL     1     -35.222  27.150   4.313  0.00  0.00    +0.392 N 
ATOM     15  H   UNL     1     -34.911  26.730   5.189  0.00  0.00    -0.083 HD
ATOM     16  H   UNL     1     -35.831  27.949   4.497  0.00  0.00    -0.083 HD
BRANCH  14  17
ATOM     17  C   UNL     1     -34.061  27.615   3.567  0.00  0.00    +0.007 C 
BRANCH  17  20
ATOM     18  O   UNL     1     -31.695  27.433   3.998  0.00  0.00    -0.276 OA
ATOM     19  N   UNL     1     -33.172  27.372   5.789  0.00  0.00    -0.255 N 
ATOM     20  C   UNL     1     -32.838  27.474   4.450  0.00  0.00    +0.214 C 
ATOM     21  H   UNL     1     -34.113  27.414   6.073  0.00  0.00    +0.169 HD
BRANCH  19  22
ATOM     22  N   UNL     1     -32.165  27.212   6.720  0.00  0.00    -0.254 NA
ATOM     23  H   UNL     1     -31.267  27.432   6.290  0.00  0.00    +0.140 HD
ATOM     24  H   UNL     1     -32.159  26.247   7.051  0.00  0.00    +0.140 HD
ENDBRANCH  19  22
ENDBRANCH  17  20
ENDBRANCH  14  17
ENDBRANCH  13  14
ENDBRANCH   1  13
TORSDOF 7
ENDMDL
MODEL 8
REMARK VINA RESULT:      -5.0      2.568      4.162
REMARK  Name = 195625
REMARK  7 active torsions:
REMARK  status: ('A' for Active; 'I' for Inactive)
REMARK    1  A    between atoms: C_1  and  C_13
REMARK    2  A    between atoms: C_2  and  N_9
REMARK    3  A    between atoms: C_5  and  N_10
REMARK    4  A    between atoms: C_13  and  N_14
REMARK    5  A    between atoms: N_14  and  C_17
REMARK    6  A    between atoms: C_17  and  C_20
REMARK    7  A    between atoms: N_19  and  N_22
REMARK                            x       y       z     vdW  Elec       q    Type
REMARK                         _______ _______ _______ _____ _____    ______ ____
ROOT
ATOM      1  C   UNL     1     -36.044  22.602   3.777  0.00  0.00    -0.021 C 
ATOM      2  C   UNL     1     -37.099  23.076   3.007  0.00  0.00    +0.138 C 
ATOM      3  C   UNL     1     -35.501  21.344   3.541  0.00  0.00    -0.003 C 
ATOM      4  C   UNL     1     -37.619  22.281   1.986  0.00  0.00    +0.038 C 
ATOM      5  C   UNL     1     -37.080  21.018   1.742  0.00  0.00    +0.043 C 
ATOM      6  C   UNL     1     -36.022  20.549   2.520  0.00  0.00    +0.014 C 
ENDROOT
BRANCH   2   9
ATOM      7  O   UNL     1     -38.787  24.432   3.790  0.00  0.00    -0.126 OA
ATOM      8  O   UNL     1     -37.017  25.373   2.885  0.00  0.00    -0.126 OA
ATOM      9  N   UNL     1     -37.664  24.360   3.239  0.00  0.00    +0.057 N 
ENDBRANCH   2   9
BRANCH   5  10
ATOM     10  N   UNL     1     -37.606  20.214   0.709  0.00  0.00    -0.357 N 
ATOM     11  H   UNL     1     -37.674  19.239   0.829  0.00  0.00    +0.142 HD
ATOM     12  H   UNL     1     -37.905  20.628  -0.133  0.00  0.00    +0.142 HD
ENDBRANCH   5  10
BRANCH   1  13
ATOM     13  C   UNL     1     -35.459  23.433   4.887  0.00  0.00    -0.052 C 
BRANCH  13  14
ATOM     14  N   UNL     1     -34.412  24.324   4.404  0.00  0.00    +0.392 N 
ATOM     15  H   UNL     1     -34.696  24.716   3.506  0.00  0.00    -0.083 HD
ATOM     16  H   UNL     1     -33.550  23.787   4.303  0.00  0.00    -0.083 HD
BRANCH  14  17
ATOM     17  C   UNL     1     -34.175  25.409   5.345  0.00  0.00    +0.007 C 
BRANCH  17  20
ATOM     18  O   UNL     1     -32.806  27.113   4.326  0.00  0.00    -0.276 OA
ATOM     19  N   UNL     1     -35.118  27.285   4.171  0.00  0.00    -0.255 N 
ATOM     20  C   UNL     1     -33.934  26.680   4.558  0.00  0.00    +0.214 C 
ATOM     21  H   UNL     1     -35.984  26.875   4.396  0.00  0.00    +0.169 HD
BRANCH  19  22
ATOM     22  N   UNL     1     -35.065  28.470   3.465  0.00  0.00    -0.254 NA
ATOM     23  H   UNL     1     -35.991  28.687   3.097  0.00  0.00    +0.140 HD
ATOM     24  H   UNL     1     -34.404  28.376   2.694  0.00  0.00    +0.140 HD
ENDBRANCH  19  22
ENDBRANCH  17  20
ENDBRANCH  14  17
ENDBRANCH  13  14
ENDBRANCH   1  13
TORSDOF 7
ENDMDL
MODEL 9
REMARK VINA RESULT:      -4.8      3.202      4.288
REMARK  Name = 195625
REMARK  7 active torsions:
REMARK  status: ('A' for Active; 'I' for Inactive)
REMARK    1  A    between atoms: C_1  and  C_13
REMARK    2  A    between atoms: C_2  and  N_9
REMARK    3  A    between atoms: C_5  and  N_10
REMARK    4  A    between atoms: C_13  and  N_14
REMARK    5  A    between atoms: N_14  and  C_17
REMARK    6  A    between atoms: C_17  and  C_20
REMARK    7  A    between atoms: N_19  and  N_22
REMARK                            x       y       z     vdW  Elec       q    Type
REMARK                         _______ _______ _______ _____ _____    ______ ____
ROOT
ATOM      1  C   UNL     1     -36.469  23.311   3.709  0.00  0.00    -0.021 C 
ATOM      2  C   UNL     1     -37.043  24.574   3.770  0.00  0.00    +0.138 C 
ATOM      3  C   UNL     1     -35.253  23.052   4.329  0.00  0.00    -0.003 C 
ATOM      4  C   UNL     1     -36.390  25.595   4.461  0.00  0.00    +0.038 C 
ATOM      5  C   UNL     1     -35.169  25.344   5.085  0.00  0.00    +0.043 C 
ATOM      6  C   UNL     1     -34.600  24.073   5.020  0.00  0.00    +0.014 C 
ENDROOT
BRANCH   2   9
ATOM      7  O   UNL     1     -38.280  25.353   1.992  0.00  0.00    -0.126 OA
ATOM      8  O   UNL     1     -39.345  24.584   3.756  0.00  0.00    -0.126 OA
ATOM      9  N   UNL     1     -38.287  24.852   3.140  0.00  0.00    +0.057 N 
ENDBRANCH   2   9
BRANCH   5  10
ATOM     10  N   UNL     1     -34.508  26.377   5.785  0.00  0.00    -0.357 N 
ATOM     11  H   UNL     1     -34.684  27.318   5.554  0.00  0.00    +0.142 HD
ATOM     12  H   UNL     1     -33.873  26.156   6.504  0.00  0.00    +0.142 HD
ENDBRANCH   5  10
BRANCH   1  13
ATOM     13  C   UNL     1     -37.147  22.186   2.973  0.00  0.00    -0.052 C 
BRANCH  13  14
ATOM     14  N   UNL     1     -37.164  22.412   1.534  0.00  0.00    +0.392 N 
ATOM     15  H   UNL     1     -36.234  22.227   1.157  0.00  0.00    -0.083 HD
ATOM     16  H   UNL     1     -37.434  23.381   1.359  0.00  0.00    -0.083 HD
BRANCH  14  17
ATOM     17  C   UNL     1     -38.127  21.537   0.880  0.00  0.00    +0.007 C 
BRANCH  17  20
ATOM     18  O   UNL     1     -40.262  21.198   1.949  0.00  0.00    -0.276 OA
ATOM     19  N   UNL     1     -39.838  23.227   0.900  0.00  0.00    -0.255 N 
ATOM     20  C   UNL     1     -39.518  21.947   1.317  0.00  0.00    +0.214 C 
ATOM     21  H   UNL     1     -39.186  23.766   0.397  0.00  0.00    +0.169 HD
BRANCH  19  22
ATOM     22  N   UNL     1     -41.085  23.737   1.200  0.00  0.00    -0.254 NA
ATOM     23  H   UNL     1     -41.298  23.558   2.181  0.00  0.00    +0.140 HD
ATOM     24  H   UNL     1     -41.786  23.288   0.611  0.00  0.00    +0.140 HD
ENDBRANCH  19  22
ENDBRANCH  17  20
ENDBRANCH  14  17
ENDBRANCH  13  14
ENDBRANCH   1  13
TORSDOF 7
ENDMDL
