MODEL 1
REMARK VINA RESULT:      -6.3      0.000      0.000
REMARK  Name = 5467645
REMARK  4 active torsions:
REMARK  status: ('A' for Active; 'I' for Inactive)
REMARK    1  A    between atoms: C_7  and  C_21
REMARK    2  A    between atoms: C_8  and  C_25
REMARK    3  A    between atoms: C_21  and  C_23
REMARK    4  A    between atoms: C_25  and  C_27
REMARK                            x       y       z     vdW  Elec       q    Type
REMARK                         _______ _______ _______ _____ _____    ______ ____
ROOT
ATOM      1  O   UNL     1     -34.417  28.190   3.582  0.00  0.00    -0.449 OA
ATOM      2  O   UNL     1     -36.029  23.216   2.662  0.00  0.00    -0.449 OA
ATOM      3  O   UNL     1     -36.981  27.889   1.444  0.00  0.00    -0.291 OA
ATOM      4  O   UNL     1     -36.230  24.215   5.853  0.00  0.00    -0.291 OA
ATOM      5  O   UNL     1     -32.450  27.101   4.122  0.00  0.00    -0.245 OA
ATOM      6  O   UNL     1     -34.641  23.445   0.824  0.00  0.00    -0.245 OA
ATOM      7  C   UNL     1     -33.729  29.236   2.867  0.00  0.00    +0.177 C 
ATOM      8  C   UNL     1     -35.567  21.876   2.937  0.00  0.00    +0.177 C 
ATOM      9  C   UNL     1     -34.641  29.743   1.736  0.00  0.00    +0.052 C 
ATOM     10  C   UNL     1     -35.662  21.625   4.451  0.00  0.00    +0.052 C 
ATOM     11  C   UNL     1     -34.870  28.701   0.636  0.00  0.00    +0.073 C 
ATOM     12  C   UNL     1     -34.682  22.475   5.266  0.00  0.00    +0.073 C 
ATOM     13  C   UNL     1     -35.849  27.618   1.047  0.00  0.00    +0.173 C 
ATOM     14  C   UNL     1     -35.127  23.920   5.397  0.00  0.00    +0.173 C 
ATOM     15  C   UNL     1     -33.666  27.196   4.125  0.00  0.00    +0.341 C 
ATOM     16  C   UNL     1     -35.470  23.874   1.611  0.00  0.00    +0.341 C 
ATOM     17  C   UNL     1     -35.366  26.211   0.956  0.00  0.00    +0.044 C 
ATOM     18  C   UNL     1     -34.164  24.960   4.935  0.00  0.00    +0.044 C 
ATOM     19  C   UNL     1     -34.601  26.201   4.694  0.00  0.00    +0.085 C 
ATOM     20  C   UNL     1     -36.020  25.246   1.612  0.00  0.00    +0.085 C 
ENDROOT
BRANCH   7  21
ATOM     21  C   UNL     1     -33.413  30.358   3.851  0.00  0.00    +0.108 C 
BRANCH  21  23
ATOM     22  O   UNL     1     -31.033  30.309   3.436  0.00  0.00    -0.296 OA
ATOM     23  C   UNL     1     -31.953  30.384   4.249  0.00  0.00    +0.155 C 
ATOM     24  C   UNL     1     -31.675  30.506   5.725  0.00  0.00    +0.072 C 
ENDBRANCH  21  23
ENDBRANCH   7  21
BRANCH   8  25
ATOM     25  C   UNL     1     -36.449  20.899   2.168  0.00  0.00    +0.108 C 
BRANCH  25  27
ATOM     26  O   UNL     1     -36.118  19.362   0.333  0.00  0.00    -0.296 OA
ATOM     27  C   UNL     1     -35.645  19.952   1.303  0.00  0.00    +0.155 C 
ATOM     28  C   UNL     1     -34.203  19.764   1.698  0.00  0.00    +0.072 C 
ENDBRANCH  25  27
ENDBRANCH   8  25
TORSDOF 4
ENDMDL
MODEL 2
REMARK VINA RESULT:      -6.3      0.111      7.980
REMARK  Name = 5467645
REMARK  4 active torsions:
REMARK  status: ('A' for Active; 'I' for Inactive)
REMARK    1  A    between atoms: C_7  and  C_21
REMARK    2  A    between atoms: C_8  and  C_25
REMARK    3  A    between atoms: C_21  and  C_23
REMARK    4  A    between atoms: C_25  and  C_27
REMARK                            x       y       z     vdW  Elec       q    Type
REMARK                         _______ _______ _______ _____ _____    ______ ____
ROOT
ATOM      1  O   UNL     1     -35.963  23.138   2.715  0.00  0.00    -0.449 OA
ATOM      2  O   UNL     1     -34.448  28.155   3.569  0.00  0.00    -0.449 OA
ATOM      3  O   UNL     1     -36.224  24.191   5.886  0.00  0.00    -0.291 OA
ATOM      4  O   UNL     1     -36.975  27.776   1.404  0.00  0.00    -0.291 OA
ATOM      5  O   UNL     1     -34.541  23.366   0.905  0.00  0.00    -0.245 OA
ATOM      6  O   UNL     1     -32.468  27.118   4.171  0.00  0.00    -0.245 OA
ATOM      7  C   UNL     1     -35.482  21.814   3.020  0.00  0.00    +0.177 C 
ATOM      8  C   UNL     1     -33.766  29.201   2.846  0.00  0.00    +0.177 C 
ATOM      9  C   UNL     1     -35.593  21.587   4.538  0.00  0.00    +0.052 C 
ATOM     10  C   UNL     1     -34.671  29.672   1.695  0.00  0.00    +0.052 C 
ATOM     11  C   UNL     1     -34.638  22.469   5.349  0.00  0.00    +0.073 C 
ATOM     12  C   UNL     1     -34.868  28.610   0.609  0.00  0.00    +0.073 C 
ATOM     13  C   UNL     1     -35.110  23.907   5.450  0.00  0.00    +0.173 C 
ATOM     14  C   UNL     1     -35.834  27.516   1.027  0.00  0.00    +0.173 C 
ATOM     15  C   UNL     1     -35.395  23.791   1.666  0.00  0.00    +0.341 C 
ATOM     16  C   UNL     1     -33.687  27.187   4.147  0.00  0.00    +0.341 C 
ATOM     17  C   UNL     1     -34.158  24.956   4.985  0.00  0.00    +0.044 C 
ATOM     18  C   UNL     1     -35.325  26.117   0.968  0.00  0.00    +0.044 C 
ATOM     19  C   UNL     1     -35.971  25.153   1.632  0.00  0.00    +0.085 C 
ATOM     20  C   UNL     1     -34.613  26.186   4.717  0.00  0.00    +0.085 C 
ENDROOT
BRANCH   7  21
ATOM     21  C   UNL     1     -36.340  20.808   2.259  0.00  0.00    +0.108 C 
BRANCH  21  23
ATOM     22  O   UNL     1     -35.980  19.553   0.226  0.00  0.00    -0.296 OA
ATOM     23  C   UNL     1     -35.529  19.976   1.288  0.00  0.00    +0.155 C 
ATOM     24  C   UNL     1     -34.108  19.684   1.698  0.00  0.00    +0.072 C 
ENDBRANCH  21  23
ENDBRANCH   7  21
BRANCH   8  25
ATOM     25  C   UNL     1     -33.481  30.344   3.814  0.00  0.00    +0.108 C 
BRANCH  25  27
ATOM     26  O   UNL     1     -31.103  30.441   3.389  0.00  0.00    -0.296 OA
ATOM     27  C   UNL     1     -32.020  30.416   4.208  0.00  0.00    +0.155 C 
ATOM     28  C   UNL     1     -31.740  30.455   5.688  0.00  0.00    +0.072 C 
ENDBRANCH  25  27
ENDBRANCH   8  25
TORSDOF 4
ENDMDL
MODEL 3
REMARK VINA RESULT:      -5.8      2.546      4.457
REMARK  Name = 5467645
REMARK  4 active torsions:
REMARK  status: ('A' for Active; 'I' for Inactive)
REMARK    1  A    between atoms: C_7  and  C_21
REMARK    2  A    between atoms: C_8  and  C_25
REMARK    3  A    between atoms: C_21  and  C_23
REMARK    4  A    between atoms: C_25  and  C_27
REMARK                            x       y       z     vdW  Elec       q    Type
REMARK                         _______ _______ _______ _____ _____    ______ ____
ROOT
ATOM      1  O   UNL     1     -33.696  25.684   3.405  0.00  0.00    -0.449 OA
ATOM      2  O   UNL     1     -37.184  22.218   1.402  0.00  0.00    -0.449 OA
ATOM      3  O   UNL     1     -34.910  23.452   5.590  0.00  0.00    -0.291 OA
ATOM      4  O   UNL     1     -34.141  22.151   0.003  0.00  0.00    -0.291 OA
ATOM      5  O   UNL     1     -34.418  26.944   1.605  0.00  0.00    -0.245 OA
ATOM      6  O   UNL     1     -38.703  23.742   2.252  0.00  0.00    -0.245 OA
ATOM      7  C   UNL     1     -33.712  26.815   4.299  0.00  0.00    +0.177 C 
ATOM      8  C   UNL     1     -37.931  22.041   0.180  0.00  0.00    +0.177 C 
ATOM      9  C   UNL     1     -34.029  26.316   5.719  0.00  0.00    +0.052 C 
ATOM     10  C   UNL     1     -36.948  21.704  -0.953  0.00  0.00    +0.052 C 
ATOM     11  C   UNL     1     -35.456  25.775   5.862  0.00  0.00    +0.073 C 
ATOM     12  C   UNL     1     -36.019  22.868  -1.312  0.00  0.00    +0.073 C 
ATOM     13  C   UNL     1     -35.624  24.395   5.255  0.00  0.00    +0.173 C 
ATOM     14  C   UNL     1     -34.907  23.065  -0.298  0.00  0.00    +0.173 C 
ATOM     15  C   UNL     1     -34.089  25.888   2.119  0.00  0.00    +0.341 C 
ATOM     16  C   UNL     1     -37.667  23.101   2.317  0.00  0.00    +0.341 C 
ATOM     17  C   UNL     1     -36.691  24.245   4.225  0.00  0.00    +0.044 C 
ATOM     18  C   UNL     1     -34.800  24.416   0.321  0.00  0.00    +0.044 C 
ATOM     19  C   UNL     1     -34.095  24.571   1.447  0.00  0.00    +0.085 C 
ATOM     20  C   UNL     1     -36.675  23.184   3.409  0.00  0.00    +0.085 C 
ENDROOT
BRANCH   7  21
ATOM     21  C   UNL     1     -32.340  27.479   4.253  0.00  0.00    +0.108 C 
BRANCH  21  23
ATOM     22  O   UNL     1     -32.869  29.807   4.624  0.00  0.00    -0.296 OA
ATOM     23  C   UNL     1     -32.305  28.787   5.015  0.00  0.00    +0.155 C 
ATOM     24  C   UNL     1     -31.526  28.776   6.305  0.00  0.00    +0.072 C 
ENDBRANCH  21  23
ENDBRANCH   7  21
BRANCH   8  25
ATOM     25  C   UNL     1     -38.929  20.907   0.389  0.00  0.00    +0.108 C 
BRANCH  25  27
ATOM     26  O   UNL     1     -41.330  20.632   0.372  0.00  0.00    -0.296 OA
ATOM     27  C   UNL     1     -40.354  21.331   0.103  0.00  0.00    +0.155 C 
ATOM     28  C   UNL     1     -40.521  22.682  -0.544  0.00  0.00    +0.072 C 
ENDBRANCH  25  27
ENDBRANCH   8  25
TORSDOF 4
ENDMDL
MODEL 4
REMARK VINA RESULT:      -5.8      2.637      5.330
REMARK  Name = 5467645
REMARK  4 active torsions:
REMARK  status: ('A' for Active; 'I' for Inactive)
REMARK    1  A    between atoms: C_7  and  C_21
REMARK    2  A    between atoms: C_8  and  C_25
REMARK    3  A    between atoms: C_21  and  C_23
REMARK    4  A    between atoms: C_25  and  C_27
REMARK                            x       y       z     vdW  Elec       q    Type
REMARK                         _______ _______ _______ _____ _____    ______ ____
ROOT
ATOM      1  O   UNL     1     -32.255  31.167   2.402  0.00  0.00    -0.449 OA
ATOM      2  O   UNL     1     -33.665  26.154   3.435  0.00  0.00    -0.449 OA
ATOM      3  O   UNL     1     -29.899  29.294   3.875  0.00  0.00    -0.291 OA
ATOM      4  O   UNL     1     -33.754  27.025   0.202  0.00  0.00    -0.291 OA
ATOM      5  O   UNL     1     -34.546  31.477   2.475  0.00  0.00    -0.245 OA
ATOM      6  O   UNL     1     -34.127  27.049   5.518  0.00  0.00    -0.245 OA
ATOM      7  C   UNL     1     -31.994  32.375   3.146  0.00  0.00    +0.177 C 
ATOM      8  C   UNL     1     -34.871  25.361   3.425  0.00  0.00    +0.177 C 
ATOM      9  C   UNL     1     -30.703  32.181   3.961  0.00  0.00    +0.052 C 
ATOM     10  C   UNL     1     -35.335  25.190   1.970  0.00  0.00    +0.052 C 
ATOM     11  C   UNL     1     -30.848  31.143   5.079  0.00  0.00    +0.073 C 
ATOM     12  C   UNL     1     -35.808  26.498   1.329  0.00  0.00    +0.073 C 
ATOM     13  C   UNL     1     -30.827  29.717   4.561  0.00  0.00    +0.173 C 
ATOM     14  C   UNL     1     -34.658  27.410   0.940  0.00  0.00    +0.173 C 
ATOM     15  C   UNL     1     -33.553  30.838   2.167  0.00  0.00    +0.341 C 
ATOM     16  C   UNL     1     -33.442  26.953   4.512  0.00  0.00    +0.341 C 
ATOM     17  C   UNL     1     -31.994  28.861   4.918  0.00  0.00    +0.044 C 
ATOM     18  C   UNL     1     -34.678  28.788   1.506  0.00  0.00    +0.044 C 
ATOM     19  C   UNL     1     -33.558  29.519   1.499  0.00  0.00    +0.085 C 
ATOM     20  C   UNL     1     -32.220  27.735   4.230  0.00  0.00    +0.085 C 
ENDROOT
BRANCH   7  21
ATOM     21  C   UNL     1     -31.840  33.522   2.153  0.00  0.00    +0.108 C 
BRANCH  21  23
ATOM     22  O   UNL     1     -31.916  35.508   3.528  0.00  0.00    -0.296 OA
ATOM     23  C   UNL     1     -32.445  34.813   2.663  0.00  0.00    +0.155 C 
ATOM     24  C   UNL     1     -33.760  35.213   2.044  0.00  0.00    +0.072 C 
ENDBRANCH  21  23
ENDBRANCH   7  21
BRANCH   8  25
ATOM     25  C   UNL     1     -34.559  24.009   4.058  0.00  0.00    +0.108 C 
BRANCH  25  27
ATOM     26  O   UNL     1     -36.413  24.414   5.554  0.00  0.00    -0.296 OA
ATOM     27  C   UNL     1     -35.488  23.681   5.207  0.00  0.00    +0.155 C 
ATOM     28  C   UNL     1     -35.218  22.382   5.922  0.00  0.00    +0.072 C 
ENDBRANCH  25  27
ENDBRANCH   8  25
TORSDOF 4
ENDMDL
MODEL 5
REMARK VINA RESULT:      -5.7      2.344      3.039
REMARK  Name = 5467645
REMARK  4 active torsions:
REMARK  status: ('A' for Active; 'I' for Inactive)
REMARK    1  A    between atoms: C_7  and  C_21
REMARK    2  A    between atoms: C_8  and  C_25
REMARK    3  A    between atoms: C_21  and  C_23
REMARK    4  A    between atoms: C_25  and  C_27
REMARK                            x       y       z     vdW  Elec       q    Type
REMARK                         _______ _______ _______ _____ _____    ______ ____
ROOT
ATOM      1  O   UNL     1     -32.853  29.160   4.771  0.00  0.00    -0.449 OA
ATOM      2  O   UNL     1     -36.322  25.748   2.646  0.00  0.00    -0.449 OA
ATOM      3  O   UNL     1     -35.573  30.555   3.397  0.00  0.00    -0.291 OA
ATOM      4  O   UNL     1     -35.752  25.350   5.922  0.00  0.00    -0.291 OA
ATOM      5  O   UNL     1     -31.394  27.409   4.377  0.00  0.00    -0.245 OA
ATOM      6  O   UNL     1     -35.177  26.287   0.708  0.00  0.00    -0.245 OA
ATOM      7  C   UNL     1     -31.909  30.148   4.307  0.00  0.00    +0.177 C 
ATOM      8  C   UNL     1     -36.371  24.345   2.315  0.00  0.00    +0.177 C 
ATOM      9  C   UNL     1     -32.689  31.324   3.695  0.00  0.00    +0.052 C 
ATOM     10  C   UNL     1     -36.375  23.532   3.620  0.00  0.00    +0.052 C 
ATOM     11  C   UNL     1     -33.423  30.952   2.402  0.00  0.00    +0.073 C 
ATOM     12  C   UNL     1     -35.057  23.631   4.396  0.00  0.00    +0.073 C 
ATOM     13  C   UNL     1     -34.683  30.146   2.654  0.00  0.00    +0.173 C 
ATOM     14  C   UNL     1     -34.904  24.954   5.125  0.00  0.00    +0.173 C 
ATOM     15  C   UNL     1     -32.475  27.855   4.726  0.00  0.00    +0.341 C 
ATOM     16  C   UNL     1     -35.684  26.580   1.779  0.00  0.00    +0.341 C 
ATOM     17  C   UNL     1     -34.782  28.829   1.964  0.00  0.00    +0.044 C 
ATOM     18  C   UNL     1     -33.682  25.748   4.818  0.00  0.00    +0.044 C 
ATOM     19  C   UNL     1     -33.642  27.046   5.139  0.00  0.00    +0.085 C 
ATOM     20  C   UNL     1     -35.670  27.924   2.393  0.00  0.00    +0.085 C 
ENDROOT
BRANCH   7  21
ATOM     21  C   UNL     1     -31.079  30.611   5.500  0.00  0.00    +0.108 C 
BRANCH  21  23
ATOM     22  O   UNL     1     -28.955  30.397   4.368  0.00  0.00    -0.296 OA
ATOM     23  C   UNL     1     -29.624  30.209   5.382  0.00  0.00    +0.155 C 
ATOM     24  C   UNL     1     -29.023  29.550   6.598  0.00  0.00    +0.072 C 
ENDBRANCH  21  23
ENDBRANCH   7  21
BRANCH   8  25
ATOM     25  C   UNL     1     -37.642  24.087   1.512  0.00  0.00    +0.108 C 
BRANCH  25  27
ATOM     26  O   UNL     1     -39.230  24.319   3.320  0.00  0.00    -0.296 OA
ATOM     27  C   UNL     1     -38.797  23.646   2.385  0.00  0.00    +0.155 C 
ATOM     28  C   UNL     1     -39.405  22.309   2.046  0.00  0.00    +0.072 C 
ENDBRANCH  25  27
ENDBRANCH   8  25
TORSDOF 4
ENDMDL
MODEL 6
REMARK VINA RESULT:      -5.7      3.403      7.220
REMARK  Name = 5467645
REMARK  4 active torsions:
REMARK  status: ('A' for Active; 'I' for Inactive)
REMARK    1  A    between atoms: C_7  and  C_21
REMARK    2  A    between atoms: C_8  and  C_25
REMARK    3  A    between atoms: C_21  and  C_23
REMARK    4  A    between atoms: C_25  and  C_27
REMARK                            x       y       z     vdW  Elec       q    Type
REMARK                         _______ _______ _______ _____ _____    ______ ____
ROOT
ATOM      1  O   UNL     1     -36.569  24.662   4.112  0.00  0.00    -0.449 OA
ATOM      2  O   UNL     1     -38.940  27.939   0.671  0.00  0.00    -0.449 OA
ATOM      3  O   UNL     1     -35.088  27.643   3.722  0.00  0.00    -0.291 OA
ATOM      4  O   UNL     1     -40.822  27.000   3.277  0.00  0.00    -0.291 OA
ATOM      5  O   UNL     1     -37.663  23.070   2.839  0.00  0.00    -0.245 OA
ATOM      6  O   UNL     1     -37.352  27.063  -0.767  0.00  0.00    -0.245 OA
ATOM      7  C   UNL     1     -35.357  23.884   4.179  0.00  0.00    +0.177 C 
ATOM      8  C   UNL     1     -39.985  27.869  -0.321  0.00  0.00    +0.177 C 
ATOM      9  C   UNL     1     -34.159  24.844   4.271  0.00  0.00    +0.052 C 
ATOM     10  C   UNL     1     -41.328  27.652   0.394  0.00  0.00    +0.052 C 
ATOM     11  C   UNL     1     -33.944  25.661   2.992  0.00  0.00    +0.073 C 
ATOM     12  C   UNL     1     -41.438  26.281   1.070  0.00  0.00    +0.073 C 
ATOM     13  C   UNL     1     -34.941  26.794   2.844  0.00  0.00    +0.173 C 
ATOM     14  C   UNL     1     -40.644  26.199   2.361  0.00  0.00    +0.173 C 
ATOM     15  C   UNL     1     -37.610  24.151   3.401  0.00  0.00    +0.341 C 
ATOM     16  C   UNL     1     -37.705  27.486   0.322  0.00  0.00    +0.341 C 
ATOM     17  C   UNL     1     -35.741  26.820   1.587  0.00  0.00    +0.044 C 
ATOM     18  C   UNL     1     -39.634  25.107   2.457  0.00  0.00    +0.044 C 
ATOM     19  C   UNL     1     -38.677  25.176   3.388  0.00  0.00    +0.085 C 
ATOM     20  C   UNL     1     -36.857  27.556   1.531  0.00  0.00    +0.085 C 
ENDROOT
BRANCH   7  21
ATOM     21  C   UNL     1     -35.432  22.991   5.414  0.00  0.00    +0.108 C 
BRANCH  21  23
ATOM     22  O   UNL     1     -35.179  20.645   5.931  0.00  0.00    -0.296 OA
ATOM     23  C   UNL     1     -35.270  21.524   5.077  0.00  0.00    +0.155 C 
ATOM     24  C   UNL     1     -35.226  21.187   3.609  0.00  0.00    +0.072 C 
ENDBRANCH  21  23
ENDBRANCH   7  21
BRANCH   8  25
ATOM     25  C   UNL     1     -39.991  29.180  -1.101  0.00  0.00    +0.108 C 
BRANCH  25  27
ATOM     26  O   UNL     1     -39.547  29.877  -3.372  0.00  0.00    -0.296 OA
ATOM     27  C   UNL     1     -39.814  28.967  -2.590  0.00  0.00    +0.155 C 
ATOM     28  C   UNL     1     -39.986  27.551  -3.077  0.00  0.00    +0.072 C 
ENDBRANCH  25  27
ENDBRANCH   8  25
TORSDOF 4
ENDMDL
MODEL 7
REMARK VINA RESULT:      -5.6      2.471      8.340
REMARK  Name = 5467645
REMARK  4 active torsions:
REMARK  status: ('A' for Active; 'I' for Inactive)
REMARK    1  A    between atoms: C_7  and  C_21
REMARK    2  A    between atoms: C_8  and  C_25
REMARK    3  A    between atoms: C_21  and  C_23
REMARK    4  A    between atoms: C_25  and  C_27
REMARK                            x       y       z     vdW  Elec       q    Type
REMARK                         _______ _______ _______ _____ _____    ______ ____
ROOT
ATOM      1  O   UNL     1     -33.569  25.988   3.799  0.00  0.00    -0.449 OA
ATOM      2  O   UNL     1     -32.404  30.971   2.383  0.00  0.00    -0.449 OA
ATOM      3  O   UNL     1     -33.728  26.615   0.511  0.00  0.00    -0.291 OA
ATOM      4  O   UNL     1     -29.950  29.324   3.958  0.00  0.00    -0.291 OA
ATOM      5  O   UNL     1     -34.063  27.026   5.806  0.00  0.00    -0.245 OA
ATOM      6  O   UNL     1     -34.707  31.188   2.444  0.00  0.00    -0.245 OA
ATOM      7  C   UNL     1     -34.736  25.144   3.863  0.00  0.00    +0.177 C 
ATOM      8  C   UNL     1     -32.192  32.243   3.031  0.00  0.00    +0.177 C 
ATOM      9  C   UNL     1     -35.206  24.845   2.429  0.00  0.00    +0.052 C 
ATOM     10  C   UNL     1     -30.888  32.170   3.841  0.00  0.00    +0.052 C 
ATOM     11  C   UNL     1     -35.745  26.081   1.702  0.00  0.00    +0.073 C 
ATOM     12  C   UNL     1     -30.971  31.213   5.034  0.00  0.00    +0.073 C 
ATOM     13  C   UNL     1     -34.643  27.012   1.230  0.00  0.00    +0.173 C 
ATOM     14  C   UNL     1     -30.891  29.754   4.623  0.00  0.00    +0.173 C 
ATOM     15  C   UNL     1     -33.378  26.880   4.808  0.00  0.00    +0.341 C 
ATOM     16  C   UNL     1     -33.688  30.570   2.181  0.00  0.00    +0.341 C 
ATOM     17  C   UNL     1     -34.722  28.426   1.692  0.00  0.00    +0.044 C 
ATOM     18  C   UNL     1     -32.014  28.876   5.055  0.00  0.00    +0.044 C 
ATOM     19  C   UNL     1     -32.194  27.694   4.456  0.00  0.00    +0.085 C 
ATOM     20  C   UNL     1     -33.636  29.205   1.616  0.00  0.00    +0.085 C 
ENDROOT
BRANCH   7  21
ATOM     21  C   UNL     1     -34.355  23.857   4.587  0.00  0.00    +0.108 C 
BRANCH  21  23
ATOM     22  O   UNL     1     -36.699  23.280   4.696  0.00  0.00    -0.296 OA
ATOM     23  C   UNL     1     -35.561  23.124   5.135  0.00  0.00    +0.155 C 
ATOM     24  C   UNL     1     -35.292  22.172   6.272  0.00  0.00    +0.072 C 
ENDBRANCH  21  23
ENDBRANCH   7  21
BRANCH   8  25
ATOM     25  C   UNL     1     -32.104  33.319   1.955  0.00  0.00    +0.108 C 
BRANCH  25  27
ATOM     26  O   UNL     1     -34.172  34.570   1.915  0.00  0.00    -0.296 OA
ATOM     27  C   UNL     1     -32.991  34.510   2.254  0.00  0.00    +0.155 C 
ATOM     28  C   UNL     1     -32.340  35.643   3.003  0.00  0.00    +0.072 C 
ENDBRANCH  25  27
ENDBRANCH   8  25
TORSDOF 4
ENDMDL
MODEL 8
REMARK VINA RESULT:      -5.5      2.329      7.979
REMARK  Name = 5467645
REMARK  4 active torsions:
REMARK  status: ('A' for Active; 'I' for Inactive)
REMARK    1  A    between atoms: C_7  and  C_21
REMARK    2  A    between atoms: C_8  and  C_25
REMARK    3  A    between atoms: C_21  and  C_23
REMARK    4  A    between atoms: C_25  and  C_27
REMARK                            x       y       z     vdW  Elec       q    Type
REMARK                         _______ _______ _______ _____ _____    ______ ____
ROOT
ATOM      1  O   UNL     1     -36.257  25.684   2.512  0.00  0.00    -0.449 OA
ATOM      2  O   UNL     1     -32.938  29.117   4.834  0.00  0.00    -0.449 OA
ATOM      3  O   UNL     1     -35.907  25.318   5.825  0.00  0.00    -0.291 OA
ATOM      4  O   UNL     1     -35.558  30.499   3.270  0.00  0.00    -0.291 OA
ATOM      5  O   UNL     1     -34.970  26.202   0.661  0.00  0.00    -0.245 OA
ATOM      6  O   UNL     1     -31.450  27.364   4.573  0.00  0.00    -0.245 OA
ATOM      7  C   UNL     1     -36.283  24.278   2.193  0.00  0.00    +0.177 C 
ATOM      8  C   UNL     1     -31.964  30.102   4.427  0.00  0.00    +0.177 C 
ATOM      9  C   UNL     1     -36.373  23.477   3.503  0.00  0.00    +0.052 C 
ATOM     10  C   UNL     1     -32.701  31.272   3.753  0.00  0.00    +0.052 C 
ATOM     11  C   UNL     1     -35.110  23.586   4.363  0.00  0.00    +0.073 C 
ATOM     12  C   UNL     1     -33.346  30.890   2.418  0.00  0.00    +0.073 C 
ATOM     13  C   UNL     1     -35.007  24.914   5.090  0.00  0.00    +0.173 C 
ATOM     14  C   UNL     1     -34.621  30.083   2.592  0.00  0.00    +0.173 C 
ATOM     15  C   UNL     1     -35.555  26.507   1.687  0.00  0.00    +0.341 C 
ATOM     16  C   UNL     1     -32.555  27.812   4.834  0.00  0.00    +0.341 C 
ATOM     17  C   UNL     1     -33.766  25.706   4.860  0.00  0.00    +0.044 C 
ATOM     18  C   UNL     1     -34.672  28.759   1.909  0.00  0.00    +0.044 C 
ATOM     19  C   UNL     1     -35.585  27.859   2.287  0.00  0.00    +0.085 C 
ATOM     20  C   UNL     1     -33.748  27.007   5.172  0.00  0.00    +0.085 C 
ENDROOT
BRANCH   7  21
ATOM     21  C   UNL     1     -37.498  24.012   1.311  0.00  0.00    +0.108 C 
BRANCH  21  23
ATOM     22  O   UNL     1     -39.211  25.229   2.504  0.00  0.00    -0.296 OA
ATOM     23  C   UNL     1     -38.803  24.155   2.066  0.00  0.00    +0.155 C 
ATOM     24  C   UNL     1     -39.594  22.887   2.259  0.00  0.00    +0.072 C 
ENDBRANCH  21  23
ENDBRANCH   7  21
BRANCH   8  25
ATOM     25  C   UNL     1     -31.215  30.574   5.667  0.00  0.00    +0.108 C 
BRANCH  25  27
ATOM     26  O   UNL     1     -29.186  29.479   6.393  0.00  0.00    -0.296 OA
ATOM     27  C   UNL     1     -29.737  30.249   5.608  0.00  0.00    +0.155 C 
ATOM     28  C   UNL     1     -28.956  30.932   4.515  0.00  0.00    +0.072 C 
ENDBRANCH  25  27
ENDBRANCH   8  25
TORSDOF 4
ENDMDL
MODEL 9
REMARK VINA RESULT:      -5.5      4.070      7.938
REMARK  Name = 5467645
REMARK  4 active torsions:
REMARK  status: ('A' for Active; 'I' for Inactive)
REMARK    1  A    between atoms: C_7  and  C_21
REMARK    2  A    between atoms: C_8  and  C_25
REMARK    3  A    between atoms: C_21  and  C_23
REMARK    4  A    between atoms: C_25  and  C_27
REMARK                            x       y       z     vdW  Elec       q    Type
REMARK                         _______ _______ _______ _____ _____    ______ ____
ROOT
ATOM      1  O   UNL     1     -34.930  20.557   1.238  0.00  0.00    -0.449 OA
ATOM      2  O   UNL     1     -39.092  23.844   1.484  0.00  0.00    -0.449 OA
ATOM      3  O   UNL     1     -36.811  20.692  -1.532  0.00  0.00    -0.291 OA
ATOM      4  O   UNL     1     -36.102  25.293   1.908  0.00  0.00    -0.291 OA
ATOM      5  O   UNL     1     -35.190  20.588   3.536  0.00  0.00    -0.245 OA
ATOM      6  O   UNL     1     -40.199  21.887   2.033  0.00  0.00    -0.245 OA
ATOM      7  C   UNL     1     -34.696  19.134   1.209  0.00  0.00    +0.177 C 
ATOM      8  C   UNL     1     -39.790  24.608   2.490  0.00  0.00    +0.177 C 
ATOM      9  C   UNL     1     -35.213  18.578  -0.129  0.00  0.00    +0.052 C 
ATOM     10  C   UNL     1     -38.870  25.741   2.973  0.00  0.00    +0.052 C 
ATOM     11  C   UNL     1     -36.737  18.654  -0.263  0.00  0.00    +0.073 C 
ATOM     12  C   UNL     1     -37.647  25.237   3.747  0.00  0.00    +0.073 C 
ATOM     13  C   UNL     1     -37.230  20.056  -0.566  0.00  0.00    +0.173 C 
ATOM     14  C   UNL     1     -36.581  24.649   2.840  0.00  0.00    +0.173 C 
ATOM     15  C   UNL     1     -35.182  21.132   2.445  0.00  0.00    +0.341 C 
ATOM     16  C   UNL     1     -39.375  22.517   1.390  0.00  0.00    +0.341 C 
ATOM     17  C   UNL     1     -38.239  20.626   0.370  0.00  0.00    +0.044 C 
ATOM     18  C   UNL     1     -36.155  23.250   3.130  0.00  0.00    +0.044 C 
ATOM     19  C   UNL     1     -35.499  22.555   2.195  0.00  0.00    +0.085 C 
ATOM     20  C   UNL     1     -38.459  21.946   0.380  0.00  0.00    +0.085 C 
ENDROOT
BRANCH   7  21
ATOM     21  C   UNL     1     -33.197  18.894   1.353  0.00  0.00    +0.108 C 
BRANCH  21  23
ATOM     22  O   UNL     1     -32.084  18.398  -0.734  0.00  0.00    -0.296 OA
ATOM     23  C   UNL     1     -32.433  19.239   0.091  0.00  0.00    +0.155 C 
ATOM     24  C   UNL     1     -32.114  20.699  -0.106  0.00  0.00    +0.072 C 
ENDBRANCH  21  23
ENDBRANCH   7  21
BRANCH   8  25
ATOM     25  C   UNL     1     -41.062  25.172   1.865  0.00  0.00    +0.108 C 
BRANCH  25  27
ATOM     26  O   UNL     1     -41.179  27.582   1.726  0.00  0.00    -0.296 OA
ATOM     27  C   UNL     1     -41.391  26.559   2.375  0.00  0.00    +0.155 C 
ATOM     28  C   UNL     1     -42.004  26.626   3.750  0.00  0.00    +0.072 C 
ENDBRANCH  25  27
ENDBRANCH   8  25
TORSDOF 4
ENDMDL
