MODEL 1
REMARK VINA RESULT:      -6.7      0.000      0.000
REMARK  Name = 5487204
REMARK  9 active torsions:
REMARK  status: ('A' for Active; 'I' for Inactive)
REMARK    1  A    between atoms: C_3  and  O_20
REMARK    2  A    between atoms: C_8  and  O_16
REMARK    3  A    between atoms: C_14  and  O_18
REMARK    4  A    between atoms: O_20  and  C_26
REMARK    5  A    between atoms: C_22  and  O_27
REMARK    6  A    between atoms: C_23  and  O_29
REMARK    7  A    between atoms: C_24  and  O_31
REMARK    8  A    between atoms: C_25  and  C_33
REMARK    9  A    between atoms: C_33  and  O_34
REMARK                            x       y       z     vdW  Elec       q    Type
REMARK                         _______ _______ _______ _____ _____    ______ ____
ROOT
ATOM      1  O   UNL     1     -35.182  22.194   3.280  0.00  0.00    -0.453 OA
ATOM      2  O   UNL     1     -38.753  23.994   2.413  0.00  0.00    -0.286 OA
ATOM      3  C   UNL     1     -34.789  25.224   5.261  0.00  0.00    +0.147 C 
ATOM      4  C   UNL     1     -34.544  23.984   4.669  0.00  0.00    +0.075 C 
ATOM      5  C   UNL     1     -35.985  25.896   5.010  0.00  0.00    +0.074 C 
ATOM      6  C   UNL     1     -35.498  23.414   3.822  0.00  0.00    +0.154 A 
ATOM      7  C   UNL     1     -36.692  24.089   3.575  0.00  0.00    +0.107 A 
ATOM      8  C   UNL     1     -36.942  25.330   4.166  0.00  0.00    +0.143 C 
ATOM      9  C   UNL     1     -37.681  23.469   2.681  0.00  0.00    +0.204 A 
ATOM     10  C   UNL     1     -37.326  22.162   2.109  0.00  0.00    +0.077 A 
ATOM     11  C   UNL     1     -36.093  21.598   2.442  0.00  0.00    +0.149 A 
ATOM     12  C   UNL     1     -38.201  21.496   1.248  0.00  0.00    +0.043 C 
ATOM     13  C   UNL     1     -35.735  20.358   1.910  0.00  0.00    +0.041 C 
ATOM     14  C   UNL     1     -37.837  20.257   0.720  0.00  0.00    +0.139 C 
ATOM     15  C   UNL     1     -36.605  19.689   1.050  0.00  0.00    +0.040 C 
ENDROOT
BRANCH   8  16
ATOM     16  O   UNL     1     -38.092  26.027   3.953  0.00  0.00    -0.505 OA
ATOM     17  H   UNL     1     -38.109  26.956   4.082  0.00  0.00    +0.292 HD
ENDBRANCH   8  16
BRANCH  14  18
ATOM     18  O   UNL     1     -38.684  19.600  -0.119  0.00  0.00    -0.471 OA
ATOM     19  C   UNL     1     -38.187  18.421  -0.750  0.00  0.00    +0.252 C 
ENDBRANCH  14  18
BRANCH   3  20
ATOM     20  O   UNL     1     -33.858  25.780   6.085  0.00  0.00    -0.450 OA
BRANCH  20  26
ATOM     21  O   UNL     1     -32.590  26.767   4.394  0.00  0.00    -0.316 OA
ATOM     22  C   UNL     1     -31.405  28.616   6.245  0.00  0.00    +0.173 C 
ATOM     23  C   UNL     1     -30.858  28.405   4.832  0.00  0.00    +0.169 C 
ATOM     24  C   UNL     1     -32.224  27.410   6.707  0.00  0.00    +0.210 C 
ATOM     25  C   UNL     1     -31.968  27.947   3.883  0.00  0.00    +0.177 C 
ATOM     26  C   UNL     1     -33.238  26.987   5.644  0.00  0.00    +0.318 C 
BRANCH  22  27
ATOM     27  O   UNL     1     -30.296  28.803   7.125  0.00  0.00    -0.379 OA
ATOM     28  H   UNL     1     -29.622  28.129   6.944  0.00  0.00    +0.211 HD
ENDBRANCH  22  27
BRANCH  23  29
ATOM     29  O   UNL     1     -30.304  29.628   4.354  0.00  0.00    -0.379 OA
ATOM     30  H   UNL     1     -30.933  30.053   3.749  0.00  0.00    +0.211 HD
ENDBRANCH  23  29
BRANCH  24  31
ATOM     31  O   UNL     1     -32.937  27.750   7.896  0.00  0.00    -0.377 OA
ATOM     32  H   UNL     1     -32.358  28.257   8.486  0.00  0.00    +0.211 HD
ENDBRANCH  24  31
BRANCH  25  33
ATOM     33  C   UNL     1     -31.425  27.617   2.497  0.00  0.00    +0.169 C 
BRANCH  33  34
ATOM     34  O   UNL     1     -30.796  26.350   2.548  0.00  0.00    -0.379 OA
ATOM     35  H   UNL     1     -31.229  25.747   1.924  0.00  0.00    +0.211 HD
ENDBRANCH  33  34
ENDBRANCH  25  33
ENDBRANCH  20  26
ENDBRANCH   3  20
TORSDOF 9
ENDMDL
MODEL 2
REMARK VINA RESULT:      -6.6      1.984      3.423
REMARK  Name = 5487204
REMARK  9 active torsions:
REMARK  status: ('A' for Active; 'I' for Inactive)
REMARK    1  A    between atoms: C_3  and  O_20
REMARK    2  A    between atoms: C_8  and  O_16
REMARK    3  A    between atoms: C_14  and  O_18
REMARK    4  A    between atoms: O_20  and  C_26
REMARK    5  A    between atoms: C_22  and  O_27
REMARK    6  A    between atoms: C_23  and  O_29
REMARK    7  A    between atoms: C_24  and  O_31
REMARK    8  A    between atoms: C_25  and  C_33
REMARK    9  A    between atoms: C_33  and  O_34
REMARK                            x       y       z     vdW  Elec       q    Type
REMARK                         _______ _______ _______ _____ _____    ______ ____
ROOT
ATOM      1  O   UNL     1     -37.846  25.887   3.737  0.00  0.00    -0.453 OA
ATOM      2  O   UNL     1     -37.768  21.950   2.625  0.00  0.00    -0.286 OA
ATOM      3  C   UNL     1     -34.683  24.925   5.264  0.00  0.00    +0.147 C 
ATOM      4  C   UNL     1     -35.785  25.677   4.854  0.00  0.00    +0.075 C 
ATOM      5  C   UNL     1     -34.590  23.576   4.921  0.00  0.00    +0.074 C 
ATOM      6  C   UNL     1     -36.797  25.080   4.100  0.00  0.00    +0.154 A 
ATOM      7  C   UNL     1     -36.700  23.731   3.760  0.00  0.00    +0.107 A 
ATOM      8  C   UNL     1     -35.598  22.974   4.168  0.00  0.00    +0.143 C 
ATOM      9  C   UNL     1     -37.777  23.124   2.965  0.00  0.00    +0.204 A 
ATOM     10  C   UNL     1     -38.893  24.004   2.585  0.00  0.00    +0.077 A 
ATOM     11  C   UNL     1     -38.863  25.338   2.994  0.00  0.00    +0.149 A 
ATOM     12  C   UNL     1     -39.963  23.517   1.831  0.00  0.00    +0.043 C 
ATOM     13  C   UNL     1     -39.911  26.191   2.644  0.00  0.00    +0.041 C 
ATOM     14  C   UNL     1     -41.008  24.375   1.485  0.00  0.00    +0.139 C 
ATOM     15  C   UNL     1     -40.982  25.709   1.892  0.00  0.00    +0.040 C 
ENDROOT
BRANCH   8  16
ATOM     16  O   UNL     1     -35.460  21.655   3.861  0.00  0.00    -0.505 OA
ATOM     17  H   UNL     1     -35.426  21.383   2.964  0.00  0.00    +0.292 HD
ENDBRANCH   8  16
BRANCH  14  18
ATOM     18  O   UNL     1     -42.054  23.909   0.750  0.00  0.00    -0.471 OA
ATOM     19  C   UNL     1     -43.119  24.821   0.488  0.00  0.00    +0.252 C 
ENDBRANCH  14  18
BRANCH   3  20
ATOM     20  O   UNL     1     -33.697  25.508   6.000  0.00  0.00    -0.450 OA
BRANCH  20  26
ATOM     21  O   UNL     1     -32.835  26.922   4.356  0.00  0.00    -0.316 OA
ATOM     22  C   UNL     1     -31.791  28.725   6.334  0.00  0.00    +0.173 C 
ATOM     23  C   UNL     1     -31.386  28.798   4.861  0.00  0.00    +0.169 C 
ATOM     24  C   UNL     1     -32.320  27.335   6.693  0.00  0.00    +0.210 C 
ATOM     25  C   UNL     1     -32.500  28.254   3.964  0.00  0.00    +0.177 C 
ATOM     26  C   UNL     1     -33.360  26.857   5.680  0.00  0.00    +0.318 C 
BRANCH  22  27
ATOM     27  O   UNL     1     -30.637  29.013   7.125  0.00  0.00    -0.379 OA
ATOM     28  H   UNL     1     -30.720  29.902   7.504  0.00  0.00    +0.211 HD
ENDBRANCH  22  27
BRANCH  23  29
ATOM     29  O   UNL     1     -31.121  30.154   4.513  0.00  0.00    -0.379 OA
ATOM     30  H   UNL     1     -30.571  30.563   5.199  0.00  0.00    +0.211 HD
ENDBRANCH  23  29
BRANCH  24  31
ATOM     31  O   UNL     1     -32.937  27.383   7.979  0.00  0.00    -0.377 OA
ATOM     32  H   UNL     1     -33.162  26.483   8.263  0.00  0.00    +0.211 HD
ENDBRANCH  24  31
BRANCH  25  33
ATOM     33  C   UNL     1     -32.073  28.208   2.500  0.00  0.00    +0.169 C 
BRANCH  33  34
ATOM     34  O   UNL     1     -30.663  28.088   2.444  0.00  0.00    -0.379 OA
ATOM     35  H   UNL     1     -30.426  27.273   1.975  0.00  0.00    +0.211 HD
ENDBRANCH  33  34
ENDBRANCH  25  33
ENDBRANCH  20  26
ENDBRANCH   3  20
TORSDOF 9
ENDMDL
MODEL 3
REMARK VINA RESULT:      -6.6      3.992      7.024
REMARK  Name = 5487204
REMARK  9 active torsions:
REMARK  status: ('A' for Active; 'I' for Inactive)
REMARK    1  A    between atoms: C_3  and  O_20
REMARK    2  A    between atoms: C_8  and  O_16
REMARK    3  A    between atoms: C_14  and  O_18
REMARK    4  A    between atoms: O_20  and  C_26
REMARK    5  A    between atoms: C_22  and  O_27
REMARK    6  A    between atoms: C_23  and  O_29
REMARK    7  A    between atoms: C_24  and  O_31
REMARK    8  A    between atoms: C_25  and  C_33
REMARK    9  A    between atoms: C_33  and  O_34
REMARK                            x       y       z     vdW  Elec       q    Type
REMARK                         _______ _______ _______ _____ _____    ______ ____
ROOT
ATOM      1  O   UNL     1     -32.553  19.822   0.785  0.00  0.00    -0.453 OA
ATOM      2  O   UNL     1     -34.757  16.461   0.019  0.00  0.00    -0.286 OA
ATOM      3  C   UNL     1     -35.890  21.223   1.192  0.00  0.00    +0.147 C 
ATOM      4  C   UNL     1     -34.501  21.097   1.133  0.00  0.00    +0.075 C 
ATOM      5  C   UNL     1     -36.704  20.118   0.942  0.00  0.00    +0.074 C 
ATOM      6  C   UNL     1     -33.924  19.863   0.823  0.00  0.00    +0.154 A 
ATOM      7  C   UNL     1     -34.742  18.762   0.574  0.00  0.00    +0.107 A 
ATOM      8  C   UNL     1     -36.133  18.884   0.632  0.00  0.00    +0.143 C 
ATOM      9  C   UNL     1     -34.112  17.474   0.250  0.00  0.00    +0.204 A 
ATOM     10  C   UNL     1     -32.642  17.448   0.214  0.00  0.00    +0.077 A 
ATOM     11  C   UNL     1     -31.946  18.627   0.484  0.00  0.00    +0.149 A 
ATOM     12  C   UNL     1     -31.954  16.270  -0.086  0.00  0.00    +0.043 C 
ATOM     13  C   UNL     1     -30.550  18.626   0.455  0.00  0.00    +0.041 C 
ATOM     14  C   UNL     1     -30.559  16.276  -0.114  0.00  0.00    +0.139 C 
ATOM     15  C   UNL     1     -29.859  17.452   0.156  0.00  0.00    +0.040 C 
ENDROOT
BRANCH   8  16
ATOM     16  O   UNL     1     -36.972  17.837   0.395  0.00  0.00    -0.505 OA
ATOM     17  H   UNL     1     -36.689  17.120  -0.138  0.00  0.00    +0.292 HD
ENDBRANCH   8  16
BRANCH  14  18
ATOM     18  O   UNL     1     -29.881  15.132  -0.404  0.00  0.00    -0.471 OA
ATOM     19  C   UNL     1     -30.458  13.906   0.040  0.00  0.00    +0.252 C 
ENDBRANCH  14  18
BRANCH   3  20
ATOM     20  O   UNL     1     -36.451  22.426   1.494  0.00  0.00    -0.450 OA
BRANCH  20  26
ATOM     21  O   UNL     1     -35.899  22.444   3.760  0.00  0.00    -0.316 OA
ATOM     22  C   UNL     1     -36.118  25.305   3.879  0.00  0.00    +0.173 C 
ATOM     23  C   UNL     1     -36.039  24.435   5.134  0.00  0.00    +0.169 C 
ATOM     24  C   UNL     1     -36.609  24.497   2.676  0.00  0.00    +0.210 C 
ATOM     25  C   UNL     1     -35.283  23.135   4.848  0.00  0.00    +0.177 C 
ATOM     26  C   UNL     1     -35.844  23.181   2.542  0.00  0.00    +0.318 C 
BRANCH  22  27
ATOM     27  O   UNL     1     -37.029  26.374   4.138  0.00  0.00    -0.379 OA
ATOM     28  H   UNL     1     -37.549  26.555   3.340  0.00  0.00    +0.211 HD
ENDBRANCH  22  27
BRANCH  23  29
ATOM     29  O   UNL     1     -35.366  25.154   6.164  0.00  0.00    -0.379 OA
ATOM     30  H   UNL     1     -35.865  25.075   6.993  0.00  0.00    +0.211 HD
ENDBRANCH  23  29
BRANCH  24  31
ATOM     31  O   UNL     1     -36.408  25.256   1.484  0.00  0.00    -0.377 OA
ATOM     32  H   UNL     1     -35.660  25.860   1.608  0.00  0.00    +0.211 HD
ENDBRANCH  24  31
BRANCH  25  33
ATOM     33  C   UNL     1     -35.294  22.200   6.053  0.00  0.00    +0.169 C 
BRANCH  33  34
ATOM     34  O   UNL     1     -35.302  20.863   5.586  0.00  0.00    -0.379 OA
ATOM     35  H   UNL     1     -35.764  20.820   4.734  0.00  0.00    +0.211 HD
ENDBRANCH  33  34
ENDBRANCH  25  33
ENDBRANCH  20  26
ENDBRANCH   3  20
TORSDOF 9
ENDMDL
MODEL 4
REMARK VINA RESULT:      -6.6      2.979      5.628
REMARK  Name = 5487204
REMARK  9 active torsions:
REMARK  status: ('A' for Active; 'I' for Inactive)
REMARK    1  A    between atoms: C_3  and  O_20
REMARK    2  A    between atoms: C_8  and  O_16
REMARK    3  A    between atoms: C_14  and  O_18
REMARK    4  A    between atoms: O_20  and  C_26
REMARK    5  A    between atoms: C_22  and  O_27
REMARK    6  A    between atoms: C_23  and  O_29
REMARK    7  A    between atoms: C_24  and  O_31
REMARK    8  A    between atoms: C_25  and  C_33
REMARK    9  A    between atoms: C_33  and  O_34
REMARK                            x       y       z     vdW  Elec       q    Type
REMARK                         _______ _______ _______ _____ _____    ______ ____
ROOT
ATOM      1  O   UNL     1     -36.381  19.960   0.517  0.00  0.00    -0.453 OA
ATOM      2  O   UNL     1     -39.953  19.003  -1.235  0.00  0.00    -0.286 OA
ATOM      3  C   UNL     1     -38.501  22.421   2.163  0.00  0.00    +0.147 C 
ATOM      4  C   UNL     1     -37.387  21.673   1.780  0.00  0.00    +0.075 C 
ATOM      5  C   UNL     1     -39.751  22.150   1.606  0.00  0.00    +0.074 C 
ATOM      6  C   UNL     1     -37.522  20.650   0.839  0.00  0.00    +0.154 A 
ATOM      7  C   UNL     1     -38.774  20.383   0.285  0.00  0.00    +0.107 A 
ATOM      8  C   UNL     1     -39.892  21.130   0.666  0.00  0.00    +0.143 C 
ATOM      9  C   UNL     1     -38.893  19.301  -0.703  0.00  0.00    +0.204 A 
ATOM     10  C   UNL     1     -37.659  18.574  -1.036  0.00  0.00    +0.077 A 
ATOM     11  C   UNL     1     -36.471  18.946  -0.405  0.00  0.00    +0.149 A 
ATOM     12  C   UNL     1     -37.672  17.531  -1.966  0.00  0.00    +0.043 C 
ATOM     13  C   UNL     1     -35.288  18.269  -0.707  0.00  0.00    +0.041 C 
ATOM     14  C   UNL     1     -36.486  16.858  -2.262  0.00  0.00    +0.139 C 
ATOM     15  C   UNL     1     -35.296  17.227  -1.634  0.00  0.00    +0.040 C 
ENDROOT
BRANCH   8  16
ATOM     16  O   UNL     1     -41.134  20.906   0.152  0.00  0.00    -0.505 OA
ATOM     17  H   UNL     1     -41.867  20.803   0.727  0.00  0.00    +0.292 HD
ENDBRANCH   8  16
BRANCH  14  18
ATOM     18  O   UNL     1     -36.489  15.840  -3.166  0.00  0.00    -0.471 OA
ATOM     19  C   UNL     1     -35.464  14.857  -3.039  0.00  0.00    +0.252 C 
ENDBRANCH  14  18
BRANCH   3  20
ATOM     20  O   UNL     1     -38.367  23.419   3.080  0.00  0.00    -0.450 OA
BRANCH  20  26
ATOM     21  O   UNL     1     -36.681  23.006   4.638  0.00  0.00    -0.316 OA
ATOM     22  C   UNL     1     -35.660  25.677   4.368  0.00  0.00    +0.173 C 
ATOM     23  C   UNL     1     -35.233  24.746   5.504  0.00  0.00    +0.169 C 
ATOM     24  C   UNL     1     -37.009  25.255   3.785  0.00  0.00    +0.210 C 
ATOM     25  C   UNL     1     -35.350  23.280   5.079  0.00  0.00    +0.177 C 
ATOM     26  C   UNL     1     -37.041  23.757   3.482  0.00  0.00    +0.318 C 
BRANCH  22  27
ATOM     27  O   UNL     1     -35.761  27.000   4.895  0.00  0.00    -0.379 OA
ATOM     28  H   UNL     1     -36.264  26.980   5.724  0.00  0.00    +0.211 HD
ENDBRANCH  22  27
BRANCH  23  29
ATOM     29  O   UNL     1     -33.883  25.026   5.861  0.00  0.00    -0.379 OA
ATOM     30  H   UNL     1     -33.644  24.515   6.651  0.00  0.00    +0.211 HD
ENDBRANCH  23  29
BRANCH  24  31
ATOM     31  O   UNL     1     -37.240  25.963   2.567  0.00  0.00    -0.377 OA
ATOM     32  H   UNL     1     -36.395  26.280   2.213  0.00  0.00    +0.211 HD
ENDBRANCH  24  31
BRANCH  25  33
ATOM     33  C   UNL     1     -35.043  22.331   6.233  0.00  0.00    +0.169 C 
BRANCH  33  34
ATOM     34  O   UNL     1     -35.321  21.007   5.815  0.00  0.00    -0.379 OA
ATOM     35  H   UNL     1     -35.140  20.922   4.866  0.00  0.00    +0.211 HD
ENDBRANCH  33  34
ENDBRANCH  25  33
ENDBRANCH  20  26
ENDBRANCH   3  20
TORSDOF 9
ENDMDL
MODEL 5
REMARK VINA RESULT:      -6.6      1.884      9.213
REMARK  Name = 5487204
REMARK  9 active torsions:
REMARK  status: ('A' for Active; 'I' for Inactive)
REMARK    1  A    between atoms: C_3  and  O_20
REMARK    2  A    between atoms: C_8  and  O_16
REMARK    3  A    between atoms: C_14  and  O_18
REMARK    4  A    between atoms: O_20  and  C_26
REMARK    5  A    between atoms: C_22  and  O_27
REMARK    6  A    between atoms: C_23  and  O_29
REMARK    7  A    between atoms: C_24  and  O_31
REMARK    8  A    between atoms: C_25  and  C_33
REMARK    9  A    between atoms: C_33  and  O_34
REMARK                            x       y       z     vdW  Elec       q    Type
REMARK                         _______ _______ _______ _____ _____    ______ ____
ROOT
ATOM      1  O   UNL     1     -33.243  26.378   5.580  0.00  0.00    -0.453 OA
ATOM      2  O   UNL     1     -32.740  28.277   1.990  0.00  0.00    -0.286 OA
ATOM      3  C   UNL     1     -34.782  23.898   3.400  0.00  0.00    +0.147 C 
ATOM      4  C   UNL     1     -34.303  24.553   4.537  0.00  0.00    +0.075 C 
ATOM      5  C   UNL     1     -34.645  24.487   2.144  0.00  0.00    +0.074 C 
ATOM      6  C   UNL     1     -33.686  25.800   4.416  0.00  0.00    +0.154 A 
ATOM      7  C   UNL     1     -33.551  26.385   3.158  0.00  0.00    +0.107 A 
ATOM      8  C   UNL     1     -34.029  25.732   2.018  0.00  0.00    +0.143 C 
ATOM      9  C   UNL     1     -32.898  27.698   3.055  0.00  0.00    +0.204 A 
ATOM     10  C   UNL     1     -32.430  28.301   4.312  0.00  0.00    +0.077 A 
ATOM     11  C   UNL     1     -32.630  27.605   5.505  0.00  0.00    +0.149 A 
ATOM     12  C   UNL     1     -31.798  29.547   4.316  0.00  0.00    +0.043 C 
ATOM     13  C   UNL     1     -32.194  28.159   6.709  0.00  0.00    +0.041 C 
ATOM     14  C   UNL     1     -31.365  30.096   5.523  0.00  0.00    +0.139 C 
ATOM     15  C   UNL     1     -31.563  29.403   6.718  0.00  0.00    +0.040 C 
ENDROOT
BRANCH   8  16
ATOM     16  O   UNL     1     -33.921  26.264   0.768  0.00  0.00    -0.505 OA
ATOM     17  H   UNL     1     -33.712  25.712   0.040  0.00  0.00    +0.292 HD
ENDBRANCH   8  16
BRANCH  14  18
ATOM     18  O   UNL     1     -30.748  31.309   5.536  0.00  0.00    -0.471 OA
ATOM     19  C   UNL     1     -30.475  31.911   4.272  0.00  0.00    +0.252 C 
ENDBRANCH  14  18
BRANCH   3  20
ATOM     20  O   UNL     1     -35.384  22.683   3.520  0.00  0.00    -0.450 OA
BRANCH  20  26
ATOM     21  O   UNL     1     -37.545  22.351   2.706  0.00  0.00    -0.316 OA
ATOM     22  C   UNL     1     -36.682  20.157   1.065  0.00  0.00    +0.173 C 
ATOM     23  C   UNL     1     -38.159  20.448   1.337  0.00  0.00    +0.169 C 
ATOM     24  C   UNL     1     -35.790  20.769   2.147  0.00  0.00    +0.210 C 
ATOM     25  C   UNL     1     -38.376  21.936   1.621  0.00  0.00    +0.177 C 
ATOM     26  C   UNL     1     -36.156  22.229   2.409  0.00  0.00    +0.318 C 
BRANCH  22  27
ATOM     27  O   UNL     1     -36.506  18.740   1.049  0.00  0.00    -0.379 OA
ATOM     28  H   UNL     1     -35.610  18.529   0.743  0.00  0.00    +0.211 HD
ENDBRANCH  22  27
BRANCH  23  29
ATOM     29  O   UNL     1     -38.931  20.067   0.202  0.00  0.00    -0.379 OA
ATOM     30  H   UNL     1     -39.280  19.172   0.333  0.00  0.00    +0.211 HD
ENDBRANCH  23  29
BRANCH  24  31
ATOM     31  O   UNL     1     -34.429  20.718   1.721  0.00  0.00    -0.377 OA
ATOM     32  H   UNL     1     -34.278  19.902   1.218  0.00  0.00    +0.211 HD
ENDBRANCH  24  31
BRANCH  25  33
ATOM     33  C   UNL     1     -39.821  22.230   2.011  0.00  0.00    +0.169 C 
BRANCH  33  34
ATOM     34  O   UNL     1     -40.440  21.018   2.400  0.00  0.00    -0.379 OA
ATOM     35  H   UNL     1     -41.397  21.154   2.484  0.00  0.00    +0.211 HD
ENDBRANCH  33  34
ENDBRANCH  25  33
ENDBRANCH  20  26
ENDBRANCH   3  20
TORSDOF 9
ENDMDL
MODEL 6
REMARK VINA RESULT:      -6.5      2.708      9.047
REMARK  Name = 5487204
REMARK  9 active torsions:
REMARK  status: ('A' for Active; 'I' for Inactive)
REMARK    1  A    between atoms: C_3  and  O_20
REMARK    2  A    between atoms: C_8  and  O_16
REMARK    3  A    between atoms: C_14  and  O_18
REMARK    4  A    between atoms: O_20  and  C_26
REMARK    5  A    between atoms: C_22  and  O_27
REMARK    6  A    between atoms: C_23  and  O_29
REMARK    7  A    between atoms: C_24  and  O_31
REMARK    8  A    between atoms: C_25  and  C_33
REMARK    9  A    between atoms: C_33  and  O_34
REMARK                            x       y       z     vdW  Elec       q    Type
REMARK                         _______ _______ _______ _____ _____    ______ ____
ROOT
ATOM      1  O   UNL     1     -33.823  25.020   2.146  0.00  0.00    -0.453 OA
ATOM      2  O   UNL     1     -34.996  24.535   6.036  0.00  0.00    -0.286 OA
ATOM      3  C   UNL     1     -35.677  21.904   1.800  0.00  0.00    +0.147 C 
ATOM      4  C   UNL     1     -34.911  23.033   1.504  0.00  0.00    +0.075 C 
ATOM      5  C   UNL     1     -36.111  21.675   3.105  0.00  0.00    +0.074 C 
ATOM      6  C   UNL     1     -34.578  23.935   2.517  0.00  0.00    +0.154 A 
ATOM      7  C   UNL     1     -35.015  23.702   3.820  0.00  0.00    +0.107 A 
ATOM      8  C   UNL     1     -35.782  22.573   4.120  0.00  0.00    +0.143 C 
ATOM      9  C   UNL     1     -34.652  24.666   4.870  0.00  0.00    +0.204 A 
ATOM     10  C   UNL     1     -33.843  25.821   4.454  0.00  0.00    +0.077 A 
ATOM     11  C   UNL     1     -33.474  25.932   3.112  0.00  0.00    +0.149 A 
ATOM     12  C   UNL     1     -33.449  26.789   5.380  0.00  0.00    +0.043 C 
ATOM     13  C   UNL     1     -32.706  27.020   2.695  0.00  0.00    +0.041 C 
ATOM     14  C   UNL     1     -32.681  27.875   4.957  0.00  0.00    +0.139 C 
ATOM     15  C   UNL     1     -32.310  27.989   3.616  0.00  0.00    +0.040 C 
ENDROOT
BRANCH   8  16
ATOM     16  O   UNL     1     -36.230  22.303   5.378  0.00  0.00    -0.505 OA
ATOM     17  H   UNL     1     -36.170  22.956   6.047  0.00  0.00    +0.292 HD
ENDBRANCH   8  16
BRANCH  14  18
ATOM     18  O   UNL     1     -32.293  28.823   5.852  0.00  0.00    -0.471 OA
ATOM     19  C   UNL     1     -32.026  30.128   5.340  0.00  0.00    +0.252 C 
ENDBRANCH  14  18
BRANCH   3  20
ATOM     20  O   UNL     1     -36.000  21.025   0.812  0.00  0.00    -0.450 OA
BRANCH  20  26
ATOM     21  O   UNL     1     -34.078  19.704   0.788  0.00  0.00    -0.316 OA
ATOM     22  C   UNL     1     -35.544  17.438  -0.194  0.00  0.00    +0.173 C 
ATOM     23  C   UNL     1     -34.015  17.487  -0.189  0.00  0.00    +0.169 C 
ATOM     24  C   UNL     1     -36.142  18.845  -0.158  0.00  0.00    +0.210 C 
ATOM     25  C   UNL     1     -33.505  18.402   0.926  0.00  0.00    +0.177 C 
ATOM     26  C   UNL     1     -35.495  19.696   0.934  0.00  0.00    +0.318 C 
BRANCH  22  27
ATOM     27  O   UNL     1     -35.961  16.774  -1.388  0.00  0.00    -0.379 OA
ATOM     28  H   UNL     1     -35.627  17.257  -2.160  0.00  0.00    +0.211 HD
ENDBRANCH  22  27
BRANCH  23  29
ATOM     29  O   UNL     1     -33.502  16.172   0.009  0.00  0.00    -0.379 OA
ATOM     30  H   UNL     1     -32.884  15.955  -0.706  0.00  0.00    +0.211 HD
ENDBRANCH  23  29
BRANCH  24  31
ATOM     31  O   UNL     1     -37.541  18.756   0.113  0.00  0.00    -0.377 OA
ATOM     32  H   UNL     1     -37.730  19.161   0.973  0.00  0.00    +0.211 HD
ENDBRANCH  24  31
BRANCH  25  33
ATOM     33  C   UNL     1     -31.989  18.560   0.877  0.00  0.00    +0.169 C 
BRANCH  33  34
ATOM     34  O   UNL     1     -31.404  17.566   1.698  0.00  0.00    -0.379 OA
ATOM     35  H   UNL     1     -32.055  17.260   2.349  0.00  0.00    +0.211 HD
ENDBRANCH  33  34
ENDBRANCH  25  33
ENDBRANCH  20  26
ENDBRANCH   3  20
TORSDOF 9
ENDMDL
MODEL 7
REMARK VINA RESULT:      -6.5      2.999      5.602
REMARK  Name = 5487204
REMARK  9 active torsions:
REMARK  status: ('A' for Active; 'I' for Inactive)
REMARK    1  A    between atoms: C_3  and  O_20
REMARK    2  A    between atoms: C_8  and  O_16
REMARK    3  A    between atoms: C_14  and  O_18
REMARK    4  A    between atoms: O_20  and  C_26
REMARK    5  A    between atoms: C_22  and  O_27
REMARK    6  A    between atoms: C_23  and  O_29
REMARK    7  A    between atoms: C_24  and  O_31
REMARK    8  A    between atoms: C_25  and  C_33
REMARK    9  A    between atoms: C_33  and  O_34
REMARK                            x       y       z     vdW  Elec       q    Type
REMARK                         _______ _______ _______ _____ _____    ______ ____
ROOT
ATOM      1  O   UNL     1     -34.031  19.825   1.868  0.00  0.00    -0.453 OA
ATOM      2  O   UNL     1     -36.869  18.060  -0.493  0.00  0.00    -0.286 OA
ATOM      3  C   UNL     1     -36.836  22.028   2.604  0.00  0.00    +0.147 C 
ATOM      4  C   UNL     1     -35.563  21.454   2.601  0.00  0.00    +0.075 C 
ATOM      5  C   UNL     1     -37.852  21.479   1.822  0.00  0.00    +0.074 C 
ATOM      6  C   UNL     1     -35.306  20.329   1.815  0.00  0.00    +0.154 A 
ATOM      7  C   UNL     1     -36.326  19.784   1.036  0.00  0.00    +0.107 A 
ATOM      8  C   UNL     1     -37.601  20.355   1.036  0.00  0.00    +0.143 C 
ATOM      9  C   UNL     1     -36.032  18.599   0.217  0.00  0.00    +0.204 A 
ATOM     10  C   UNL     1     -34.660  18.073   0.286  0.00  0.00    +0.077 A 
ATOM     11  C   UNL     1     -33.736  18.718   1.109  0.00  0.00    +0.149 A 
ATOM     12  C   UNL     1     -34.286  16.951  -0.458  0.00  0.00    +0.043 C 
ATOM     13  C   UNL     1     -32.429  18.236   1.190  0.00  0.00    +0.041 C 
ATOM     14  C   UNL     1     -32.977  16.475  -0.373  0.00  0.00    +0.139 C 
ATOM     15  C   UNL     1     -32.050  17.116   0.450  0.00  0.00    +0.040 C 
ENDROOT
BRANCH   8  16
ATOM     16  O   UNL     1     -38.628  19.858   0.291  0.00  0.00    -0.505 OA
ATOM     17  H   UNL     1     -38.500  19.090  -0.230  0.00  0.00    +0.292 HD
ENDBRANCH   8  16
BRANCH  14  18
ATOM     18  O   UNL     1     -32.604  15.381  -1.093  0.00  0.00    -0.471 OA
ATOM     19  C   UNL     1     -31.588  14.552  -0.533  0.00  0.00    +0.252 C 
ENDBRANCH  14  18
BRANCH   3  20
ATOM     20  O   UNL     1     -37.085  23.125   3.370  0.00  0.00    -0.450 OA
BRANCH  20  26
ATOM     21  O   UNL     1     -35.727  24.631   4.524  0.00  0.00    -0.316 OA
ATOM     22  C   UNL     1     -36.099  26.643   2.508  0.00  0.00    +0.173 C 
ATOM     23  C   UNL     1     -35.490  26.955   3.876  0.00  0.00    +0.169 C 
ATOM     24  C   UNL     1     -36.943  25.368   2.556  0.00  0.00    +0.210 C 
ATOM     25  C   UNL     1     -34.802  25.718   4.459  0.00  0.00    +0.177 C 
ATOM     26  C   UNL     1     -36.188  24.227   3.237  0.00  0.00    +0.318 C 
BRANCH  22  27
ATOM     27  O   UNL     1     -36.925  27.746   2.130  0.00  0.00    -0.379 OA
ATOM     28  H   UNL     1     -37.047  28.334   2.892  0.00  0.00    +0.211 HD
ENDBRANCH  22  27
BRANCH  23  29
ATOM     29  O   UNL     1     -34.537  28.004   3.740  0.00  0.00    -0.379 OA
ATOM     30  H   UNL     1     -34.740  28.710   4.374  0.00  0.00    +0.211 HD
ENDBRANCH  23  29
BRANCH  24  31
ATOM     31  O   UNL     1     -37.262  24.963   1.225  0.00  0.00    -0.377 OA
ATOM     32  H   UNL     1     -38.038  24.382   1.241  0.00  0.00    +0.211 HD
ENDBRANCH  24  31
BRANCH  25  33
ATOM     33  C   UNL     1     -34.290  25.971   5.873  0.00  0.00    +0.169 C 
BRANCH  33  34
ATOM     34  O   UNL     1     -33.012  26.574   5.789  0.00  0.00    -0.379 OA
ATOM     35  H   UNL     1     -32.991  27.187   5.038  0.00  0.00    +0.211 HD
ENDBRANCH  33  34
ENDBRANCH  25  33
ENDBRANCH  20  26
ENDBRANCH   3  20
TORSDOF 9
ENDMDL
MODEL 8
REMARK VINA RESULT:      -6.5      5.129      9.012
REMARK  Name = 5487204
REMARK  9 active torsions:
REMARK  status: ('A' for Active; 'I' for Inactive)
REMARK    1  A    between atoms: C_3  and  O_20
REMARK    2  A    between atoms: C_8  and  O_16
REMARK    3  A    between atoms: C_14  and  O_18
REMARK    4  A    between atoms: O_20  and  C_26
REMARK    5  A    between atoms: C_22  and  O_27
REMARK    6  A    between atoms: C_23  and  O_29
REMARK    7  A    between atoms: C_24  and  O_31
REMARK    8  A    between atoms: C_25  and  C_33
REMARK    9  A    between atoms: C_33  and  O_34
REMARK                            x       y       z     vdW  Elec       q    Type
REMARK                         _______ _______ _______ _____ _____    ______ ____
ROOT
ATOM      1  O   UNL     1     -38.254  24.553   3.579  0.00  0.00    -0.453 OA
ATOM      2  O   UNL     1     -39.251  21.728   0.791  0.00  0.00    -0.286 OA
ATOM      3  C   UNL     1     -41.352  26.026   2.355  0.00  0.00    +0.147 C 
ATOM      4  C   UNL     1     -40.174  25.818   3.076  0.00  0.00    +0.075 C 
ATOM      5  C   UNL     1     -41.753  25.104   1.389  0.00  0.00    +0.074 C 
ATOM      6  C   UNL     1     -39.396  24.685   2.829  0.00  0.00    +0.154 A 
ATOM      7  C   UNL     1     -39.801  23.766   1.862  0.00  0.00    +0.107 A 
ATOM      8  C   UNL     1     -40.979  23.971   1.139  0.00  0.00    +0.143 C 
ATOM      9  C   UNL     1     -38.966  22.581   1.620  0.00  0.00    +0.204 A 
ATOM     10  C   UNL     1     -37.747  22.456   2.432  0.00  0.00    +0.077 A 
ATOM     11  C   UNL     1     -37.460  23.451   3.367  0.00  0.00    +0.149 A 
ATOM     12  C   UNL     1     -36.889  21.364   2.273  0.00  0.00    +0.043 C 
ATOM     13  C   UNL     1     -36.308  23.353   4.149  0.00  0.00    +0.041 C 
ATOM     14  C   UNL     1     -35.739  21.272   3.057  0.00  0.00    +0.139 C 
ATOM     15  C   UNL     1     -35.449  22.266   3.993  0.00  0.00    +0.040 C 
ENDROOT
BRANCH   8  16
ATOM     16  O   UNL     1     -41.415  23.102   0.184  0.00  0.00    -0.505 OA
ATOM     17  H   UNL     1     -42.326  22.890   0.124  0.00  0.00    +0.292 HD
ENDBRANCH   8  16
BRANCH  14  18
ATOM     18  O   UNL     1     -34.899  20.212   2.910  0.00  0.00    -0.471 OA
ATOM     19  C   UNL     1     -34.542  19.848   1.578  0.00  0.00    +0.252 C 
ENDBRANCH  14  18
BRANCH   3  20
ATOM     20  O   UNL     1     -42.109  27.132   2.596  0.00  0.00    -0.450 OA
BRANCH  20  26
ATOM     21  O   UNL     1     -44.241  26.468   3.272  0.00  0.00    -0.316 OA
ATOM     22  C   UNL     1     -44.345  28.535   5.264  0.00  0.00    +0.173 C 
ATOM     23  C   UNL     1     -45.582  27.742   4.838  0.00  0.00    +0.169 C 
ATOM     24  C   UNL     1     -43.264  28.495   4.184  0.00  0.00    +0.210 C 
ATOM     25  C   UNL     1     -45.189  26.352   4.334  0.00  0.00    +0.177 C 
ATOM     26  C   UNL     1     -43.019  27.069   3.694  0.00  0.00    +0.318 C 
BRANCH  22  27
ATOM     27  O   UNL     1     -44.743  29.887   5.491  0.00  0.00    -0.379 OA
ATOM     28  H   UNL     1     -44.189  30.275   6.185  0.00  0.00    +0.211 HD
ENDBRANCH  22  27
BRANCH  23  29
ATOM     29  O   UNL     1     -46.463  27.609   5.950  0.00  0.00    -0.379 OA
ATOM     30  H   UNL     1     -45.956  27.679   6.774  0.00  0.00    +0.211 HD
ENDBRANCH  23  29
BRANCH  24  31
ATOM     31  O   UNL     1     -42.041  29.001   4.720  0.00  0.00    -0.377 OA
ATOM     32  H   UNL     1     -42.058  29.970   4.704  0.00  0.00    +0.211 HD
ENDBRANCH  24  31
BRANCH  25  33
ATOM     33  C   UNL     1     -46.393  25.587   3.793  0.00  0.00    +0.169 C 
BRANCH  33  34
ATOM     34  O   UNL     1     -46.996  24.879   4.861  0.00  0.00    -0.379 OA
ATOM     35  H   UNL     1     -47.812  25.329   5.129  0.00  0.00    +0.211 HD
ENDBRANCH  33  34
ENDBRANCH  25  33
ENDBRANCH  20  26
ENDBRANCH   3  20
TORSDOF 9
ENDMDL
MODEL 9
REMARK VINA RESULT:      -6.4      5.180      8.379
REMARK  Name = 5487204
REMARK  9 active torsions:
REMARK  status: ('A' for Active; 'I' for Inactive)
REMARK    1  A    between atoms: C_3  and  O_20
REMARK    2  A    between atoms: C_8  and  O_16
REMARK    3  A    between atoms: C_14  and  O_18
REMARK    4  A    between atoms: O_20  and  C_26
REMARK    5  A    between atoms: C_22  and  O_27
REMARK    6  A    between atoms: C_23  and  O_29
REMARK    7  A    between atoms: C_24  and  O_31
REMARK    8  A    between atoms: C_25  and  C_33
REMARK    9  A    between atoms: C_33  and  O_34
REMARK                            x       y       z     vdW  Elec       q    Type
REMARK                         _______ _______ _______ _____ _____    ______ ____
ROOT
ATOM      1  O   UNL     1     -41.417  27.383   3.730  0.00  0.00    -0.453 OA
ATOM      2  O   UNL     1     -44.335  25.696   1.410  0.00  0.00    -0.286 OA
ATOM      3  C   UNL     1     -39.407  24.872   2.020  0.00  0.00    +0.147 C 
ATOM      4  C   UNL     1     -39.791  25.920   2.859  0.00  0.00    +0.075 C 
ATOM      5  C   UNL     1     -40.350  24.250   1.202  0.00  0.00    +0.074 C 
ATOM      6  C   UNL     1     -41.120  26.347   2.879  0.00  0.00    +0.154 A 
ATOM      7  C   UNL     1     -42.059  25.722   2.059  0.00  0.00    +0.107 A 
ATOM      8  C   UNL     1     -41.679  24.673   1.218  0.00  0.00    +0.143 C 
ATOM      9  C   UNL     1     -43.452  26.189   2.097  0.00  0.00    +0.204 A 
ATOM     10  C   UNL     1     -43.751  27.299   3.014  0.00  0.00    +0.077 A 
ATOM     11  C   UNL     1     -42.713  27.833   3.780  0.00  0.00    +0.149 A 
ATOM     12  C   UNL     1     -45.047  27.810   3.121  0.00  0.00    +0.043 C 
ATOM     13  C   UNL     1     -42.975  28.887   4.657  0.00  0.00    +0.041 C 
ATOM     14  C   UNL     1     -45.301  28.864   4.000  0.00  0.00    +0.139 C 
ATOM     15  C   UNL     1     -44.266  29.401   4.766  0.00  0.00    +0.040 C 
ENDROOT
BRANCH   8  16
ATOM     16  O   UNL     1     -42.559  24.031   0.401  0.00  0.00    -0.505 OA
ATOM     17  H   UNL     1     -42.244  23.502  -0.306  0.00  0.00    +0.292 HD
ENDBRANCH   8  16
BRANCH  14  18
ATOM     18  O   UNL     1     -46.560  29.369   4.109  0.00  0.00    -0.471 OA
ATOM     19  C   UNL     1     -46.726  30.760   3.844  0.00  0.00    +0.252 C 
ENDBRANCH  14  18
BRANCH   3  20
ATOM     20  O   UNL     1     -38.111  24.456   2.002  0.00  0.00    -0.450 OA
BRANCH  20  26
ATOM     21  O   UNL     1     -36.588  24.878   3.718  0.00  0.00    -0.316 OA
ATOM     22  C   UNL     1     -36.203  22.070   4.183  0.00  0.00    +0.173 C 
ATOM     23  C   UNL     1     -35.278  23.134   4.775  0.00  0.00    +0.169 C 
ATOM     24  C   UNL     1     -36.941  22.601   2.953  0.00  0.00    +0.210 C 
ATOM     25  C   UNL     1     -36.022  24.459   4.961  0.00  0.00    +0.177 C 
ATOM     26  C   UNL     1     -37.568  23.967   3.228  0.00  0.00    +0.318 C 
BRANCH  22  27
ATOM     27  O   UNL     1     -35.404  20.947   3.810  0.00  0.00    -0.379 OA
ATOM     28  H   UNL     1     -34.465  21.172   3.904  0.00  0.00    +0.211 HD
ENDBRANCH  22  27
BRANCH  23  29
ATOM     29  O   UNL     1     -34.790  22.687   6.036  0.00  0.00    -0.379 OA
ATOM     30  H   UNL     1     -34.330  23.415   6.483  0.00  0.00    +0.211 HD
ENDBRANCH  23  29
BRANCH  24  31
ATOM     31  O   UNL     1     -37.984  21.693   2.599  0.00  0.00    -0.377 OA
ATOM     32  H   UNL     1     -37.755  21.246   1.770  0.00  0.00    +0.211 HD
ENDBRANCH  24  31
BRANCH  25  33
ATOM     33  C   UNL     1     -35.089  25.568   5.439  0.00  0.00    +0.169 C 
BRANCH  33  34
ATOM     34  O   UNL     1     -35.657  26.817   5.089  0.00  0.00    -0.379 OA
ATOM     35  H   UNL     1     -35.309  27.102   4.231  0.00  0.00    +0.211 HD
ENDBRANCH  33  34
ENDBRANCH  25  33
ENDBRANCH  20  26
ENDBRANCH   3  20
TORSDOF 9
ENDMDL
