MODEL 1
REMARK VINA RESULT:      -5.3      0.000      0.000
REMARK  Name = 500903
REMARK  5 active torsions:
REMARK  status: ('A' for Active; 'I' for Inactive)
REMARK    1  A    between atoms: C_2  and  O_16
REMARK    2  A    between atoms: C_3  and  O_18
REMARK    3  A    between atoms: C_4  and  N_9
REMARK    4  A    between atoms: C_5  and  C_20
REMARK    5  A    between atoms: C_20  and  O_21
REMARK                            x       y       z     vdW  Elec       q    Type
REMARK                         _______ _______ _______ _____ _____    ______ ____
ROOT
ATOM      1  O   UNL     1     -34.472  25.950   1.862  0.00  0.00    -0.333 OA
ATOM      2  C   UNL     1     -35.012  26.194   4.151  0.00  0.00    +0.158 C 
ATOM      3  C   UNL     1     -34.273  27.457   3.708  0.00  0.00    +0.168 C 
ATOM      4  C   UNL     1     -35.507  25.657   2.810  0.00  0.00    +0.227 C 
ATOM      5  C   UNL     1     -33.751  27.116   2.310  0.00  0.00    +0.175 C 
ATOM      6  C   UNL     1     -34.089  25.228   4.900  0.00  0.00    +0.036 C 
ENDROOT
BRANCH   4   9
ATOM      7  O   UNL     1     -37.761  24.457   4.008  0.00  0.00    -0.252 OA
ATOM      8  O   UNL     1     -36.421  20.240   2.721  0.00  0.00    -0.270 OA
ATOM      9  N   UNL     1     -35.777  24.248   2.792  0.00  0.00    -0.217 N 
ATOM     10  N   UNL     1     -37.093  22.357   3.369  0.00  0.00    -0.236 N 
ATOM     11  C   UNL     1     -36.936  23.748   3.429  0.00  0.00    +0.315 C 
ATOM     12  C   UNL     1     -34.900  23.386   2.149  0.00  0.00    +0.076 C 
ATOM     13  C   UNL     1     -35.066  22.063   2.095  0.00  0.00    +0.074 C 
ATOM     14  C   UNL     1     -36.243  21.454   2.749  0.00  0.00    +0.254 C 
ATOM     15  H   UNL     1     -37.888  21.983   3.813  0.00  0.00    +0.159 HD
ENDBRANCH   4   9
BRANCH   2  16
ATOM     16  O   UNL     1     -36.110  26.498   4.999  0.00  0.00    -0.380 OA
ATOM     17  H   UNL     1     -36.431  25.684   5.418  0.00  0.00    +0.211 HD
ENDBRANCH   2  16
BRANCH   3  18
ATOM     18  O   UNL     1     -35.182  28.556   3.594  0.00  0.00    -0.379 OA
ATOM     19  H   UNL     1     -34.760  29.361   3.932  0.00  0.00    +0.211 HD
ENDBRANCH   3  18
BRANCH   5  20
ATOM     20  C   UNL     1     -32.262  26.815   2.261  0.00  0.00    +0.169 C 
BRANCH  20  21
ATOM     21  O   UNL     1     -31.663  27.273   3.461  0.00  0.00    -0.379 OA
ATOM     22  H   UNL     1     -30.738  26.980   3.494  0.00  0.00    +0.211 HD
ENDBRANCH  20  21
ENDBRANCH   5  20
TORSDOF 5
ENDMDL
MODEL 2
REMARK VINA RESULT:      -5.2      2.367      5.497
REMARK  Name = 500903
REMARK  5 active torsions:
REMARK  status: ('A' for Active; 'I' for Inactive)
REMARK    1  A    between atoms: C_2  and  O_16
REMARK    2  A    between atoms: C_3  and  O_18
REMARK    3  A    between atoms: C_4  and  N_9
REMARK    4  A    between atoms: C_5  and  C_20
REMARK    5  A    between atoms: C_20  and  O_21
REMARK                            x       y       z     vdW  Elec       q    Type
REMARK                         _______ _______ _______ _____ _____    ______ ____
ROOT
ATOM      1  O   UNL     1     -35.893  21.289   3.403  0.00  0.00    -0.333 OA
ATOM      2  C   UNL     1     -36.968  22.660   1.805  0.00  0.00    +0.158 C 
ATOM      3  C   UNL     1     -37.021  21.220   1.295  0.00  0.00    +0.168 C 
ATOM      4  C   UNL     1     -36.745  22.436   3.299  0.00  0.00    +0.227 C 
ATOM      5  C   UNL     1     -36.103  20.450   2.248  0.00  0.00    +0.175 C 
ATOM      6  C   UNL     1     -35.852  23.462   1.129  0.00  0.00    +0.036 C 
ENDROOT
BRANCH   4   9
ATOM      7  O   UNL     1     -38.131  24.750   4.125  0.00  0.00    -0.252 OA
ATOM      8  O   UNL     1     -34.308  26.625   5.886  0.00  0.00    -0.270 OA
ATOM      9  N   UNL     1     -36.138  23.539   3.987  0.00  0.00    -0.217 N 
ATOM     10  N   UNL     1     -36.227  25.685   5.000  0.00  0.00    -0.236 N 
ATOM     11  C   UNL     1     -36.923  24.656   4.352  0.00  0.00    +0.315 C 
ATOM     12  C   UNL     1     -34.784  23.500   4.289  0.00  0.00    +0.076 C 
ATOM     13  C   UNL     1     -34.135  24.487   4.912  0.00  0.00    +0.074 C 
ATOM     14  C   UNL     1     -34.877  25.699   5.316  0.00  0.00    +0.254 C 
ATOM     15  H   UNL     1     -36.749  26.478   5.258  0.00  0.00    +0.159 HD
ENDBRANCH   4   9
BRANCH   2  16
ATOM     16  O   UNL     1     -38.194  23.342   1.583  0.00  0.00    -0.380 OA
ATOM     17  H   UNL     1     -38.666  23.443   2.425  0.00  0.00    +0.211 HD
ENDBRANCH   2  16
BRANCH   3  18
ATOM     18  O   UNL     1     -38.344  20.692   1.422  0.00  0.00    -0.379 OA
ATOM     19  H   UNL     1     -38.310  19.840   1.884  0.00  0.00    +0.211 HD
ENDBRANCH   3  18
BRANCH   5  20
ATOM     20  C   UNL     1     -34.749  20.096   1.652  0.00  0.00    +0.169 C 
BRANCH  20  21
ATOM     21  O   UNL     1     -34.811  18.783   1.125  0.00  0.00    -0.379 OA
ATOM     22  H   UNL     1     -34.168  18.693   0.404  0.00  0.00    +0.211 HD
ENDBRANCH  20  21
ENDBRANCH   5  20
TORSDOF 5
ENDMDL
MODEL 3
REMARK VINA RESULT:      -5.2      2.632      5.625
REMARK  Name = 500903
REMARK  5 active torsions:
REMARK  status: ('A' for Active; 'I' for Inactive)
REMARK    1  A    between atoms: C_2  and  O_16
REMARK    2  A    between atoms: C_3  and  O_18
REMARK    3  A    between atoms: C_4  and  N_9
REMARK    4  A    between atoms: C_5  and  C_20
REMARK    5  A    between atoms: C_20  and  O_21
REMARK                            x       y       z     vdW  Elec       q    Type
REMARK                         _______ _______ _______ _____ _____    ______ ____
ROOT
ATOM      1  O   UNL     1     -34.612  21.888   1.146  0.00  0.00    -0.333 OA
ATOM      2  C   UNL     1     -36.492  20.652   1.874  0.00  0.00    +0.158 C 
ATOM      3  C   UNL     1     -36.020  20.048   0.551  0.00  0.00    +0.168 C 
ATOM      4  C   UNL     1     -35.229  21.377   2.335  0.00  0.00    +0.227 C 
ATOM      5  C   UNL     1     -34.977  21.042   0.035  0.00  0.00    +0.175 C 
ATOM      6  C   UNL     1     -37.697  21.578   1.679  0.00  0.00    +0.036 C 
ENDROOT
BRANCH   4   9
ATOM      7  O   UNL     1     -35.371  21.083   5.137  0.00  0.00    -0.252 OA
ATOM      8  O   UNL     1     -36.158  25.582   5.745  0.00  0.00    -0.270 OA
ATOM      9  N   UNL     1     -35.458  22.457   3.249  0.00  0.00    -0.217 N 
ATOM     10  N   UNL     1     -35.765  23.323   5.439  0.00  0.00    -0.236 N 
ATOM     11  C   UNL     1     -35.517  22.201   4.638  0.00  0.00    +0.315 C 
ATOM     12  C   UNL     1     -35.619  23.748   2.764  0.00  0.00    +0.076 C 
ATOM     13  C   UNL     1     -35.850  24.809   3.541  0.00  0.00    +0.074 C 
ATOM     14  C   UNL     1     -35.942  24.627   5.005  0.00  0.00    +0.254 C 
ATOM     15  H   UNL     1     -35.819  23.169   6.410  0.00  0.00    +0.159 HD
ENDBRANCH   4   9
BRANCH   2  16
ATOM     16  O   UNL     1     -36.857  19.648   2.810  0.00  0.00    -0.380 OA
ATOM     17  H   UNL     1     -37.122  18.845   2.336  0.00  0.00    +0.211 HD
ENDBRANCH   2  16
BRANCH   3  18
ATOM     18  O   UNL     1     -35.372  18.793   0.777  0.00  0.00    -0.379 OA
ATOM     19  H   UNL     1     -35.958  18.072   0.498  0.00  0.00    +0.211 HD
ENDBRANCH   3  18
BRANCH   5  20
ATOM     20  C   UNL     1     -35.470  21.922  -1.103  0.00  0.00    +0.169 C 
BRANCH  20  21
ATOM     21  O   UNL     1     -35.452  23.273  -0.677  0.00  0.00    -0.379 OA
ATOM     22  H   UNL     1     -35.974  23.363   0.136  0.00  0.00    +0.211 HD
ENDBRANCH  20  21
ENDBRANCH   5  20
TORSDOF 5
ENDMDL
MODEL 4
REMARK VINA RESULT:      -5.1      2.530      3.929
REMARK  Name = 500903
REMARK  5 active torsions:
REMARK  status: ('A' for Active; 'I' for Inactive)
REMARK    1  A    between atoms: C_2  and  O_16
REMARK    2  A    between atoms: C_3  and  O_18
REMARK    3  A    between atoms: C_4  and  N_9
REMARK    4  A    between atoms: C_5  and  C_20
REMARK    5  A    between atoms: C_20  and  O_21
REMARK                            x       y       z     vdW  Elec       q    Type
REMARK                         _______ _______ _______ _____ _____    ______ ____
ROOT
ATOM      1  O   UNL     1     -38.212  23.585   3.100  0.00  0.00    -0.333 OA
ATOM      2  C   UNL     1     -35.898  24.040   3.266  0.00  0.00    +0.158 C 
ATOM      3  C   UNL     1     -36.653  25.238   3.842  0.00  0.00    +0.168 C 
ATOM      4  C   UNL     1     -36.958  22.946   3.372  0.00  0.00    +0.227 C 
ATOM      5  C   UNL     1     -38.114  24.974   3.474  0.00  0.00    +0.175 C 
ATOM      6  C   UNL     1     -35.423  24.302   1.834  0.00  0.00    +0.036 C 
ENDROOT
BRANCH   4   9
ATOM      7  O   UNL     1     -35.220  20.772   3.829  0.00  0.00    -0.252 OA
ATOM      8  O   UNL     1     -36.318  18.820  -0.199  0.00  0.00    -0.270 OA
ATOM      9  N   UNL     1     -36.780  21.850   2.464  0.00  0.00    -0.217 N 
ATOM     10  N   UNL     1     -35.765  19.801   1.822  0.00  0.00    -0.236 N 
ATOM     11  C   UNL     1     -35.877  20.811   2.787  0.00  0.00    +0.315 C 
ATOM     12  C   UNL     1     -37.496  21.817   1.276  0.00  0.00    +0.076 C 
ATOM     13  C   UNL     1     -37.382  20.844   0.368  0.00  0.00    +0.074 C 
ATOM     14  C   UNL     1     -36.449  19.727   0.618  0.00  0.00    +0.254 C 
ATOM     15  H   UNL     1     -35.136  19.070   2.019  0.00  0.00    +0.159 HD
ENDBRANCH   4   9
BRANCH   2  16
ATOM     16  O   UNL     1     -34.762  23.708   4.051  0.00  0.00    -0.380 OA
ATOM     17  H   UNL     1     -35.033  23.138   4.788  0.00  0.00    +0.211 HD
ENDBRANCH   2  16
BRANCH   3  18
ATOM     18  O   UNL     1     -36.545  25.260   5.269  0.00  0.00    -0.379 OA
ATOM     19  H   UNL     1     -37.412  25.456   5.656  0.00  0.00    +0.211 HD
ENDBRANCH   3  18
BRANCH   5  20
ATOM     20  C   UNL     1     -38.627  25.824   2.322  0.00  0.00    +0.169 C 
BRANCH  20  21
ATOM     21  O   UNL     1     -37.865  27.018   2.261  0.00  0.00    -0.379 OA
ATOM     22  H   UNL     1     -37.157  26.984   2.923  0.00  0.00    +0.211 HD
ENDBRANCH  20  21
ENDBRANCH   5  20
TORSDOF 5
ENDMDL
MODEL 5
REMARK VINA RESULT:      -5.0      2.137      2.840
REMARK  Name = 500903
REMARK  5 active torsions:
REMARK  status: ('A' for Active; 'I' for Inactive)
REMARK    1  A    between atoms: C_2  and  O_16
REMARK    2  A    between atoms: C_3  and  O_18
REMARK    3  A    between atoms: C_4  and  N_9
REMARK    4  A    between atoms: C_5  and  C_20
REMARK    5  A    between atoms: C_20  and  O_21
REMARK                            x       y       z     vdW  Elec       q    Type
REMARK                         _______ _______ _______ _____ _____    ______ ____
ROOT
ATOM      1  O   UNL     1     -36.936  25.340   1.645  0.00  0.00    -0.333 OA
ATOM      2  C   UNL     1     -35.353  26.683   2.776  0.00  0.00    +0.158 C 
ATOM      3  C   UNL     1     -35.813  27.448   1.535  0.00  0.00    +0.168 C 
ATOM      4  C   UNL     1     -36.510  25.704   2.964  0.00  0.00    +0.227 C 
ATOM      5  C   UNL     1     -36.631  26.425   0.744  0.00  0.00    +0.175 C 
ATOM      6  C   UNL     1     -33.998  26.002   2.555  0.00  0.00    +0.036 C 
ENDROOT
BRANCH   4   9
ATOM      7  O   UNL     1     -36.235  25.593   5.769  0.00  0.00    -0.252 OA
ATOM      8  O   UNL     1     -35.183  21.108   5.665  0.00  0.00    -0.270 OA
ATOM      9  N   UNL     1     -36.177  24.517   3.696  0.00  0.00    -0.217 N 
ATOM     10  N   UNL     1     -35.709  23.360   5.717  0.00  0.00    -0.236 N 
ATOM     11  C   UNL     1     -36.057  24.570   5.104  0.00  0.00    +0.315 C 
ATOM     12  C   UNL     1     -35.974  23.323   3.018  0.00  0.00    +0.076 C 
ATOM     13  C   UNL     1     -35.648  22.176   3.617  0.00  0.00    +0.074 C 
ATOM     14  C   UNL     1     -35.487  22.146   5.085  0.00  0.00    +0.254 C 
ATOM     15  H   UNL     1     -35.612  23.373   6.696  0.00  0.00    +0.159 HD
ENDBRANCH   4   9
BRANCH   2  16
ATOM     16  O   UNL     1     -35.236  27.535   3.906  0.00  0.00    -0.380 OA
ATOM     17  H   UNL     1     -35.388  27.024   4.715  0.00  0.00    +0.211 HD
ENDBRANCH   2  16
BRANCH   3  18
ATOM     18  O   UNL     1     -36.677  28.528   1.903  0.00  0.00    -0.379 OA
ATOM     19  H   UNL     1     -37.146  28.848   1.118  0.00  0.00    +0.211 HD
ENDBRANCH   3  18
BRANCH   5  20
ATOM     20  C   UNL     1     -35.910  25.860  -0.469  0.00  0.00    +0.169 C 
BRANCH  20  21
ATOM     21  O   UNL     1     -35.749  24.463  -0.295  0.00  0.00    -0.379 OA
ATOM     22  H   UNL     1     -35.870  24.237   0.640  0.00  0.00    +0.211 HD
ENDBRANCH  20  21
ENDBRANCH   5  20
TORSDOF 5
ENDMDL
MODEL 6
REMARK VINA RESULT:      -5.0      2.553      4.338
REMARK  Name = 500903
REMARK  5 active torsions:
REMARK  status: ('A' for Active; 'I' for Inactive)
REMARK    1  A    between atoms: C_2  and  O_16
REMARK    2  A    between atoms: C_3  and  O_18
REMARK    3  A    between atoms: C_4  and  N_9
REMARK    4  A    between atoms: C_5  and  C_20
REMARK    5  A    between atoms: C_20  and  O_21
REMARK                            x       y       z     vdW  Elec       q    Type
REMARK                         _______ _______ _______ _____ _____    ______ ____
ROOT
ATOM      1  O   UNL     1     -36.592  25.490   4.856  0.00  0.00    -0.333 OA
ATOM      2  C   UNL     1     -36.127  23.417   3.819  0.00  0.00    +0.158 C 
ATOM      3  C   UNL     1     -35.376  23.452   5.150  0.00  0.00    +0.168 C 
ATOM      4  C   UNL     1     -37.208  24.467   4.062  0.00  0.00    +0.227 C 
ATOM      5  C   UNL     1     -35.528  24.897   5.629  0.00  0.00    +0.175 C 
ATOM      6  C   UNL     1     -35.207  23.741   2.638  0.00  0.00    +0.036 C 
ENDROOT
BRANCH   4   9
ATOM      7  O   UNL     1     -39.275  23.321   2.523  0.00  0.00    -0.252 OA
ATOM      8  O   UNL     1     -39.179  26.788  -0.511  0.00  0.00    -0.270 OA
ATOM      9  N   UNL     1     -37.750  25.056   2.872  0.00  0.00    -0.217 N 
ATOM     10  N   UNL     1     -39.226  25.046   1.011  0.00  0.00    -0.236 N 
ATOM     11  C   UNL     1     -38.784  24.395   2.170  0.00  0.00    +0.315 C 
ATOM     12  C   UNL     1     -37.257  26.271   2.419  0.00  0.00    +0.076 C 
ATOM     13  C   UNL     1     -37.693  26.883   1.315  0.00  0.00    +0.074 C 
ATOM     14  C   UNL     1     -38.761  26.253   0.512  0.00  0.00    +0.254 C 
ATOM     15  H   UNL     1     -39.940  24.602   0.499  0.00  0.00    +0.159 HD
ENDBRANCH   4   9
BRANCH   2  16
ATOM     16  O   UNL     1     -36.715  22.146   3.580  0.00  0.00    -0.380 OA
ATOM     17  H   UNL     1     -36.192  21.665   2.920  0.00  0.00    +0.211 HD
ENDBRANCH   2  16
BRANCH   3  18
ATOM     18  O   UNL     1     -36.007  22.593   6.104  0.00  0.00    -0.379 OA
ATOM     19  H   UNL     1     -36.509  23.128   6.739  0.00  0.00    +0.211 HD
ENDBRANCH   3  18
BRANCH   5  20
ATOM     20  C   UNL     1     -34.275  25.742   5.457  0.00  0.00    +0.169 C 
BRANCH  20  21
ATOM     21  O   UNL     1     -34.633  26.971   4.849  0.00  0.00    -0.379 OA
ATOM     22  H   UNL     1     -34.495  27.696   5.479  0.00  0.00    +0.211 HD
ENDBRANCH  20  21
ENDBRANCH   5  20
TORSDOF 5
ENDMDL
MODEL 7
REMARK VINA RESULT:      -5.0      2.479      4.118
REMARK  Name = 500903
REMARK  5 active torsions:
REMARK  status: ('A' for Active; 'I' for Inactive)
REMARK    1  A    between atoms: C_2  and  O_16
REMARK    2  A    between atoms: C_3  and  O_18
REMARK    3  A    between atoms: C_4  and  N_9
REMARK    4  A    between atoms: C_5  and  C_20
REMARK    5  A    between atoms: C_20  and  O_21
REMARK                            x       y       z     vdW  Elec       q    Type
REMARK                         _______ _______ _______ _____ _____    ______ ____
ROOT
ATOM      1  O   UNL     1     -35.621  23.821   3.478  0.00  0.00    -0.333 OA
ATOM      2  C   UNL     1     -35.520  25.997   4.396  0.00  0.00    +0.158 C 
ATOM      3  C   UNL     1     -34.261  25.247   4.832  0.00  0.00    +0.168 C 
ATOM      4  C   UNL     1     -35.937  25.185   3.172  0.00  0.00    +0.227 C 
ATOM      5  C   UNL     1     -34.522  23.799   4.412  0.00  0.00    +0.175 C 
ATOM      6  C   UNL     1     -36.576  26.029   5.504  0.00  0.00    +0.036 C 
ENDROOT
BRANCH   4   9
ATOM      7  O   UNL     1     -37.095  27.380   1.831  0.00  0.00    -0.252 OA
ATOM      8  O   UNL     1     -41.289  25.476   1.967  0.00  0.00    -0.270 OA
ATOM      9  N   UNL     1     -37.327  25.283   2.833  0.00  0.00    -0.217 N 
ATOM     10  N   UNL     1     -39.184  26.433   1.901  0.00  0.00    -0.236 N 
ATOM     11  C   UNL     1     -37.808  26.431   2.165  0.00  0.00    +0.315 C 
ATOM     12  C   UNL     1     -38.191  24.248   3.165  0.00  0.00    +0.076 C 
ATOM     13  C   UNL     1     -39.500  24.262   2.902  0.00  0.00    +0.074 C 
ATOM     14  C   UNL     1     -40.089  25.432   2.219  0.00  0.00    +0.254 C 
ATOM     15  H   UNL     1     -39.545  27.226   1.443  0.00  0.00    +0.159 HD
ENDBRANCH   4   9
BRANCH   2  16
ATOM     16  O   UNL     1     -35.231  27.338   4.026  0.00  0.00    -0.380 OA
ATOM     17  H   UNL     1     -36.036  27.763   3.692  0.00  0.00    +0.211 HD
ENDBRANCH   2  16
BRANCH   3  18
ATOM     18  O   UNL     1     -33.119  25.725   4.115  0.00  0.00    -0.379 OA
ATOM     19  H   UNL     1     -32.394  25.893   4.737  0.00  0.00    +0.211 HD
ENDBRANCH   3  18
BRANCH   5  20
ATOM     20  C   UNL     1     -34.884  22.875   5.564  0.00  0.00    +0.169 C 
BRANCH  20  21
ATOM     21  O   UNL     1     -36.214  22.422   5.387  0.00  0.00    -0.379 OA
ATOM     22  H   UNL     1     -36.514  22.640   4.490  0.00  0.00    +0.211 HD
ENDBRANCH  20  21
ENDBRANCH   5  20
TORSDOF 5
ENDMDL
MODEL 8
REMARK VINA RESULT:      -5.0      2.991      4.473
REMARK  Name = 500903
REMARK  5 active torsions:
REMARK  status: ('A' for Active; 'I' for Inactive)
REMARK    1  A    between atoms: C_2  and  O_16
REMARK    2  A    between atoms: C_3  and  O_18
REMARK    3  A    between atoms: C_4  and  N_9
REMARK    4  A    between atoms: C_5  and  C_20
REMARK    5  A    between atoms: C_20  and  O_21
REMARK                            x       y       z     vdW  Elec       q    Type
REMARK                         _______ _______ _______ _____ _____    ______ ____
ROOT
ATOM      1  O   UNL     1     -39.534  23.781   2.168  0.00  0.00    -0.333 OA
ATOM      2  C   UNL     1     -37.941  25.421   2.766  0.00  0.00    +0.158 C 
ATOM      3  C   UNL     1     -39.227  26.144   2.365  0.00  0.00    +0.168 C 
ATOM      4  C   UNL     1     -38.476  24.031   3.101  0.00  0.00    +0.227 C 
ATOM      5  C   UNL     1     -40.105  25.043   1.766  0.00  0.00    +0.175 C 
ATOM      6  C   UNL     1     -36.908  25.429   1.634  0.00  0.00    +0.036 C 
ENDROOT
BRANCH   4   9
ATOM      7  O   UNL     1     -36.468  23.549   5.023  0.00  0.00    -0.252 OA
ATOM      8  O   UNL     1     -34.781  19.993   2.626  0.00  0.00    -0.270 OA
ATOM      9  N   UNL     1     -37.507  22.978   3.010  0.00  0.00    -0.217 N 
ATOM     10  N   UNL     1     -35.627  21.780   3.828  0.00  0.00    -0.236 N 
ATOM     11  C   UNL     1     -36.537  22.826   4.026  0.00  0.00    +0.315 C 
ATOM     12  C   UNL     1     -37.528  22.115   1.923  0.00  0.00    +0.076 C 
ATOM     13  C   UNL     1     -36.657  21.118   1.750  0.00  0.00    +0.074 C 
ATOM     14  C   UNL     1     -35.600  20.898   2.759  0.00  0.00    +0.254 C 
ATOM     15  H   UNL     1     -34.936  21.658   4.518  0.00  0.00    +0.159 HD
ENDBRANCH   4   9
BRANCH   2  16
ATOM     16  O   UNL     1     -37.341  26.012   3.910  0.00  0.00    -0.380 OA
ATOM     17  H   UNL     1     -36.725  26.707   3.632  0.00  0.00    +0.211 HD
ENDBRANCH   2  16
BRANCH   3  18
ATOM     18  O   UNL     1     -39.888  26.668   3.520  0.00  0.00    -0.379 OA
ATOM     19  H   UNL     1     -39.268  26.690   4.265  0.00  0.00    +0.211 HD
ENDBRANCH   3  18
BRANCH   5  20
ATOM     20  C   UNL     1     -40.190  25.076   0.248  0.00  0.00    +0.169 C 
BRANCH  20  21
ATOM     21  O   UNL     1     -39.638  23.876  -0.267  0.00  0.00    -0.379 OA
ATOM     22  H   UNL     1     -38.798  24.072  -0.712  0.00  0.00    +0.211 HD
ENDBRANCH  20  21
ENDBRANCH   5  20
TORSDOF 5
ENDMDL
MODEL 9
REMARK VINA RESULT:      -4.9      1.814      5.356
REMARK  Name = 500903
REMARK  5 active torsions:
REMARK  status: ('A' for Active; 'I' for Inactive)
REMARK    1  A    between atoms: C_2  and  O_16
REMARK    2  A    between atoms: C_3  and  O_18
REMARK    3  A    between atoms: C_4  and  N_9
REMARK    4  A    between atoms: C_5  and  C_20
REMARK    5  A    between atoms: C_20  and  O_21
REMARK                            x       y       z     vdW  Elec       q    Type
REMARK                         _______ _______ _______ _____ _____    ______ ____
ROOT
ATOM      1  O   UNL     1     -34.684  23.050   1.802  0.00  0.00    -0.333 OA
ATOM      2  C   UNL     1     -36.369  22.875   3.451  0.00  0.00    +0.158 C 
ATOM      3  C   UNL     1     -36.290  21.535   2.721  0.00  0.00    +0.168 C 
ATOM      4  C   UNL     1     -34.994  23.462   3.139  0.00  0.00    +0.227 C 
ATOM      5  C   UNL     1     -35.368  21.809   1.531  0.00  0.00    +0.175 C 
ATOM      6  C   UNL     1     -37.535  23.731   2.946  0.00  0.00    +0.036 C 
ENDROOT
BRANCH   4   9
ATOM      7  O   UNL     1     -34.650  24.901   5.541  0.00  0.00    -0.252 OA
ATOM      8  O   UNL     1     -34.776  28.948   3.341  0.00  0.00    -0.270 OA
ATOM      9  N   UNL     1     -34.921  24.892   3.221  0.00  0.00    -0.217 N 
ATOM     10  N   UNL     1     -34.715  26.916   4.446  0.00  0.00    -0.236 N 
ATOM     11  C   UNL     1     -34.753  25.516   4.478  0.00  0.00    +0.315 C 
ATOM     12  C   UNL     1     -35.016  25.654   2.064  0.00  0.00    +0.076 C 
ATOM     13  C   UNL     1     -34.973  26.988   2.049  0.00  0.00    +0.074 C 
ATOM     14  C   UNL     1     -34.814  27.722   3.322  0.00  0.00    +0.254 C 
ATOM     15  H   UNL     1     -34.607  27.375   5.310  0.00  0.00    +0.159 HD
ENDBRANCH   4   9
BRANCH   2  16
ATOM     16  O   UNL     1     -36.527  22.702   4.852  0.00  0.00    -0.380 OA
ATOM     17  H   UNL     1     -37.441  22.910   5.103  0.00  0.00    +0.211 HD
ENDBRANCH   2  16
BRANCH   3  18
ATOM     18  O   UNL     1     -35.670  20.547   3.551  0.00  0.00    -0.379 OA
ATOM     19  H   UNL     1     -35.878  20.730   4.480  0.00  0.00    +0.211 HD
ENDBRANCH   3  18
BRANCH   5  20
ATOM     20  C   UNL     1     -36.095  21.938   0.201  0.00  0.00    +0.169 C 
BRANCH  20  21
ATOM     21  O   UNL     1     -37.355  21.297   0.305  0.00  0.00    -0.379 OA
ATOM     22  H   UNL     1     -37.437  20.629  -0.394  0.00  0.00    +0.211 HD
ENDBRANCH  20  21
ENDBRANCH   5  20
TORSDOF 5
ENDMDL
