MODEL 1
REMARK VINA RESULT:      -5.5      0.000      0.000
REMARK  Name = 21593573
REMARK  9 active torsions:
REMARK  status: ('A' for Active; 'I' for Inactive)
REMARK    1  A    between atoms: C_4  and  O_18
REMARK    2  A    between atoms: C_6  and  O_25
REMARK    3  A    between atoms: C_10  and  C_17
REMARK    4  A    between atoms: C_11  and  C_29
REMARK    5  A    between atoms: O_18  and  C_20
REMARK    6  A    between atoms: C_20  and  C_21
REMARK    7  A    between atoms: C_21  and  C_23
REMARK    8  A    between atoms: O_25  and  C_27
REMARK    9  A    between atoms: C_29  and  O_30
REMARK                            x       y       z     vdW  Elec       q    Type
REMARK                         _______ _______ _______ _____ _____    ______ ____
ROOT
ATOM      1  O   UNL     1     -34.040  25.262  -0.219  0.00  0.00    -0.449 OA
ATOM      2  O   UNL     1     -34.770  27.375  -0.768  0.00  0.00    -0.245 OA
ATOM      3  C   UNL     1     -35.646  24.672   1.424  0.00  0.00    +0.113 C 
ATOM      4  C   UNL     1     -35.939  24.261   2.886  0.00  0.00    +0.220 C 
ATOM      5  C   UNL     1     -34.219  24.415   0.924  0.00  0.00    +0.177 C 
ATOM      6  C   UNL     1     -35.976  22.730   3.159  0.00  0.00    +0.234 C 
ATOM      7  C   UNL     1     -35.732  26.125   1.067  0.00  0.00    +0.060 C 
ATOM      8  C   UNL     1     -33.966  22.971   0.614  0.00  0.00    +0.047 C 
ATOM      9  C   UNL     1     -34.816  26.379  -0.071  0.00  0.00    +0.337 C 
ATOM     10  C   UNL     1     -36.889  21.905   2.281  0.00  0.00    +0.059 C 
ATOM     11  C   UNL     1     -34.581  22.190  -0.296  0.00  0.00    +0.033 C 
ATOM     12  C   UNL     1     -34.560  20.686  -0.090  0.00  0.00    +0.007 C 
ATOM     13  C   UNL     1     -35.191  20.273   1.260  0.00  0.00    +0.026 C 
ATOM     14  C   UNL     1     -36.562  20.870   1.483  0.00  0.00    -0.024 C 
ATOM     15  C   UNL     1     -36.447  27.110   1.614  0.00  0.00    +0.002 C 
ENDROOT
BRANCH  10  17
ATOM     16  O   UNL     1     -39.195  21.416   2.129  0.00  0.00    -0.283 OA
ATOM     17  C   UNL     1     -38.320  22.257   2.265  0.00  0.00    +0.233 C 
ENDBRANCH  10  17
BRANCH   4  18
ATOM     18  O   UNL     1     -34.933  24.804   3.751  0.00  0.00    -0.448 OA
BRANCH  18  20
ATOM     19  O   UNL     1     -36.500  25.763   5.147  0.00  0.00    -0.250 OA
ATOM     20  C   UNL     1     -35.375  25.717   4.664  0.00  0.00    +0.316 C 
BRANCH  20  21
ATOM     21  C   UNL     1     -34.262  26.702   4.978  0.00  0.00    +0.099 C 
ATOM     22  C   UNL     1     -33.264  26.682   3.825  0.00  0.00    +0.012 C 
BRANCH  21  23
ATOM     23  C   UNL     1     -33.570  26.365   6.307  0.00  0.00    +0.011 C 
ATOM     24  C   UNL     1     -32.532  27.406   6.705  0.00  0.00    +0.001 C 
ENDBRANCH  21  23
ENDBRANCH  20  21
ENDBRANCH  18  20
ENDBRANCH   4  18
BRANCH   6  25
ATOM     25  O   UNL     1     -36.373  22.522   4.524  0.00  0.00    -0.444 OA
BRANCH  25  27
ATOM     26  O   UNL     1     -35.077  20.666   4.980  0.00  0.00    -0.250 OA
ATOM     27  C   UNL     1     -35.518  21.770   5.269  0.00  0.00    +0.318 C 
ATOM     28  C   UNL     1     -35.183  22.505   6.531  0.00  0.00    +0.121 C 
ENDBRANCH  25  27
ENDBRANCH   6  25
BRANCH  11  29
ATOM     29  C   UNL     1     -35.462  22.667  -1.415  0.00  0.00    +0.137 C 
BRANCH  29  30
ATOM     30  O   UNL     1     -34.670  23.264  -2.423  0.00  0.00    -0.382 OA
ATOM     31  H   UNL     1     -35.195  23.927  -2.897  0.00  0.00    +0.210 HD
ENDBRANCH  29  30
ENDBRANCH  11  29
TORSDOF 9
ENDMDL
MODEL 2
REMARK VINA RESULT:      -5.3      3.153      6.943
REMARK  Name = 21593573
REMARK  9 active torsions:
REMARK  status: ('A' for Active; 'I' for Inactive)
REMARK    1  A    between atoms: C_4  and  O_18
REMARK    2  A    between atoms: C_6  and  O_25
REMARK    3  A    between atoms: C_10  and  C_17
REMARK    4  A    between atoms: C_11  and  C_29
REMARK    5  A    between atoms: O_18  and  C_20
REMARK    6  A    between atoms: C_20  and  C_21
REMARK    7  A    between atoms: C_21  and  C_23
REMARK    8  A    between atoms: O_25  and  C_27
REMARK    9  A    between atoms: C_29  and  O_30
REMARK                            x       y       z     vdW  Elec       q    Type
REMARK                         _______ _______ _______ _____ _____    ______ ____
ROOT
ATOM      1  O   UNL     1     -36.458  28.908   1.494  0.00  0.00    -0.449 OA
ATOM      2  O   UNL     1     -37.207  27.237   0.098  0.00  0.00    -0.245 OA
ATOM      3  C   UNL     1     -34.418  27.955   2.240  0.00  0.00    +0.113 C 
ATOM      4  C   UNL     1     -33.559  27.453   3.424  0.00  0.00    +0.220 C 
ATOM      5  C   UNL     1     -35.534  28.948   2.589  0.00  0.00    +0.177 C 
ATOM      6  C   UNL     1     -32.606  28.508   4.057  0.00  0.00    +0.234 C 
ATOM      7  C   UNL     1     -35.255  26.956   1.501  0.00  0.00    +0.060 C 
ATOM      8  C   UNL     1     -35.018  30.329   2.855  0.00  0.00    +0.047 C 
ATOM      9  C   UNL     1     -36.427  27.662   0.931  0.00  0.00    +0.337 C 
ATOM     10  C   UNL     1     -31.673  29.232   3.114  0.00  0.00    +0.059 C 
ATOM     11  C   UNL     1     -34.351  31.148   2.018  0.00  0.00    +0.033 C 
ATOM     12  C   UNL     1     -33.478  32.236   2.616  0.00  0.00    +0.007 C 
ATOM     13  C   UNL     1     -32.382  31.662   3.543  0.00  0.00    +0.026 C 
ATOM     14  C   UNL     1     -31.575  30.559   2.898  0.00  0.00    -0.024 C 
ATOM     15  C   UNL     1     -35.089  25.642   1.334  0.00  0.00    +0.002 C 
ENDROOT
BRANCH  10  17
ATOM     16  O   UNL     1     -30.894  28.259   1.108  0.00  0.00    -0.283 OA
ATOM     17  C   UNL     1     -30.747  28.415   2.309  0.00  0.00    +0.233 C 
ENDBRANCH  10  17
BRANCH   4  18
ATOM     18  O   UNL     1     -34.413  26.993   4.479  0.00  0.00    -0.448 OA
BRANCH  18  20
ATOM     19  O   UNL     1     -33.336  24.953   4.544  0.00  0.00    -0.250 OA
ATOM     20  C   UNL     1     -34.299  25.668   4.790  0.00  0.00    +0.316 C 
BRANCH  20  21
ATOM     21  C   UNL     1     -35.573  25.194   5.468  0.00  0.00    +0.099 C 
ATOM     22  C   UNL     1     -35.494  23.679   5.634  0.00  0.00    +0.012 C 
BRANCH  21  23
ATOM     23  C   UNL     1     -36.821  25.592   4.666  0.00  0.00    +0.011 C 
ATOM     24  C   UNL     1     -37.337  24.459   3.789  0.00  0.00    +0.001 C 
ENDBRANCH  21  23
ENDBRANCH  20  21
ENDBRANCH  18  20
ENDBRANCH   4  18
BRANCH   6  25
ATOM     25  O   UNL     1     -31.804  27.855   5.054  0.00  0.00    -0.444 OA
BRANCH  25  27
ATOM     26  O   UNL     1     -32.660  27.548   7.177  0.00  0.00    -0.250 OA
ATOM     27  C   UNL     1     -32.068  28.215   6.339  0.00  0.00    +0.318 C 
ATOM     28  C   UNL     1     -31.518  29.586   6.593  0.00  0.00    +0.121 C 
ENDBRANCH  25  27
ENDBRANCH   6  25
BRANCH  11  29
ATOM     29  C   UNL     1     -34.231  30.981   0.530  0.00  0.00    +0.137 C 
BRANCH  29  30
ATOM     30  O   UNL     1     -35.496  31.164  -0.073  0.00  0.00    -0.382 OA
ATOM     31  H   UNL     1     -35.933  31.936   0.317  0.00  0.00    +0.210 HD
ENDBRANCH  29  30
ENDBRANCH  11  29
TORSDOF 9
ENDMDL
MODEL 3
REMARK VINA RESULT:      -5.3      2.244      5.658
REMARK  Name = 21593573
REMARK  9 active torsions:
REMARK  status: ('A' for Active; 'I' for Inactive)
REMARK    1  A    between atoms: C_4  and  O_18
REMARK    2  A    between atoms: C_6  and  O_25
REMARK    3  A    between atoms: C_10  and  C_17
REMARK    4  A    between atoms: C_11  and  C_29
REMARK    5  A    between atoms: O_18  and  C_20
REMARK    6  A    between atoms: C_20  and  C_21
REMARK    7  A    between atoms: C_21  and  C_23
REMARK    8  A    between atoms: O_25  and  C_27
REMARK    9  A    between atoms: C_29  and  O_30
REMARK                            x       y       z     vdW  Elec       q    Type
REMARK                         _______ _______ _______ _____ _____    ______ ____
ROOT
ATOM      1  O   UNL     1     -35.243  25.463   3.319  0.00  0.00    -0.449 OA
ATOM      2  O   UNL     1     -34.640  25.212   5.527  0.00  0.00    -0.245 OA
ATOM      3  C   UNL     1     -36.331  23.391   2.938  0.00  0.00    +0.113 C 
ATOM      4  C   UNL     1     -36.390  22.065   2.143  0.00  0.00    +0.220 C 
ATOM      5  C   UNL     1     -35.575  24.545   2.269  0.00  0.00    +0.177 C 
ATOM      6  C   UNL     1     -37.279  22.086   0.867  0.00  0.00    +0.234 C 
ATOM      7  C   UNL     1     -35.603  23.397   4.248  0.00  0.00    +0.060 C 
ATOM      8  C   UNL     1     -36.360  25.191   1.168  0.00  0.00    +0.047 C 
ATOM      9  C   UNL     1     -35.090  24.768   4.487  0.00  0.00    +0.337 C 
ATOM     10  C   UNL     1     -38.706  22.557   1.041  0.00  0.00    +0.059 C 
ATOM     11  C   UNL     1     -37.548  25.822   1.248  0.00  0.00    +0.033 C 
ATOM     12  C   UNL     1     -38.396  25.924  -0.007  0.00  0.00    +0.007 C 
ATOM     13  C   UNL     1     -38.738  24.535  -0.594  0.00  0.00    +0.026 C 
ATOM     14  C   UNL     1     -39.322  23.585   0.425  0.00  0.00    -0.024 C 
ATOM     15  C   UNL     1     -35.375  22.410   5.117  0.00  0.00    +0.002 C 
ENDROOT
BRANCH  10  17
ATOM     16  O   UNL     1     -40.438  21.068   1.644  0.00  0.00    -0.283 OA
ATOM     17  C   UNL     1     -39.552  21.827   2.002  0.00  0.00    +0.233 C 
ENDBRANCH  10  17
BRANCH   4  18
ATOM     18  O   UNL     1     -35.072  21.701   1.714  0.00  0.00    -0.448 OA
BRANCH  18  20
ATOM     19  O   UNL     1     -34.863  19.886   3.123  0.00  0.00    -0.250 OA
ATOM     20  C   UNL     1     -34.675  20.438   2.046  0.00  0.00    +0.316 C 
BRANCH  20  21
ATOM     21  C   UNL     1     -33.926  19.816   0.880  0.00  0.00    +0.099 C 
ATOM     22  C   UNL     1     -33.095  18.651   1.409  0.00  0.00    +0.012 C 
BRANCH  21  23
ATOM     23  C   UNL     1     -33.036  20.846   0.169  0.00  0.00    +0.011 C 
ATOM     24  C   UNL     1     -31.623  20.330  -0.069  0.00  0.00    +0.001 C 
ENDBRANCH  21  23
ENDBRANCH  20  21
ENDBRANCH  18  20
ENDBRANCH   4  18
BRANCH   6  25
ATOM     25  O   UNL     1     -37.319  20.759   0.318  0.00  0.00    -0.444 OA
BRANCH  25  27
ATOM     26  O   UNL     1     -37.663  19.844  -1.774  0.00  0.00    -0.250 OA
ATOM     27  C   UNL     1     -37.173  20.685  -1.032  0.00  0.00    +0.318 C 
ATOM     28  C   UNL     1     -36.301  21.811  -1.500  0.00  0.00    +0.121 C 
ENDBRANCH  25  27
ENDBRANCH   6  25
BRANCH  11  29
ATOM     29  C   UNL     1     -38.219  26.283   2.509  0.00  0.00    +0.137 C 
BRANCH  29  30
ATOM     30  O   UNL     1     -39.548  26.676   2.225  0.00  0.00    -0.382 OA
ATOM     31  H   UNL     1     -40.127  25.898   2.245  0.00  0.00    +0.210 HD
ENDBRANCH  29  30
ENDBRANCH  11  29
TORSDOF 9
ENDMDL
MODEL 4
REMARK VINA RESULT:      -5.2      2.059      5.677
REMARK  Name = 21593573
REMARK  9 active torsions:
REMARK  status: ('A' for Active; 'I' for Inactive)
REMARK    1  A    between atoms: C_4  and  O_18
REMARK    2  A    between atoms: C_6  and  O_25
REMARK    3  A    between atoms: C_10  and  C_17
REMARK    4  A    between atoms: C_11  and  C_29
REMARK    5  A    between atoms: O_18  and  C_20
REMARK    6  A    between atoms: C_20  and  C_21
REMARK    7  A    between atoms: C_21  and  C_23
REMARK    8  A    between atoms: O_25  and  C_27
REMARK    9  A    between atoms: C_29  and  O_30
REMARK                            x       y       z     vdW  Elec       q    Type
REMARK                         _______ _______ _______ _____ _____    ______ ____
ROOT
ATOM      1  O   UNL     1     -32.717  26.810   4.461  0.00  0.00    -0.449 OA
ATOM      2  O   UNL     1     -33.313  26.991   6.678  0.00  0.00    -0.245 OA
ATOM      3  C   UNL     1     -34.803  26.199   3.511  0.00  0.00    +0.113 C 
ATOM      4  C   UNL     1     -35.630  25.161   2.716  0.00  0.00    +0.220 C 
ATOM      5  C   UNL     1     -33.281  26.127   3.334  0.00  0.00    +0.177 C 
ATOM      6  C   UNL     1     -35.664  25.368   1.174  0.00  0.00    +0.234 C 
ATOM      7  C   UNL     1     -34.841  26.136   5.007  0.00  0.00    +0.060 C 
ATOM      8  C   UNL     1     -32.822  26.698   2.027  0.00  0.00    +0.047 C 
ATOM      9  C   UNL     1     -33.564  26.683   5.528  0.00  0.00    +0.337 C 
ATOM     10  C   UNL     1     -36.085  26.734   0.682  0.00  0.00    +0.059 C 
ATOM     11  C   UNL     1     -32.961  27.958   1.571  0.00  0.00    +0.033 C 
ATOM     12  C   UNL     1     -32.917  28.192   0.071  0.00  0.00    +0.007 C 
ATOM     13  C   UNL     1     -34.008  27.391  -0.676  0.00  0.00    +0.026 C 
ATOM     14  C   UNL     1     -35.391  27.586  -0.099  0.00  0.00    -0.024 C 
ATOM     15  C   UNL     1     -35.784  25.675   5.831  0.00  0.00    +0.002 C 
ENDROOT
BRANCH  10  17
ATOM     16  O   UNL     1     -37.812  28.341   0.791  0.00  0.00    -0.283 OA
ATOM     17  C   UNL     1     -37.409  27.230   1.095  0.00  0.00    +0.233 C 
ENDBRANCH  10  17
BRANCH   4  18
ATOM     18  O   UNL     1     -35.099  23.848   2.938  0.00  0.00    -0.448 OA
BRANCH  18  20
ATOM     19  O   UNL     1     -37.143  23.153   3.750  0.00  0.00    -0.250 OA
ATOM     20  C   UNL     1     -35.956  22.960   3.521  0.00  0.00    +0.316 C 
BRANCH  20  21
ATOM     21  C   UNL     1     -35.205  21.689   3.878  0.00  0.00    +0.099 C 
ATOM     22  C   UNL     1     -35.536  20.626   2.835  0.00  0.00    +0.012 C 
BRANCH  21  23
ATOM     23  C   UNL     1     -35.562  21.201   5.290  0.00  0.00    +0.011 C 
ATOM     24  C   UNL     1     -35.097  22.162   6.375  0.00  0.00    +0.001 C 
ENDBRANCH  21  23
ENDBRANCH  20  21
ENDBRANCH  18  20
ENDBRANCH   4  18
BRANCH   6  25
ATOM     25  O   UNL     1     -36.562  24.401   0.606  0.00  0.00    -0.444 OA
BRANCH  25  27
ATOM     26  O   UNL     1     -36.860  23.823  -1.610  0.00  0.00    -0.250 OA
ATOM     27  C   UNL     1     -36.179  23.890  -0.596  0.00  0.00    +0.318 C 
ATOM     28  C   UNL     1     -34.764  23.404  -0.500  0.00  0.00    +0.121 C 
ENDBRANCH  25  27
ENDBRANCH   6  25
BRANCH  11  29
ATOM     29  C   UNL     1     -33.348  29.156   2.391  0.00  0.00    +0.137 C 
BRANCH  29  30
ATOM     30  O   UNL     1     -32.303  29.476   3.288  0.00  0.00    -0.382 OA
ATOM     31  H   UNL     1     -31.852  28.663   3.563  0.00  0.00    +0.210 HD
ENDBRANCH  29  30
ENDBRANCH  11  29
TORSDOF 9
ENDMDL
MODEL 5
REMARK VINA RESULT:      -5.2      1.168      1.282
REMARK  Name = 21593573
REMARK  9 active torsions:
REMARK  status: ('A' for Active; 'I' for Inactive)
REMARK    1  A    between atoms: C_4  and  O_18
REMARK    2  A    between atoms: C_6  and  O_25
REMARK    3  A    between atoms: C_10  and  C_17
REMARK    4  A    between atoms: C_11  and  C_29
REMARK    5  A    between atoms: O_18  and  C_20
REMARK    6  A    between atoms: C_20  and  C_21
REMARK    7  A    between atoms: C_21  and  C_23
REMARK    8  A    between atoms: O_25  and  C_27
REMARK    9  A    between atoms: C_29  and  O_30
REMARK                            x       y       z     vdW  Elec       q    Type
REMARK                         _______ _______ _______ _____ _____    ______ ____
ROOT
ATOM      1  O   UNL     1     -34.061  24.380  -1.005  0.00  0.00    -0.449 OA
ATOM      2  O   UNL     1     -35.108  26.086  -2.143  0.00  0.00    -0.245 OA
ATOM      3  C   UNL     1     -35.711  23.882   0.625  0.00  0.00    +0.113 C 
ATOM      4  C   UNL     1     -36.093  23.791   2.121  0.00  0.00    +0.220 C 
ATOM      5  C   UNL     1     -34.211  23.821   0.307  0.00  0.00    +0.177 C 
ATOM      6  C   UNL     1     -35.870  22.403   2.788  0.00  0.00    +0.234 C 
ATOM      7  C   UNL     1     -36.027  25.149  -0.109  0.00  0.00    +0.060 C 
ATOM      8  C   UNL     1     -33.653  22.435   0.409  0.00  0.00    +0.047 C 
ATOM      9  C   UNL     1     -35.047  25.305  -1.211  0.00  0.00    +0.337 C 
ATOM     10  C   UNL     1     -36.498  21.211   2.101  0.00  0.00    +0.059 C 
ATOM     11  C   UNL     1     -33.995  21.341  -0.300  0.00  0.00    +0.033 C 
ATOM     12  C   UNL     1     -33.713  19.975   0.300  0.00  0.00    +0.007 C 
ATOM     13  C   UNL     1     -34.412  19.781   1.665  0.00  0.00    +0.026 C 
ATOM     14  C   UNL     1     -35.887  20.106   1.631  0.00  0.00    -0.024 C 
ATOM     15  C   UNL     1     -36.977  26.061   0.108  0.00  0.00    +0.002 C 
ENDROOT
BRANCH  10  17
ATOM     16  O   UNL     1     -38.460  21.437   0.805  0.00  0.00    -0.283 OA
ATOM     17  C   UNL     1     -37.958  21.232   1.898  0.00  0.00    +0.233 C 
ENDBRANCH  10  17
BRANCH   4  18
ATOM     18  O   UNL     1     -35.319  24.732   2.876  0.00  0.00    -0.448 OA
BRANCH  18  20
ATOM     19  O   UNL     1     -37.242  25.658   3.751  0.00  0.00    -0.250 OA
ATOM     20  C   UNL     1     -36.038  25.688   3.534  0.00  0.00    +0.316 C 
BRANCH  20  21
ATOM     21  C   UNL     1     -35.118  26.827   3.939  0.00  0.00    +0.099 C 
ATOM     22  C   UNL     1     -34.865  27.699   2.713  0.00  0.00    +0.012 C 
BRANCH  21  23
ATOM     23  C   UNL     1     -33.796  26.304   4.521  0.00  0.00    +0.011 C 
ATOM     24  C   UNL     1     -33.757  26.380   6.042  0.00  0.00    +0.001 C 
ENDBRANCH  21  23
ENDBRANCH  20  21
ENDBRANCH  18  20
ENDBRANCH   4  18
BRANCH   6  25
ATOM     25  O   UNL     1     -36.381  22.456   4.130  0.00  0.00    -0.444 OA
BRANCH  25  27
ATOM     26  O   UNL     1     -35.054  20.853   5.131  0.00  0.00    -0.250 OA
ATOM     27  C   UNL     1     -35.545  21.973   5.088  0.00  0.00    +0.318 C 
ATOM     28  C   UNL     1     -35.304  23.036   6.117  0.00  0.00    +0.121 C 
ENDBRANCH  25  27
ENDBRANCH   6  25
BRANCH  11  29
ATOM     29  C   UNL     1     -34.810  21.327  -1.561  0.00  0.00    +0.137 C 
BRANCH  29  30
ATOM     30  O   UNL     1     -34.062  21.896  -2.618  0.00  0.00    -0.382 OA
ATOM     31  H   UNL     1     -33.298  21.333  -2.813  0.00  0.00    +0.210 HD
ENDBRANCH  29  30
ENDBRANCH  11  29
TORSDOF 9
ENDMDL
MODEL 6
REMARK VINA RESULT:      -5.1      2.860      5.239
REMARK  Name = 21593573
REMARK  9 active torsions:
REMARK  status: ('A' for Active; 'I' for Inactive)
REMARK    1  A    between atoms: C_4  and  O_18
REMARK    2  A    between atoms: C_6  and  O_25
REMARK    3  A    between atoms: C_10  and  C_17
REMARK    4  A    between atoms: C_11  and  C_29
REMARK    5  A    between atoms: O_18  and  C_20
REMARK    6  A    between atoms: C_20  and  C_21
REMARK    7  A    between atoms: C_21  and  C_23
REMARK    8  A    between atoms: O_25  and  C_27
REMARK    9  A    between atoms: C_29  and  O_30
REMARK                            x       y       z     vdW  Elec       q    Type
REMARK                         _______ _______ _______ _____ _____    ______ ____
ROOT
ATOM      1  O   UNL     1     -37.052  20.562   2.196  0.00  0.00    -0.449 OA
ATOM      2  O   UNL     1     -34.791  20.126   2.223  0.00  0.00    -0.245 OA
ATOM      3  C   UNL     1     -37.037  22.836   1.521  0.00  0.00    +0.113 C 
ATOM      4  C   UNL     1     -37.403  24.303   1.844  0.00  0.00    +0.220 C 
ATOM      5  C   UNL     1     -37.833  21.761   2.272  0.00  0.00    +0.177 C 
ATOM      6  C   UNL     1     -38.791  24.779   1.326  0.00  0.00    +0.234 C 
ATOM      7  C   UNL     1     -35.661  22.357   1.871  0.00  0.00    +0.060 C 
ATOM      8  C   UNL     1     -39.218  21.580   1.729  0.00  0.00    +0.047 C 
ATOM      9  C   UNL     1     -35.727  20.897   2.123  0.00  0.00    +0.337 C 
ATOM     10  C   UNL     1     -39.077  24.569  -0.144  0.00  0.00    +0.059 C 
ATOM     11  C   UNL     1     -39.587  21.195   0.491  0.00  0.00    +0.033 C 
ATOM     12  C   UNL     1     -40.970  21.581  -0.002  0.00  0.00    +0.007 C 
ATOM     13  C   UNL     1     -41.185  23.112   0.003  0.00  0.00    +0.026 C 
ATOM     14  C   UNL     1     -40.085  23.871  -0.703  0.00  0.00    -0.024 C 
ATOM     15  C   UNL     1     -34.514  23.029   1.987  0.00  0.00    +0.002 C 
ENDROOT
BRANCH  10  17
ATOM     16  O   UNL     1     -38.415  26.227  -1.690  0.00  0.00    -0.283 OA
ATOM     17  C   UNL     1     -38.152  25.184  -1.112  0.00  0.00    +0.233 C 
ENDBRANCH  10  17
BRANCH   4  18
ATOM     18  O   UNL     1     -37.410  24.498   3.263  0.00  0.00    -0.448 OA
BRANCH  18  20
ATOM     19  O   UNL     1     -35.967  26.297   3.194  0.00  0.00    -0.250 OA
ATOM     20  C   UNL     1     -36.423  25.306   3.750  0.00  0.00    +0.316 C 
BRANCH  20  21
ATOM     21  C   UNL     1     -35.942  24.771   5.088  0.00  0.00    +0.099 C 
ATOM     22  C   UNL     1     -34.441  25.023   5.194  0.00  0.00    +0.012 C 
BRANCH  21  23
ATOM     23  C   UNL     1     -36.259  23.277   5.245  0.00  0.00    +0.011 C 
ATOM     24  C   UNL     1     -35.171  22.525   6.000  0.00  0.00    +0.001 C 
ENDBRANCH  21  23
ENDBRANCH  20  21
ENDBRANCH  18  20
ENDBRANCH   4  18
BRANCH   6  25
ATOM     25  O   UNL     1     -38.923  26.183   1.603  0.00  0.00    -0.444 OA
BRANCH  25  27
ATOM     26  O   UNL     1     -40.776  27.484   1.148  0.00  0.00    -0.250 OA
ATOM     27  C   UNL     1     -40.197  26.620   1.793  0.00  0.00    +0.318 C 
ATOM     28  C   UNL     1     -40.812  25.873   2.938  0.00  0.00    +0.121 C 
ENDBRANCH  25  27
ENDBRANCH   6  25
BRANCH  11  29
ATOM     29  C   UNL     1     -38.692  20.573  -0.542  0.00  0.00    +0.137 C 
BRANCH  29  30
ATOM     30  O   UNL     1     -38.366  19.252  -0.157  0.00  0.00    -0.382 OA
ATOM     31  H   UNL     1     -39.181  18.742  -0.028  0.00  0.00    +0.210 HD
ENDBRANCH  29  30
ENDBRANCH  11  29
TORSDOF 9
ENDMDL
MODEL 7
REMARK VINA RESULT:      -5.1      2.350      6.192
REMARK  Name = 21593573
REMARK  9 active torsions:
REMARK  status: ('A' for Active; 'I' for Inactive)
REMARK    1  A    between atoms: C_4  and  O_18
REMARK    2  A    between atoms: C_6  and  O_25
REMARK    3  A    between atoms: C_10  and  C_17
REMARK    4  A    between atoms: C_11  and  C_29
REMARK    5  A    between atoms: O_18  and  C_20
REMARK    6  A    between atoms: C_20  and  C_21
REMARK    7  A    between atoms: C_21  and  C_23
REMARK    8  A    between atoms: O_25  and  C_27
REMARK    9  A    between atoms: C_29  and  O_30
REMARK                            x       y       z     vdW  Elec       q    Type
REMARK                         _______ _______ _______ _____ _____    ______ ____
ROOT
ATOM      1  O   UNL     1     -40.523  21.188   0.891  0.00  0.00    -0.449 OA
ATOM      2  O   UNL     1     -40.690  19.814  -0.950  0.00  0.00    -0.245 OA
ATOM      3  C   UNL     1     -38.278  21.920   0.670  0.00  0.00    +0.113 C 
ATOM      4  C   UNL     1     -36.856  21.998   1.275  0.00  0.00    +0.220 C 
ATOM      5  C   UNL     1     -39.422  21.683   1.664  0.00  0.00    +0.177 C 
ATOM      6  C   UNL     1     -36.557  23.264   2.129  0.00  0.00    +0.234 C 
ATOM      7  C   UNL     1     -38.584  20.796  -0.271  0.00  0.00    +0.060 C 
ATOM      8  C   UNL     1     -39.775  22.912   2.445  0.00  0.00    +0.047 C 
ATOM      9  C   UNL     1     -40.036  20.505  -0.190  0.00  0.00    +0.337 C 
ATOM     10  C   UNL     1     -36.831  24.601   1.478  0.00  0.00    +0.059 C 
ATOM     11  C   UNL     1     -40.227  24.094   1.984  0.00  0.00    +0.033 C 
ATOM     12  C   UNL     1     -40.016  25.331   2.839  0.00  0.00    +0.007 C 
ATOM     13  C   UNL     1     -38.521  25.583   3.142  0.00  0.00    +0.026 C 
ATOM     14  C   UNL     1     -37.654  25.580   1.904  0.00  0.00    -0.024 C 
ATOM     15  C   UNL     1     -37.780  20.093  -1.072  0.00  0.00    +0.002 C 
ENDROOT
BRANCH  10  17
ATOM     16  O   UNL     1     -36.696  24.860  -0.866  0.00  0.00    -0.283 OA
ATOM     17  C   UNL     1     -36.132  24.900   0.216  0.00  0.00    +0.233 C 
ENDBRANCH  10  17
BRANCH   4  18
ATOM     18  O   UNL     1     -36.633  20.870   2.131  0.00  0.00    -0.448 OA
BRANCH  18  20
ATOM     19  O   UNL     1     -34.703  20.087   3.122  0.00  0.00    -0.250 OA
ATOM     20  C   UNL     1     -35.361  20.375   2.131  0.00  0.00    +0.316 C 
BRANCH  20  21
ATOM     21  C   UNL     1     -34.860  20.261   0.701  0.00  0.00    +0.099 C 
ATOM     22  C   UNL     1     -34.776  18.781   0.339  0.00  0.00    +0.012 C 
BRANCH  21  23
ATOM     23  C   UNL     1     -33.497  20.946   0.525  0.00  0.00    +0.011 C 
ATOM     24  C   UNL     1     -32.380  19.955   0.228  0.00  0.00    +0.001 C 
ENDBRANCH  21  23
ENDBRANCH  20  21
ENDBRANCH  18  20
ENDBRANCH   4  18
BRANCH   6  25
ATOM     25  O   UNL     1     -35.173  23.237   2.513  0.00  0.00    -0.444 OA
BRANCH  25  27
ATOM     26  O   UNL     1     -34.104  24.651   3.992  0.00  0.00    -0.250 OA
ATOM     27  C   UNL     1     -34.901  23.758   3.739  0.00  0.00    +0.318 C 
ATOM     28  C   UNL     1     -35.739  23.064   4.771  0.00  0.00    +0.121 C 
ENDBRANCH  25  27
ENDBRANCH   6  25
BRANCH  11  29
ATOM     29  C   UNL     1     -40.762  24.358   0.605  0.00  0.00    +0.137 C 
BRANCH  29  30
ATOM     30  O   UNL     1     -42.011  23.714   0.449  0.00  0.00    -0.382 OA
ATOM     31  H   UNL     1     -42.475  24.089  -0.315  0.00  0.00    +0.210 HD
ENDBRANCH  29  30
ENDBRANCH  11  29
TORSDOF 9
ENDMDL
MODEL 8
REMARK VINA RESULT:      -4.9     10.342     13.181
REMARK  Name = 21593573
REMARK  9 active torsions:
REMARK  status: ('A' for Active; 'I' for Inactive)
REMARK    1  A    between atoms: C_4  and  O_18
REMARK    2  A    between atoms: C_6  and  O_25
REMARK    3  A    between atoms: C_10  and  C_17
REMARK    4  A    between atoms: C_11  and  C_29
REMARK    5  A    between atoms: O_18  and  C_20
REMARK    6  A    between atoms: C_20  and  C_21
REMARK    7  A    between atoms: C_21  and  C_23
REMARK    8  A    between atoms: O_25  and  C_27
REMARK    9  A    between atoms: C_29  and  O_30
REMARK                            x       y       z     vdW  Elec       q    Type
REMARK                         _______ _______ _______ _____ _____    ______ ____
ROOT
ATOM      1  O   UNL     1     -47.288  30.014   1.695  0.00  0.00    -0.449 OA
ATOM      2  O   UNL     1     -46.376  29.558  -0.370  0.00  0.00    -0.245 OA
ATOM      3  C   UNL     1     -45.343  30.670   2.883  0.00  0.00    +0.113 C 
ATOM      4  C   UNL     1     -44.382  30.420   4.069  0.00  0.00    +0.220 C 
ATOM      5  C   UNL     1     -46.754  30.085   3.023  0.00  0.00    +0.177 C 
ATOM      6  C   UNL     1     -44.717  31.191   5.378  0.00  0.00    +0.234 C 
ATOM      7  C   UNL     1     -44.999  30.065   1.556  0.00  0.00    +0.060 C 
ATOM      8  C   UNL     1     -47.622  30.882   3.949  0.00  0.00    +0.047 C 
ATOM      9  C   UNL     1     -46.260  29.832   0.811  0.00  0.00    +0.337 C 
ATOM     10  C   UNL     1     -44.888  32.688   5.260  0.00  0.00    +0.059 C 
ATOM     11  C   UNL     1     -48.008  32.167   3.834  0.00  0.00    +0.033 C 
ATOM     12  C   UNL     1     -48.416  32.914   5.091  0.00  0.00    +0.007 C 
ATOM     13  C   UNL     1     -47.283  32.948   6.143  0.00  0.00    +0.026 C 
ATOM     14  C   UNL     1     -45.965  33.430   5.584  0.00  0.00    -0.024 C 
ATOM     15  C   UNL     1     -43.816  29.732   1.036  0.00  0.00    +0.002 C 
ENDROOT
BRANCH  10  17
ATOM     16  O   UNL     1     -43.689  33.781   3.543  0.00  0.00    -0.283 OA
ATOM     17  C   UNL     1     -43.756  33.463   4.719  0.00  0.00    +0.233 C 
ENDBRANCH  10  17
BRANCH   4  18
ATOM     18  O   UNL     1     -44.383  29.027   4.406  0.00  0.00    -0.448 OA
BRANCH  18  20
ATOM     19  O   UNL     1     -42.084  28.896   4.536  0.00  0.00    -0.250 OA
ATOM     20  C   UNL     1     -43.177  28.397   4.301  0.00  0.00    +0.316 C 
BRANCH  20  21
ATOM     21  C   UNL     1     -43.387  26.973   3.815  0.00  0.00    +0.099 C 
ATOM     22  C   UNL     1     -42.313  26.656   2.779  0.00  0.00    +0.012 C 
BRANCH  21  23
ATOM     23  C   UNL     1     -44.791  26.781   3.224  0.00  0.00    +0.011 C 
ATOM     24  C   UNL     1     -45.629  25.788   4.019  0.00  0.00    +0.001 C 
ENDBRANCH  21  23
ENDBRANCH  20  21
ENDBRANCH  18  20
ENDBRANCH   4  18
BRANCH   6  25
ATOM     25  O   UNL     1     -43.671  30.941   6.332  0.00  0.00    -0.444 OA
BRANCH  25  27
ATOM     26  O   UNL     1     -43.403  30.288   8.531  0.00  0.00    -0.250 OA
ATOM     27  C   UNL     1     -44.083  30.429   7.523  0.00  0.00    +0.318 C 
ATOM     28  C   UNL     1     -45.529  30.047   7.426  0.00  0.00    +0.121 C 
ENDBRANCH  25  27
ENDBRANCH   6  25
BRANCH  11  29
ATOM     29  C   UNL     1     -47.901  33.014   2.597  0.00  0.00    +0.137 C 
BRANCH  29  30
ATOM     30  O   UNL     1     -48.025  34.379   2.943  0.00  0.00    -0.382 OA
ATOM     31  H   UNL     1     -48.123  34.462   3.904  0.00  0.00    +0.210 HD
ENDBRANCH  29  30
ENDBRANCH  11  29
TORSDOF 9
ENDMDL
MODEL 9
REMARK VINA RESULT:      -4.8      1.870      6.437
REMARK  Name = 21593573
REMARK  9 active torsions:
REMARK  status: ('A' for Active; 'I' for Inactive)
REMARK    1  A    between atoms: C_4  and  O_18
REMARK    2  A    between atoms: C_6  and  O_25
REMARK    3  A    between atoms: C_10  and  C_17
REMARK    4  A    between atoms: C_11  and  C_29
REMARK    5  A    between atoms: O_18  and  C_20
REMARK    6  A    between atoms: C_20  and  C_21
REMARK    7  A    between atoms: C_21  and  C_23
REMARK    8  A    between atoms: O_25  and  C_27
REMARK    9  A    between atoms: C_29  and  O_30
REMARK                            x       y       z     vdW  Elec       q    Type
REMARK                         _______ _______ _______ _____ _____    ______ ____
ROOT
ATOM      1  O   UNL     1     -36.325  22.655   3.619  0.00  0.00    -0.449 OA
ATOM      2  O   UNL     1     -38.123  21.811   2.454  0.00  0.00    -0.245 OA
ATOM      3  C   UNL     1     -35.589  24.328   2.107  0.00  0.00    +0.113 C 
ATOM      4  C   UNL     1     -34.456  24.880   1.210  0.00  0.00    +0.220 C 
ATOM      5  C   UNL     1     -35.155  23.391   3.242  0.00  0.00    +0.177 C 
ATOM      6  C   UNL     1     -33.510  25.915   1.884  0.00  0.00    +0.234 C 
ATOM      7  C   UNL     1     -36.614  23.433   1.480  0.00  0.00    +0.060 C 
ATOM      8  C   UNL     1     -34.541  24.124   4.395  0.00  0.00    +0.047 C 
ATOM      9  C   UNL     1     -37.140  22.524   2.527  0.00  0.00    +0.337 C 
ATOM     10  C   UNL     1     -34.167  27.106   2.544  0.00  0.00    +0.059 C 
ATOM     11  C   UNL     1     -35.103  25.060   5.186  0.00  0.00    +0.033 C 
ATOM     12  C   UNL     1     -34.192  26.030   5.916  0.00  0.00    +0.007 C 
ATOM     13  C   UNL     1     -33.300  26.836   4.944  0.00  0.00    +0.026 C 
ATOM     14  C   UNL     1     -34.078  27.497   3.831  0.00  0.00    -0.024 C 
ATOM     15  C   UNL     1     -37.043  23.358   0.219  0.00  0.00    +0.002 C 
ENDROOT
BRANCH  10  17
ATOM     16  O   UNL     1     -36.243  27.944   1.790  0.00  0.00    -0.283 OA
ATOM     17  C   UNL     1     -35.025  27.963   1.706  0.00  0.00    +0.233 C 
ENDBRANCH  10  17
BRANCH   4  18
ATOM     18  O   UNL     1     -33.625  23.801   0.763  0.00  0.00    -0.448 OA
BRANCH  18  20
ATOM     19  O   UNL     1     -33.789  24.402  -1.459  0.00  0.00    -0.250 OA
ATOM     20  C   UNL     1     -33.649  23.560  -0.581  0.00  0.00    +0.316 C 
BRANCH  20  21
ATOM     21  C   UNL     1     -33.506  22.069  -0.832  0.00  0.00    +0.099 C 
ATOM     22  C   UNL     1     -34.539  21.657  -1.877  0.00  0.00    +0.012 C 
BRANCH  21  23
ATOM     23  C   UNL     1     -33.683  21.260   0.461  0.00  0.00    +0.011 C 
ATOM     24  C   UNL     1     -34.870  20.308   0.396  0.00  0.00    +0.001 C 
ENDBRANCH  21  23
ENDBRANCH  20  21
ENDBRANCH  18  20
ENDBRANCH   4  18
BRANCH   6  25
ATOM     25  O   UNL     1     -32.598  26.411   0.890  0.00  0.00    -0.444 OA
BRANCH  25  27
ATOM     26  O   UNL     1     -30.773  26.096   2.269  0.00  0.00    -0.250 OA
ATOM     27  C   UNL     1     -31.280  26.213   1.162  0.00  0.00    +0.318 C 
ATOM     28  C   UNL     1     -30.511  26.158  -0.123  0.00  0.00    +0.121 C 
ENDBRANCH  25  27
ENDBRANCH   6  25
BRANCH  11  29
ATOM     29  C   UNL     1     -36.570  25.370   5.280  0.00  0.00    +0.137 C 
BRANCH  29  30
ATOM     30  O   UNL     1     -36.912  26.350   4.320  0.00  0.00    -0.382 OA
ATOM     31  H   UNL     1     -36.317  27.111   4.409  0.00  0.00    +0.210 HD
ENDBRANCH  29  30
ENDBRANCH  11  29
TORSDOF 9
ENDMDL
