MODEL 1
REMARK VINA RESULT:      -6.4      0.000      0.000
REMARK  Name = 20236234
REMARK  9 active torsions:
REMARK  status: ('A' for Active; 'I' for Inactive)
REMARK    1  A    between atoms: N_2  and  CA_5
REMARK    2  A    between atoms: C_3  and  CA_18
REMARK    3  A    between atoms: CA_5  and  C_7
REMARK    4  A    between atoms: CA_5  and  CB_10
REMARK    5  A    between atoms: C_7  and  O_8
REMARK    6  A    between atoms: CB_10  and  CG_13
REMARK    7  A    between atoms: CA_18  and  N_19
REMARK    8  A    between atoms: CA_18  and  CB_23
REMARK    9  A    between atoms: CB_23  and  CG_24
REMARK                            x       y       z     vdW  Elec       q    Type
REMARK                         _______ _______ _______ _____ _____    ______ ____
ROOT
ATOM      1  O   PHE A   1     -35.679  21.499   3.521  0.00  0.00    -0.277 OA
ATOM      2  N   HIS A   2     -37.354  21.425   1.919  0.00  0.00    -0.298 N 
ATOM      3  C   PHE A   1     -36.156  21.023   2.493  0.00  0.00    +0.203 C 
ATOM      4  H   HIS A   2     -37.657  20.986   1.092  0.00  0.00    +0.150 HD
ENDROOT
BRANCH   2   5
ATOM      5  CA  HIS A   2     -38.169  22.468   2.496  0.00  0.00    +0.177 C 
BRANCH   5   7
ATOM      6  OXT HIS A   2     -40.376  23.217   1.846  0.00  0.00    -0.248 OA
ATOM      7  C   HIS A   2     -39.633  22.281   2.126  0.00  0.00    +0.332 C 
BRANCH   7   8
ATOM      8  O   HIS A   2     -40.063  20.997   2.133  0.00  0.00    -0.479 OA
ATOM      9  H   HIS A   2     -40.165  20.532   1.326  0.00  0.00    +0.295 HD
ENDBRANCH   7   8
ENDBRANCH   5   7
BRANCH   5  10
ATOM     10  CB  HIS A   2     -37.691  23.859   2.059  0.00  0.00    +0.073 C 
BRANCH  10  13
ATOM     11  ND1 HIS A   2     -36.793  24.121   4.367  0.00  0.00    -0.319 N 
ATOM     12  NE2 HIS A   2     -36.572  26.318   4.606  0.00  0.00    -0.315 N 
ATOM     13  CG  HIS A   2     -37.198  24.693   3.219  0.00  0.00    +0.040 C 
ATOM     14  CD2 HIS A   2     -37.066  26.027   3.359  0.00  0.00    +0.069 C 
ATOM     15  CE1 HIS A   2     -36.418  25.149   5.187  0.00  0.00    +0.182 C 
ATOM     16  HD1 HIS A   2     -36.770  23.160   4.574  0.00  0.00    +0.148 HD
ATOM     17  HE2 HIS A   2     -36.375  27.206   4.982  0.00  0.00    +0.148 HD
ENDBRANCH  10  13
ENDBRANCH   5  10
ENDBRANCH   2   5
BRANCH   3  18
ATOM     18  CA  PHE A   1     -35.489  19.890   1.720  0.00  0.00    +0.017 C 
BRANCH  18  19
ATOM     19  N   PHE A   1     -36.563  19.097   1.121  0.00  0.00    +0.388 N 
ATOM     20  H1  PHE A   1     -37.062  19.662   0.434  0.00  0.00    -0.089 HD
ATOM     21  H2  PHE A   1     -37.212  18.797   1.850  0.00  0.00    -0.089 HD
ATOM     22  H3  PHE A   1     -36.165  18.277   0.663  0.00  0.00    -0.089 HD
ENDBRANCH  18  19
BRANCH  18  23
ATOM     23  CB  PHE A   1     -34.576  20.448   0.617  0.00  0.00    +0.013 C 
BRANCH  23  24
ATOM     24  CG  PHE A   1     -33.218  19.787   0.593  0.00  0.00    -0.024 C 
ATOM     25  CD1 PHE A   1     -32.175  20.406  -0.078  0.00  0.00    -0.004 C 
ATOM     26  CD2 PHE A   1     -33.041  18.576   1.240  0.00  0.00    -0.004 C 
ATOM     27  CE1 PHE A   1     -30.921  19.795  -0.102  0.00  0.00    -0.000 C 
ATOM     28  CE2 PHE A   1     -31.786  17.965   1.216  0.00  0.00    -0.000 C 
ATOM     29  CZ  PHE A   1     -30.726  18.576   0.546  0.00  0.00    -0.000 C 
ENDBRANCH  23  24
ENDBRANCH  18  23
ENDBRANCH   3  18
TORSDOF 9
ENDMDL
MODEL 2
REMARK VINA RESULT:      -6.4      1.794      2.592
REMARK  Name = 20236234
REMARK  9 active torsions:
REMARK  status: ('A' for Active; 'I' for Inactive)
REMARK    1  A    between atoms: N_2  and  CA_5
REMARK    2  A    between atoms: C_3  and  CA_18
REMARK    3  A    between atoms: CA_5  and  C_7
REMARK    4  A    between atoms: CA_5  and  CB_10
REMARK    5  A    between atoms: C_7  and  O_8
REMARK    6  A    between atoms: CB_10  and  CG_13
REMARK    7  A    between atoms: CA_18  and  N_19
REMARK    8  A    between atoms: CA_18  and  CB_23
REMARK    9  A    between atoms: CB_23  and  CG_24
REMARK                            x       y       z     vdW  Elec       q    Type
REMARK                         _______ _______ _______ _____ _____    ______ ____
ROOT
ATOM      1  O   PHE A   1     -35.450  22.398   4.514  0.00  0.00    -0.277 OA
ATOM      2  N   HIS A   2     -36.837  23.299   2.888  0.00  0.00    -0.298 N 
ATOM      3  C   PHE A   1     -36.031  22.310   3.434  0.00  0.00    +0.203 C 
ATOM      4  H   HIS A   2     -37.261  23.139   2.015  0.00  0.00    +0.150 HD
ENDROOT
BRANCH   2   5
ATOM      5  CA  HIS A   2     -37.071  24.555   3.560  0.00  0.00    +0.177 C 
BRANCH   5   7
ATOM      6  OXT HIS A   2     -39.449  24.193   3.296  0.00  0.00    -0.248 OA
ATOM      7  C   HIS A   2     -38.522  24.989   3.408  0.00  0.00    +0.332 C 
BRANCH   7   8
ATOM      8  O   HIS A   2     -38.718  26.329   3.398  0.00  0.00    -0.479 OA
ATOM      9  H   HIS A   2     -38.144  26.890   3.882  0.00  0.00    +0.295 HD
ENDBRANCH   7   8
ENDBRANCH   5   7
BRANCH   5  10
ATOM     10  CB  HIS A   2     -36.137  25.654   3.037  0.00  0.00    +0.073 C 
BRANCH  10  13
ATOM     11  ND1 HIS A   2     -35.040  25.485   5.266  0.00  0.00    -0.319 N 
ATOM     12  NE2 HIS A   2     -33.504  27.089   5.228  0.00  0.00    -0.315 N 
ATOM     13  CG  HIS A   2     -35.125  26.093   4.070  0.00  0.00    +0.040 C 
ATOM     14  CD2 HIS A   2     -34.195  27.068   4.042  0.00  0.00    +0.069 C 
ATOM     15  CE1 HIS A   2     -34.037  26.123   5.942  0.00  0.00    +0.182 C 
ATOM     16  HD1 HIS A   2     -35.586  24.733   5.590  0.00  0.00    +0.148 HD
ATOM     17  HE2 HIS A   2     -32.771  27.693   5.485  0.00  0.00    +0.148 HD
ENDBRANCH  10  13
ENDBRANCH   5  10
ENDBRANCH   2   5
BRANCH   3  18
ATOM     18  CA  PHE A   1     -35.955  21.066   2.555  0.00  0.00    +0.017 C 
BRANCH  18  19
ATOM     19  N   PHE A   1     -37.333  20.640   2.306  0.00  0.00    +0.388 N 
ATOM     20  H1  PHE A   1     -37.736  20.268   3.165  0.00  0.00    -0.089 HD
ATOM     21  H2  PHE A   1     -37.341  19.917   1.586  0.00  0.00    -0.089 HD
ATOM     22  H3  PHE A   1     -37.883  21.439   1.990  0.00  0.00    -0.089 HD
ENDBRANCH  18  19
BRANCH  18  23
ATOM     23  CB  PHE A   1     -35.258  21.383   1.223  0.00  0.00    +0.013 C 
BRANCH  23  24
ATOM     24  CG  PHE A   1     -34.024  20.541   0.993  0.00  0.00    -0.024 C 
ATOM     25  CD1 PHE A   1     -33.932  19.296   1.594  0.00  0.00    -0.004 C 
ATOM     26  CD2 PHE A   1     -33.010  21.030   0.188  0.00  0.00    -0.004 C 
ATOM     27  CE1 PHE A   1     -32.792  18.519   1.384  0.00  0.00    -0.000 C 
ATOM     28  CE2 PHE A   1     -31.870  20.254  -0.023  0.00  0.00    -0.000 C 
ATOM     29  CZ  PHE A   1     -31.762  18.998   0.575  0.00  0.00    -0.000 C 
ENDBRANCH  23  24
ENDBRANCH  18  23
ENDBRANCH   3  18
TORSDOF 9
ENDMDL
MODEL 3
REMARK VINA RESULT:      -6.1      2.206      2.790
REMARK  Name = 20236234
REMARK  9 active torsions:
REMARK  status: ('A' for Active; 'I' for Inactive)
REMARK    1  A    between atoms: N_2  and  CA_5
REMARK    2  A    between atoms: C_3  and  CA_18
REMARK    3  A    between atoms: CA_5  and  C_7
REMARK    4  A    between atoms: CA_5  and  CB_10
REMARK    5  A    between atoms: C_7  and  O_8
REMARK    6  A    between atoms: CB_10  and  CG_13
REMARK    7  A    between atoms: CA_18  and  N_19
REMARK    8  A    between atoms: CA_18  and  CB_23
REMARK    9  A    between atoms: CB_23  and  CG_24
REMARK                            x       y       z     vdW  Elec       q    Type
REMARK                         _______ _______ _______ _____ _____    ______ ____
ROOT
ATOM      1  O   PHE A   1     -35.089  22.403   1.582  0.00  0.00    -0.277 OA
ATOM      2  N   HIS A   2     -35.776  21.283   3.493  0.00  0.00    -0.298 N 
ATOM      3  C   PHE A   1     -35.529  21.395   2.132  0.00  0.00    +0.203 C 
ATOM      4  H   HIS A   2     -36.130  20.434   3.844  0.00  0.00    +0.150 HD
ENDROOT
BRANCH   2   5
ATOM      5  CA  HIS A   2     -35.533  22.371   4.410  0.00  0.00    +0.177 C 
BRANCH   5   7
ATOM      6  OXT HIS A   2     -35.236  22.597   6.800  0.00  0.00    -0.248 OA
ATOM      7  C   HIS A   2     -35.349  21.855   5.829  0.00  0.00    +0.332 C 
BRANCH   7   8
ATOM      8  O   HIS A   2     -35.310  20.506   5.945  0.00  0.00    -0.479 OA
ATOM      9  H   HIS A   2     -35.670  20.091   6.704  0.00  0.00    +0.295 HD
ENDBRANCH   7   8
ENDBRANCH   5   7
BRANCH   5  10
ATOM     10  CB  HIS A   2     -36.668  23.403   4.370  0.00  0.00    +0.073 C 
BRANCH  10  13
ATOM     11  ND1 HIS A   2     -35.720  25.289   3.048  0.00  0.00    -0.319 N 
ATOM     12  NE2 HIS A   2     -35.519  26.930   4.530  0.00  0.00    -0.315 N 
ATOM     13  CG  HIS A   2     -36.158  24.819   4.229  0.00  0.00    +0.040 C 
ATOM     14  CD2 HIS A   2     -36.038  25.811   5.132  0.00  0.00    +0.069 C 
ATOM     15  CE1 HIS A   2     -35.339  26.582   3.276  0.00  0.00    +0.182 C 
ATOM     16  HD1 HIS A   2     -35.682  24.802   2.194  0.00  0.00    +0.148 HD
ATOM     17  HE2 HIS A   2     -35.325  27.801   4.946  0.00  0.00    +0.148 HD
ENDBRANCH  10  13
ENDBRANCH   5  10
ENDBRANCH   2   5
BRANCH   3  18
ATOM     18  CA  PHE A   1     -35.838  20.108   1.374  0.00  0.00    +0.017 C 
BRANCH  18  19
ATOM     19  N   PHE A   1     -37.267  20.136   1.059  0.00  0.00    +0.388 N 
ATOM     20  H1  PHE A   1     -37.769  20.623   1.800  0.00  0.00    -0.089 HD
ATOM     21  H2  PHE A   1     -37.617  19.180   0.983  0.00  0.00    -0.089 HD
ATOM     22  H3  PHE A   1     -37.410  20.622   0.174  0.00  0.00    -0.089 HD
ENDBRANCH  18  19
BRANCH  18  23
ATOM     23  CB  PHE A   1     -35.020  20.033   0.075  0.00  0.00    +0.013 C 
BRANCH  23  24
ATOM     24  CG  PHE A   1     -33.606  19.550   0.302  0.00  0.00    -0.024 C 
ATOM     25  CD1 PHE A   1     -32.551  20.256  -0.254  0.00  0.00    -0.004 C 
ATOM     26  CD2 PHE A   1     -33.391  18.412   1.061  0.00  0.00    -0.004 C 
ATOM     27  CE1 PHE A   1     -31.246  19.810  -0.046  0.00  0.00    -0.000 C 
ATOM     28  CE2 PHE A   1     -32.085  17.966   1.269  0.00  0.00    -0.000 C 
ATOM     29  CZ  PHE A   1     -31.013  18.666   0.717  0.00  0.00    -0.000 C 
ENDBRANCH  23  24
ENDBRANCH  18  23
ENDBRANCH   3  18
TORSDOF 9
ENDMDL
MODEL 4
REMARK VINA RESULT:      -6.0      3.976      6.394
REMARK  Name = 20236234
REMARK  9 active torsions:
REMARK  status: ('A' for Active; 'I' for Inactive)
REMARK    1  A    between atoms: N_2  and  CA_5
REMARK    2  A    between atoms: C_3  and  CA_18
REMARK    3  A    between atoms: CA_5  and  C_7
REMARK    4  A    between atoms: CA_5  and  CB_10
REMARK    5  A    between atoms: C_7  and  O_8
REMARK    6  A    between atoms: CB_10  and  CG_13
REMARK    7  A    between atoms: CA_18  and  N_19
REMARK    8  A    between atoms: CA_18  and  CB_23
REMARK    9  A    between atoms: CB_23  and  CG_24
REMARK                            x       y       z     vdW  Elec       q    Type
REMARK                         _______ _______ _______ _____ _____    ______ ____
ROOT
ATOM      1  O   PHE A   1     -36.092  23.470   1.865  0.00  0.00    -0.277 OA
ATOM      2  N   HIS A   2     -36.728  22.358   3.798  0.00  0.00    -0.298 N 
ATOM      3  C   PHE A   1     -36.839  22.693   2.456  0.00  0.00    +0.203 C 
ATOM      4  H   HIS A   2     -37.375  21.725   4.186  0.00  0.00    +0.150 HD
ENDROOT
BRANCH   2   5
ATOM      5  CA  HIS A   2     -35.697  22.909   4.644  0.00  0.00    +0.177 C 
BRANCH   5   7
ATOM      6  OXT HIS A   2     -35.203  22.282   6.928  0.00  0.00    -0.248 OA
ATOM      7  C   HIS A   2     -35.330  21.938   5.757  0.00  0.00    +0.332 C 
BRANCH   7   8
ATOM      8  O   HIS A   2     -35.146  20.657   5.358  0.00  0.00    -0.479 OA
ATOM      9  H   HIS A   2     -34.483  20.454   4.727  0.00  0.00    +0.295 HD
ENDBRANCH   7   8
ENDBRANCH   5   7
BRANCH   5  10
ATOM     10  CB  HIS A   2     -36.123  24.256   5.243  0.00  0.00    +0.073 C 
BRANCH  10  13
ATOM     11  ND1 HIS A   2     -34.926  25.813   3.711  0.00  0.00    -0.319 N 
ATOM     12  NE2 HIS A   2     -33.580  26.956   5.057  0.00  0.00    -0.315 N 
ATOM     13  CG  HIS A   2     -35.126  25.357   4.960  0.00  0.00    +0.040 C 
ATOM     14  CD2 HIS A   2     -34.311  26.047   5.781  0.00  0.00    +0.069 C 
ATOM     15  CE1 HIS A   2     -33.975  26.789   3.814  0.00  0.00    +0.182 C 
ATOM     16  HD1 HIS A   2     -35.374  25.507   2.889  0.00  0.00    +0.148 HD
ATOM     17  HE2 HIS A   2     -32.909  27.592   5.395  0.00  0.00    +0.148 HD
ENDBRANCH  10  13
ENDBRANCH   5  10
ENDBRANCH   2   5
BRANCH   3  18
ATOM     18  CA  PHE A   1     -37.987  21.965   1.764  0.00  0.00    +0.017 C 
BRANCH  18  19
ATOM     19  N   PHE A   1     -37.744  20.532   1.936  0.00  0.00    +0.388 N 
ATOM     20  H1  PHE A   1     -38.069  20.240   2.857  0.00  0.00    -0.089 HD
ATOM     21  H2  PHE A   1     -36.745  20.344   1.852  0.00  0.00    -0.089 HD
ATOM     22  H3  PHE A   1     -38.249  20.013   1.217  0.00  0.00    -0.089 HD
ENDBRANCH  18  19
BRANCH  18  23
ATOM     23  CB  PHE A   1     -39.333  22.346   2.400  0.00  0.00    +0.013 C 
BRANCH  23  24
ATOM     24  CG  PHE A   1     -39.736  23.772   2.106  0.00  0.00    -0.024 C 
ATOM     25  CD1 PHE A   1     -39.842  24.675   3.152  0.00  0.00    -0.004 C 
ATOM     26  CD2 PHE A   1     -39.991  24.150   0.799  0.00  0.00    -0.004 C 
ATOM     27  CE1 PHE A   1     -40.216  25.992   2.882  0.00  0.00    -0.000 C 
ATOM     28  CE2 PHE A   1     -40.364  25.467   0.529  0.00  0.00    -0.000 C 
ATOM     29  CZ  PHE A   1     -40.475  26.388   1.570  0.00  0.00    -0.000 C 
ENDBRANCH  23  24
ENDBRANCH  18  23
ENDBRANCH   3  18
TORSDOF 9
ENDMDL
MODEL 5
REMARK VINA RESULT:      -6.0      3.225      6.988
REMARK  Name = 20236234
REMARK  9 active torsions:
REMARK  status: ('A' for Active; 'I' for Inactive)
REMARK    1  A    between atoms: N_2  and  CA_5
REMARK    2  A    between atoms: C_3  and  CA_18
REMARK    3  A    between atoms: CA_5  and  C_7
REMARK    4  A    between atoms: CA_5  and  CB_10
REMARK    5  A    between atoms: C_7  and  O_8
REMARK    6  A    between atoms: CB_10  and  CG_13
REMARK    7  A    between atoms: CA_18  and  N_19
REMARK    8  A    between atoms: CA_18  and  CB_23
REMARK    9  A    between atoms: CB_23  and  CG_24
REMARK                            x       y       z     vdW  Elec       q    Type
REMARK                         _______ _______ _______ _____ _____    ______ ____
ROOT
ATOM      1  O   PHE A   1     -37.840  24.497   3.819  0.00  0.00    -0.277 OA
ATOM      2  N   HIS A   2     -35.706  23.675   4.206  0.00  0.00    -0.298 N 
ATOM      3  C   PHE A   1     -36.629  24.676   3.941  0.00  0.00    +0.203 C 
ATOM      4  H   HIS A   2     -34.754  23.914   4.286  0.00  0.00    +0.150 HD
ENDROOT
BRANCH   2   5
ATOM      5  CA  HIS A   2     -36.096  22.294   4.368  0.00  0.00    +0.177 C 
BRANCH   5   7
ATOM      6  OXT HIS A   2     -35.684  22.251   6.751  0.00  0.00    -0.248 OA
ATOM      7  C   HIS A   2     -35.530  21.717   5.657  0.00  0.00    +0.332 C 
BRANCH   7   8
ATOM      8  O   HIS A   2     -34.833  20.566   5.508  0.00  0.00    -0.479 OA
ATOM      9  H   HIS A   2     -34.813  19.938   6.203  0.00  0.00    +0.295 HD
ENDBRANCH   7   8
ENDBRANCH   5   7
BRANCH   5  10
ATOM     10  CB  HIS A   2     -35.652  21.442   3.171  0.00  0.00    +0.073 C 
BRANCH  10  13
ATOM     11  ND1 HIS A   2     -37.992  21.720   2.366  0.00  0.00    -0.319 N 
ATOM     12  NE2 HIS A   2     -38.112  20.375   0.603  0.00  0.00    -0.315 N 
ATOM     13  CG  HIS A   2     -36.788  21.138   2.223  0.00  0.00    +0.040 C 
ATOM     14  CD2 HIS A   2     -36.856  20.320   1.155  0.00  0.00    +0.069 C 
ATOM     15  CE1 HIS A   2     -38.771  21.227   1.356  0.00  0.00    +0.182 C 
ATOM     16  HD1 HIS A   2     -38.258  22.370   3.056  0.00  0.00    +0.148 HD
ATOM     17  HE2 HIS A   2     -38.445  19.885  -0.182  0.00  0.00    +0.148 HD
ENDBRANCH  10  13
ENDBRANCH   5  10
ENDBRANCH   2   5
BRANCH   3  18
ATOM     18  CA  PHE A   1     -35.984  26.054   3.838  0.00  0.00    +0.017 C 
BRANCH  18  19
ATOM     19  N   PHE A   1     -36.232  26.733   5.111  0.00  0.00    +0.388 N 
ATOM     20  H1  PHE A   1     -36.530  26.051   5.808  0.00  0.00    -0.089 HD
ATOM     21  H2  PHE A   1     -36.963  27.434   4.986  0.00  0.00    -0.089 HD
ATOM     22  H3  PHE A   1     -35.375  27.189   5.425  0.00  0.00    -0.089 HD
ENDBRANCH  18  19
BRANCH  18  23
ATOM     23  CB  PHE A   1     -34.471  25.930   3.599  0.00  0.00    +0.013 C 
BRANCH  23  24
ATOM     24  CG  PHE A   1     -33.654  26.693   4.616  0.00  0.00    -0.024 C 
ATOM     25  CD1 PHE A   1     -33.651  26.271   5.936  0.00  0.00    -0.004 C 
ATOM     26  CD2 PHE A   1     -32.925  27.797   4.210  0.00  0.00    -0.004 C 
ATOM     27  CE1 PHE A   1     -32.898  26.976   6.876  0.00  0.00    -0.000 C 
ATOM     28  CE2 PHE A   1     -32.172  28.502   5.150  0.00  0.00    -0.000 C 
ATOM     29  CZ  PHE A   1     -32.157  28.090   6.483  0.00  0.00    -0.000 C 
ENDBRANCH  23  24
ENDBRANCH  18  23
ENDBRANCH   3  18
TORSDOF 9
ENDMDL
MODEL 6
REMARK VINA RESULT:      -5.9      5.116      7.745
REMARK  Name = 20236234
REMARK  9 active torsions:
REMARK  status: ('A' for Active; 'I' for Inactive)
REMARK    1  A    between atoms: N_2  and  CA_5
REMARK    2  A    between atoms: C_3  and  CA_18
REMARK    3  A    between atoms: CA_5  and  C_7
REMARK    4  A    between atoms: CA_5  and  CB_10
REMARK    5  A    between atoms: C_7  and  O_8
REMARK    6  A    between atoms: CB_10  and  CG_13
REMARK    7  A    between atoms: CA_18  and  N_19
REMARK    8  A    between atoms: CA_18  and  CB_23
REMARK    9  A    between atoms: CB_23  and  CG_24
REMARK                            x       y       z     vdW  Elec       q    Type
REMARK                         _______ _______ _______ _____ _____    ______ ____
ROOT
ATOM      1  O   PHE A   1     -32.564  26.080   3.612  0.00  0.00    -0.277 OA
ATOM      2  N   HIS A   2     -33.255  27.924   4.837  0.00  0.00    -0.298 N 
ATOM      3  C   PHE A   1     -33.451  26.722   4.171  0.00  0.00    +0.203 C 
ATOM      4  H   HIS A   2     -34.028  28.368   5.256  0.00  0.00    +0.150 HD
ENDROOT
BRANCH   2   5
ATOM      5  CA  HIS A   2     -31.956  28.545   4.935  0.00  0.00    +0.177 C 
BRANCH   5   7
ATOM      6  OXT HIS A   2     -31.728  29.419   7.179  0.00  0.00    -0.248 OA
ATOM      7  C   HIS A   2     -31.456  28.536   6.372  0.00  0.00    +0.332 C 
BRANCH   7   8
ATOM      8  O   HIS A   2     -30.676  27.478   6.698  0.00  0.00    -0.479 OA
ATOM      9  H   HIS A   2     -30.368  26.899   6.028  0.00  0.00    +0.295 HD
ENDBRANCH   7   8
ENDBRANCH   5   7
BRANCH   5  10
ATOM     10  CB  HIS A   2     -31.978  29.981   4.396  0.00  0.00    +0.073 C 
BRANCH  10  13
ATOM     11  ND1 HIS A   2     -34.294  30.798   3.985  0.00  0.00    -0.319 N 
ATOM     12  NE2 HIS A   2     -34.613  30.430   1.818  0.00  0.00    -0.315 N 
ATOM     13  CG  HIS A   2     -33.167  30.246   3.502  0.00  0.00    +0.040 C 
ATOM     14  CD2 HIS A   2     -33.356  30.020   2.187  0.00  0.00    +0.069 C 
ATOM     15  CE1 HIS A   2     -35.151  30.894   2.923  0.00  0.00    +0.182 C 
ATOM     16  HD1 HIS A   2     -34.467  31.078   4.912  0.00  0.00    +0.148 HD
ATOM     17  HE2 HIS A   2     -35.019  30.387   0.923  0.00  0.00    +0.148 HD
ENDBRANCH  10  13
ENDBRANCH   5  10
ENDBRANCH   2   5
BRANCH   3  18
ATOM     18  CA  PHE A   1     -34.901  26.253   4.226  0.00  0.00    +0.017 C 
BRANCH  18  19
ATOM     19  N   PHE A   1     -35.725  27.371   3.762  0.00  0.00    +0.388 N 
ATOM     20  H1  PHE A   1     -35.176  27.963   3.139  0.00  0.00    -0.089 HD
ATOM     21  H2  PHE A   1     -36.037  27.919   4.565  0.00  0.00    -0.089 HD
ATOM     22  H3  PHE A   1     -36.537  27.010   3.261  0.00  0.00    -0.089 HD
ENDBRANCH  18  19
BRANCH  18  23
ATOM     23  CB  PHE A   1     -35.113  25.036   3.312  0.00  0.00    +0.013 C 
BRANCH  23  24
ATOM     24  CG  PHE A   1     -35.167  23.734   4.077  0.00  0.00    -0.024 C 
ATOM     25  CD1 PHE A   1     -35.356  22.549   3.384  0.00  0.00    -0.004 C 
ATOM     26  CD2 PHE A   1     -35.028  23.749   5.454  0.00  0.00    -0.004 C 
ATOM     27  CE1 PHE A   1     -35.408  21.346   4.089  0.00  0.00    -0.000 C 
ATOM     28  CE2 PHE A   1     -35.079  22.547   6.160  0.00  0.00    -0.000 C 
ATOM     29  CZ  PHE A   1     -35.268  21.345   5.477  0.00  0.00    -0.000 C 
ENDBRANCH  23  24
ENDBRANCH  18  23
ENDBRANCH   3  18
TORSDOF 9
ENDMDL
MODEL 7
REMARK VINA RESULT:      -5.8      2.261      3.548
REMARK  Name = 20236234
REMARK  9 active torsions:
REMARK  status: ('A' for Active; 'I' for Inactive)
REMARK    1  A    between atoms: N_2  and  CA_5
REMARK    2  A    between atoms: C_3  and  CA_18
REMARK    3  A    between atoms: CA_5  and  C_7
REMARK    4  A    between atoms: CA_5  and  CB_10
REMARK    5  A    between atoms: C_7  and  O_8
REMARK    6  A    between atoms: CB_10  and  CG_13
REMARK    7  A    between atoms: CA_18  and  N_19
REMARK    8  A    between atoms: CA_18  and  CB_23
REMARK    9  A    between atoms: CB_23  and  CG_24
REMARK                            x       y       z     vdW  Elec       q    Type
REMARK                         _______ _______ _______ _____ _____    ______ ____
ROOT
ATOM      1  O   PHE A   1     -36.018  23.488   1.345  0.00  0.00    -0.277 OA
ATOM      2  N   HIS A   2     -35.250  23.506   3.533  0.00  0.00    -0.298 N 
ATOM      3  C   PHE A   1     -35.540  22.906   2.317  0.00  0.00    +0.203 C 
ATOM      4  H   HIS A   2     -34.868  22.958   4.256  0.00  0.00    +0.150 HD
ENDROOT
BRANCH   2   5
ATOM      5  CA  HIS A   2     -35.491  24.909   3.774  0.00  0.00    +0.177 C 
BRANCH   5   7
ATOM      6  OXT HIS A   2     -33.168  25.201   4.380  0.00  0.00    -0.248 OA
ATOM      7  C   HIS A   2     -34.337  25.535   4.543  0.00  0.00    +0.332 C 
BRANCH   7   8
ATOM      8  O   HIS A   2     -34.697  26.491   5.432  0.00  0.00    -0.479 OA
ATOM      9  H   HIS A   2     -35.007  26.247   6.282  0.00  0.00    +0.295 HD
ENDBRANCH   7   8
ENDBRANCH   5   7
BRANCH   5  10
ATOM     10  CB  HIS A   2     -36.808  25.130   4.531  0.00  0.00    +0.073 C 
BRANCH  10  13
ATOM     11  ND1 HIS A   2     -39.175  24.833   3.819  0.00  0.00    -0.319 N 
ATOM     12  NE2 HIS A   2     -39.340  26.072   1.983  0.00  0.00    -0.315 N 
ATOM     13  CG  HIS A   2     -37.972  25.392   3.603  0.00  0.00    +0.040 C 
ATOM     14  CD2 HIS A   2     -38.067  26.145   2.490  0.00  0.00    +0.069 C 
ATOM     15  CE1 HIS A   2     -39.983  25.274   2.808  0.00  0.00    +0.182 C 
ATOM     16  HD1 HIS A   2     -39.425  24.230   4.555  0.00  0.00    +0.148 HD
ATOM     17  HE2 HIS A   2     -39.694  26.519   1.181  0.00  0.00    +0.148 HD
ENDBRANCH  10  13
ENDBRANCH   5  10
ENDBRANCH   2   5
BRANCH   3  18
ATOM     18  CA  PHE A   1     -35.174  21.425   2.294  0.00  0.00    +0.017 C 
BRANCH  18  19
ATOM     19  N   PHE A   1     -36.340  20.694   2.792  0.00  0.00    +0.388 N 
ATOM     20  H1  PHE A   1     -36.631  21.086   3.687  0.00  0.00    -0.089 HD
ATOM     21  H2  PHE A   1     -36.098  19.710   2.914  0.00  0.00    -0.089 HD
ATOM     22  H3  PHE A   1     -37.104  20.775   2.121  0.00  0.00    -0.089 HD
ENDBRANCH  18  19
BRANCH  18  23
ATOM     23  CB  PHE A   1     -34.845  20.968   0.864  0.00  0.00    +0.013 C 
BRANCH  23  24
ATOM     24  CG  PHE A   1     -33.588  20.133   0.792  0.00  0.00    -0.024 C 
ATOM     25  CD1 PHE A   1     -32.501  20.606   0.074  0.00  0.00    -0.004 C 
ATOM     26  CD2 PHE A   1     -33.546  18.912   1.444  0.00  0.00    -0.004 C 
ATOM     27  CE1 PHE A   1     -31.340  19.835   0.006  0.00  0.00    -0.000 C 
ATOM     28  CE2 PHE A   1     -32.385  18.141   1.376  0.00  0.00    -0.000 C 
ATOM     29  CZ  PHE A   1     -31.282  18.603   0.658  0.00  0.00    -0.000 C 
ENDBRANCH  23  24
ENDBRANCH  18  23
ENDBRANCH   3  18
TORSDOF 9
ENDMDL
MODEL 8
REMARK VINA RESULT:      -5.8      4.352      7.584
REMARK  Name = 20236234
REMARK  9 active torsions:
REMARK  status: ('A' for Active; 'I' for Inactive)
REMARK    1  A    between atoms: N_2  and  CA_5
REMARK    2  A    between atoms: C_3  and  CA_18
REMARK    3  A    between atoms: CA_5  and  C_7
REMARK    4  A    between atoms: CA_5  and  CB_10
REMARK    5  A    between atoms: C_7  and  O_8
REMARK    6  A    between atoms: CB_10  and  CG_13
REMARK    7  A    between atoms: CA_18  and  N_19
REMARK    8  A    between atoms: CA_18  and  CB_23
REMARK    9  A    between atoms: CB_23  and  CG_24
REMARK                            x       y       z     vdW  Elec       q    Type
REMARK                         _______ _______ _______ _____ _____    ______ ____
ROOT
ATOM      1  O   PHE A   1     -34.014  26.109   2.379  0.00  0.00    -0.277 OA
ATOM      2  N   HIS A   2     -35.996  26.970   3.221  0.00  0.00    -0.298 N 
ATOM      3  C   PHE A   1     -34.721  27.068   2.683  0.00  0.00    +0.203 C 
ATOM      4  H   HIS A   2     -36.488  27.795   3.435  0.00  0.00    +0.150 HD
ENDROOT
BRANCH   2   5
ATOM      5  CA  HIS A   2     -36.624  25.696   3.480  0.00  0.00    +0.177 C 
BRANCH   5   7
ATOM      6  OXT HIS A   2     -38.633  26.540   2.429  0.00  0.00    -0.248 OA
ATOM      7  C   HIS A   2     -38.125  25.771   3.240  0.00  0.00    +0.332 C 
BRANCH   7   8
ATOM      8  O   HIS A   2     -38.866  24.928   3.997  0.00  0.00    -0.479 OA
ATOM      9  H   HIS A   2     -39.797  24.901   3.892  0.00  0.00    +0.295 HD
ENDBRANCH   7   8
ENDBRANCH   5   7
BRANCH   5  10
ATOM     10  CB  HIS A   2     -36.344  25.212   4.908  0.00  0.00    +0.073 C 
BRANCH  10  13
ATOM     11  ND1 HIS A   2     -35.398  23.219   6.063  0.00  0.00    -0.319 N 
ATOM     12  NE2 HIS A   2     -35.536  21.605   4.543  0.00  0.00    -0.315 N 
ATOM     13  CG  HIS A   2     -35.946  23.755   4.959  0.00  0.00    +0.040 C 
ATOM     14  CD2 HIS A   2     -36.032  22.780   4.033  0.00  0.00    +0.069 C 
ATOM     15  CE1 HIS A   2     -35.164  21.904   5.768  0.00  0.00    +0.182 C 
ATOM     16  HD1 HIS A   2     -35.205  23.678   6.912  0.00  0.00    +0.148 HD
ATOM     17  HE2 HIS A   2     -35.475  20.733   4.092  0.00  0.00    +0.148 HD
ENDBRANCH  10  13
ENDBRANCH   5  10
ENDBRANCH   2   5
BRANCH   3  18
ATOM     18  CA  PHE A   1     -34.283  28.515   2.477  0.00  0.00    +0.017 C 
BRANCH  18  19
ATOM     19  N   PHE A   1     -35.011  29.320   3.459  0.00  0.00    +0.388 N 
ATOM     20  H1  PHE A   1     -35.186  30.249   3.075  0.00  0.00    -0.089 HD
ATOM     21  H2  PHE A   1     -34.454  29.404   4.310  0.00  0.00    -0.089 HD
ATOM     22  H3  PHE A   1     -35.900  28.869   3.677  0.00  0.00    -0.089 HD
ENDBRANCH  18  19
BRANCH  18  23
ATOM     23  CB  PHE A   1     -32.770  28.662   2.701  0.00  0.00    +0.013 C 
BRANCH  23  24
ATOM     24  CG  PHE A   1     -32.420  28.995   4.133  0.00  0.00    -0.024 C 
ATOM     25  CD1 PHE A   1     -32.190  30.316   4.483  0.00  0.00    -0.004 C 
ATOM     26  CD2 PHE A   1     -32.336  27.976   5.066  0.00  0.00    -0.004 C 
ATOM     27  CE1 PHE A   1     -31.865  30.625   5.805  0.00  0.00    -0.000 C 
ATOM     28  CE2 PHE A   1     -32.012  28.285   6.387  0.00  0.00    -0.000 C 
ATOM     29  CZ  PHE A   1     -31.777  29.609   6.757  0.00  0.00    -0.000 C 
ENDBRANCH  23  24
ENDBRANCH  18  23
ENDBRANCH   3  18
TORSDOF 9
ENDMDL
MODEL 9
REMARK VINA RESULT:      -5.7      3.825      7.400
REMARK  Name = 20236234
REMARK  9 active torsions:
REMARK  status: ('A' for Active; 'I' for Inactive)
REMARK    1  A    between atoms: N_2  and  CA_5
REMARK    2  A    between atoms: C_3  and  CA_18
REMARK    3  A    between atoms: CA_5  and  C_7
REMARK    4  A    between atoms: CA_5  and  CB_10
REMARK    5  A    between atoms: C_7  and  O_8
REMARK    6  A    between atoms: CB_10  and  CG_13
REMARK    7  A    between atoms: CA_18  and  N_19
REMARK    8  A    between atoms: CA_18  and  CB_23
REMARK    9  A    between atoms: CB_23  and  CG_24
REMARK                            x       y       z     vdW  Elec       q    Type
REMARK                         _______ _______ _______ _____ _____    ______ ____
ROOT
ATOM      1  O   PHE A   1     -36.396  24.293   1.891  0.00  0.00    -0.277 OA
ATOM      2  N   HIS A   2     -36.984  23.008   3.729  0.00  0.00    -0.298 N 
ATOM      3  C   PHE A   1     -37.252  23.764   2.597  0.00  0.00    +0.203 C 
ATOM      4  H   HIS A   2     -37.736  22.623   4.234  0.00  0.00    +0.150 HD
ENDROOT
BRANCH   2   5
ATOM      5  CA  HIS A   2     -35.637  22.769   4.192  0.00  0.00    +0.177 C 
BRANCH   5   7
ATOM      6  OXT HIS A   2     -35.309  20.463   3.538  0.00  0.00    -0.248 OA
ATOM      7  C   HIS A   2     -35.404  21.287   4.443  0.00  0.00    +0.332 C 
BRANCH   7   8
ATOM      8  O   HIS A   2     -35.314  20.937   5.748  0.00  0.00    -0.479 OA
ATOM      9  H   HIS A   2     -34.516  20.577   6.083  0.00  0.00    +0.295 HD
ENDBRANCH   7   8
ENDBRANCH   5   7
BRANCH   5  10
ATOM     10  CB  HIS A   2     -35.329  23.572   5.462  0.00  0.00    +0.073 C 
BRANCH  10  13
ATOM     11  ND1 HIS A   2     -34.139  25.150   3.948  0.00  0.00    -0.319 N 
ATOM     12  NE2 HIS A   2     -33.741  26.920   5.229  0.00  0.00    -0.315 N 
ATOM     13  CG  HIS A   2     -34.642  24.885   5.166  0.00  0.00    +0.040 C 
ATOM     14  CD2 HIS A   2     -34.403  25.956   5.947  0.00  0.00    +0.069 C 
ATOM     15  CE1 HIS A   2     -33.598  26.403   4.028  0.00  0.00    +0.182 C 
ATOM     16  HD1 HIS A   2     -34.157  24.563   3.158  0.00  0.00    +0.148 HD
ATOM     17  HE2 HIS A   2     -33.441  27.803   5.542  0.00  0.00    +0.148 HD
ENDBRANCH  10  13
ENDBRANCH   5  10
ENDBRANCH   2   5
BRANCH   3  18
ATOM     18  CA  PHE A   1     -38.744  23.854   2.294  0.00  0.00    +0.017 C 
BRANCH  18  19
ATOM     19  N   PHE A   1     -39.261  22.485   2.309  0.00  0.00    +0.388 N 
ATOM     20  H1  PHE A   1     -38.711  21.906   1.676  0.00  0.00    -0.089 HD
ATOM     21  H2  PHE A   1     -40.236  22.487   2.008  0.00  0.00    -0.089 HD
ATOM     22  H3  PHE A   1     -39.199  22.109   3.256  0.00  0.00    -0.089 HD
ENDBRANCH  18  19
BRANCH  18  23
ATOM     23  CB  PHE A   1     -39.465  24.695   3.358  0.00  0.00    +0.013 C 
BRANCH  23  24
ATOM     24  CG  PHE A   1     -40.425  25.697   2.760  0.00  0.00    -0.024 C 
ATOM     25  CD1 PHE A   1     -41.355  26.318   3.579  0.00  0.00    -0.004 C 
ATOM     26  CD2 PHE A   1     -40.358  25.975   1.405  0.00  0.00    -0.004 C 
ATOM     27  CE1 PHE A   1     -42.242  27.241   3.027  0.00  0.00    -0.000 C 
ATOM     28  CE2 PHE A   1     -41.246  26.899   0.853  0.00  0.00    -0.000 C 
ATOM     29  CZ  PHE A   1     -42.187  27.533   1.664  0.00  0.00    -0.000 C 
ENDBRANCH  23  24
ENDBRANCH  18  23
ENDBRANCH   3  18
TORSDOF 9
ENDMDL
