MODEL 1
REMARK VINA RESULT:      -8.0      0.000      0.000
REMARK  Name = 21578956
REMARK  1 active torsions:
REMARK  status: ('A' for Active; 'I' for Inactive)
REMARK    1  A    between atoms: C_12  and  N_33
REMARK                            x       y       z     vdW  Elec       q    Type
REMARK                         _______ _______ _______ _____ _____    ______ ____
ROOT
ATOM      1  O   UNL     1     -37.337  24.605  -0.599  0.00  0.00    -0.273 OA
ATOM      2  O   UNL     1     -38.269  27.990   0.501  0.00  0.00    -0.273 OA
ATOM      3  O   UNL     1     -34.784  26.620   5.298  0.00  0.00    -0.270 OA
ATOM      4  N   UNL     1     -38.308  24.563   1.491  0.00  0.00    -0.271 N 
ATOM      5  N   UNL     1     -36.925  26.972   2.128  0.00  0.00    -0.282 N 
ATOM      6  N   UNL     1     -34.805  25.083   3.639  0.00  0.00    -0.255 N 
ATOM      7  C   UNL     1     -38.962  25.869   1.338  0.00  0.00    +0.152 C 
ATOM      8  C   UNL     1     -39.841  26.020   2.585  0.00  0.00    +0.031 C 
ATOM      9  C   UNL     1     -40.088  24.589   3.029  0.00  0.00    +0.024 C 
ATOM     10  C   UNL     1     -38.778  23.892   2.700  0.00  0.00    +0.094 C 
ATOM     11  C   UNL     1     -37.554  24.007   0.460  0.00  0.00    +0.253 C 
ATOM     12  C   UNL     1     -36.943  22.625   0.699  0.00  0.00    +0.242 C 
ATOM     13  C   UNL     1     -37.989  27.047   1.238  0.00  0.00    +0.244 C 
ATOM     14  C   UNL     1     -35.429  22.673   0.932  0.00  0.00    +0.045 C 
ATOM     15  C   UNL     1     -35.103  23.379   2.207  0.00  0.00    +0.046 C 
ATOM     16  C   UNL     1     -35.141  22.857   3.531  0.00  0.00    -0.007 C 
ATOM     17  C   UNL     1     -34.917  23.925   4.412  0.00  0.00    +0.050 C 
ATOM     18  C   UNL     1     -34.745  24.702   2.315  0.00  0.00    +0.103 C 
ATOM     19  C   UNL     1     -35.828  27.868   2.256  0.00  0.00    +0.055 C 
ATOM     20  C   UNL     1     -34.809  27.605   3.199  0.00  0.00    +0.067 C 
ATOM     21  C   UNL     1     -34.798  26.419   4.088  0.00  0.00    +0.254 C 
ATOM     22  C   UNL     1     -35.378  21.568   4.058  0.00  0.00    -0.003 C 
ATOM     23  C   UNL     1     -34.899  23.723   5.804  0.00  0.00    +0.015 C 
ATOM     24  C   UNL     1     -35.703  29.024   1.471  0.00  0.00    +0.015 C 
ATOM     25  C   UNL     1     -35.356  21.370   5.440  0.00  0.00    -0.000 C 
ATOM     26  C   UNL     1     -35.114  22.433   6.300  0.00  0.00    +0.001 C 
ATOM     27  C   UNL     1     -33.731  28.488   3.366  0.00  0.00    +0.006 C 
ATOM     28  C   UNL     1     -34.620  29.895   1.632  0.00  0.00    +0.001 C 
ATOM     29  C   UNL     1     -33.638  29.631   2.581  0.00  0.00    +0.000 C 
ATOM     30  H   UNL     1     -36.931  26.205   2.745  0.00  0.00    +0.155 HD
ENDROOT
BRANCH  12  33
ATOM     31  O   UNL     1     -36.178  21.587  -1.239  0.00  0.00    -0.131 OA
ATOM     32  O   UNL     1     -38.332  21.497  -0.786  0.00  0.00    -0.131 OA
ATOM     33  N   UNL     1     -37.169  21.847  -0.543  0.00  0.00    +0.041 N 
ENDBRANCH  12  33
TORSDOF 1
ENDMDL
MODEL 2
REMARK VINA RESULT:      -7.1      2.309      4.122
REMARK  Name = 21578956
REMARK  1 active torsions:
REMARK  status: ('A' for Active; 'I' for Inactive)
REMARK    1  A    between atoms: C_12  and  N_33
REMARK                            x       y       z     vdW  Elec       q    Type
REMARK                         _______ _______ _______ _____ _____    ______ ____
ROOT
ATOM      1  O   UNL     1     -38.429  24.586   3.246  0.00  0.00    -0.273 OA
ATOM      2  O   UNL     1     -36.011  26.444   5.304  0.00  0.00    -0.273 OA
ATOM      3  O   UNL     1     -32.136  24.910   0.868  0.00  0.00    -0.270 OA
ATOM      4  N   UNL     1     -36.609  23.276   3.778  0.00  0.00    -0.271 N 
ATOM      5  N   UNL     1     -34.929  25.550   3.426  0.00  0.00    -0.282 N 
ATOM      6  N   UNL     1     -34.297  24.345   0.512  0.00  0.00    -0.255 N 
ATOM      7  C   UNL     1     -36.208  24.099   4.926  0.00  0.00    +0.152 C 
ATOM      8  C   UNL     1     -35.059  23.328   5.585  0.00  0.00    +0.031 C 
ATOM      9  C   UNL     1     -35.291  21.891   5.151  0.00  0.00    +0.024 C 
ATOM     10  C   UNL     1     -35.833  22.039   3.739  0.00  0.00    +0.094 C 
ATOM     11  C   UNL     1     -37.745  23.579   3.032  0.00  0.00    +0.253 C 
ATOM     12  C   UNL     1     -38.103  22.641   1.878  0.00  0.00    +0.242 C 
ATOM     13  C   UNL     1     -35.745  25.509   4.551  0.00  0.00    +0.244 C 
ATOM     14  C   UNL     1     -37.806  23.245   0.501  0.00  0.00    +0.045 C 
ATOM     15  C   UNL     1     -36.339  23.433   0.302  0.00  0.00    +0.046 C 
ATOM     16  C   UNL     1     -35.375  22.458  -0.083  0.00  0.00    -0.007 C 
ATOM     17  C   UNL     1     -34.110  23.052   0.018  0.00  0.00    +0.050 C 
ATOM     18  C   UNL     1     -35.651  24.606   0.506  0.00  0.00    +0.103 C 
ATOM     19  C   UNL     1     -34.378  26.696   2.788  0.00  0.00    +0.055 C 
ATOM     20  C   UNL     1     -33.599  26.545   1.620  0.00  0.00    +0.067 C 
ATOM     21  C   UNL     1     -33.313  25.236   0.985  0.00  0.00    +0.254 C 
ATOM     22  C   UNL     1     -35.471  21.106  -0.481  0.00  0.00    -0.003 C 
ATOM     23  C   UNL     1     -32.944  22.330  -0.297  0.00  0.00    +0.015 C 
ATOM     24  C   UNL     1     -34.577  27.998   3.272  0.00  0.00    +0.015 C 
ATOM     25  C   UNL     1     -34.313  20.392  -0.797  0.00  0.00    -0.000 C 
ATOM     26  C   UNL     1     -33.067  21.000  -0.710  0.00  0.00    +0.001 C 
ATOM     27  C   UNL     1     -33.018  27.656   0.988  0.00  0.00    +0.006 C 
ATOM     28  C   UNL     1     -34.007  29.104   2.632  0.00  0.00    +0.001 C 
ATOM     29  C   UNL     1     -33.225  28.933   1.495  0.00  0.00    +0.000 C 
ATOM     30  H   UNL     1     -34.707  24.681   3.021  0.00  0.00    +0.155 HD
ENDROOT
BRANCH  12  33
ATOM     31  O   UNL     1     -39.962  21.378   2.489  0.00  0.00    -0.131 OA
ATOM     32  O   UNL     1     -40.295  23.316   1.493  0.00  0.00    -0.131 OA
ATOM     33  N   UNL     1     -39.568  22.425   1.954  0.00  0.00    +0.041 N 
ENDBRANCH  12  33
TORSDOF 1
ENDMDL
MODEL 3
REMARK VINA RESULT:      -7.1      2.049      5.443
REMARK  Name = 21578956
REMARK  1 active torsions:
REMARK  status: ('A' for Active; 'I' for Inactive)
REMARK    1  A    between atoms: C_12  and  N_33
REMARK                            x       y       z     vdW  Elec       q    Type
REMARK                         _______ _______ _______ _____ _____    ______ ____
ROOT
ATOM      1  O   UNL     1     -35.734  27.656   3.518  0.00  0.00    -0.273 OA
ATOM      2  O   UNL     1     -37.620  28.679   0.530  0.00  0.00    -0.273 OA
ATOM      3  O   UNL     1     -39.515  22.896   0.619  0.00  0.00    -0.270 OA
ATOM      4  N   UNL     1     -35.236  26.306   1.717  0.00  0.00    -0.271 N 
ATOM      5  N   UNL     1     -37.978  26.401   0.950  0.00  0.00    -0.282 N 
ATOM      6  N   UNL     1     -38.238  23.530   2.375  0.00  0.00    -0.255 N 
ATOM      7  C   UNL     1     -35.704  27.274   0.717  0.00  0.00    +0.152 C 
ATOM      8  C   UNL     1     -35.325  26.661  -0.636  0.00  0.00    +0.031 C 
ATOM      9  C   UNL     1     -34.173  25.730  -0.301  0.00  0.00    +0.024 C 
ATOM     10  C   UNL     1     -34.548  25.192   1.070  0.00  0.00    +0.094 C 
ATOM     11  C   UNL     1     -35.258  26.604   3.078  0.00  0.00    +0.253 C 
ATOM     12  C   UNL     1     -34.715  25.546   4.040  0.00  0.00    +0.242 C 
ATOM     13  C   UNL     1     -37.210  27.545   0.767  0.00  0.00    +0.244 C 
ATOM     14  C   UNL     1     -35.818  24.825   4.822  0.00  0.00    +0.045 C 
ATOM     15  C   UNL     1     -36.673  24.004   3.913  0.00  0.00    +0.046 C 
ATOM     16  C   UNL     1     -36.402  22.708   3.390  0.00  0.00    -0.007 C 
ATOM     17  C   UNL     1     -37.407  22.411   2.459  0.00  0.00    +0.050 C 
ATOM     18  C   UNL     1     -37.879  24.399   3.383  0.00  0.00    +0.103 C 
ATOM     19  C   UNL     1     -39.391  26.312   1.091  0.00  0.00    +0.055 C 
ATOM     20  C   UNL     1     -39.999  25.056   1.313  0.00  0.00    +0.067 C 
ATOM     21  C   UNL     1     -39.244  23.784   1.420  0.00  0.00    +0.254 C 
ATOM     22  C   UNL     1     -35.366  21.773   3.609  0.00  0.00    -0.003 C 
ATOM     23  C   UNL     1     -37.410  21.187   1.765  0.00  0.00    +0.015 C 
ATOM     24  C   UNL     1     -40.228  27.435   1.023  0.00  0.00    +0.015 C 
ATOM     25  C   UNL     1     -35.374  20.557   2.921  0.00  0.00    -0.000 C 
ATOM     26  C   UNL     1     -36.387  20.269   2.015  0.00  0.00    +0.001 C 
ATOM     27  C   UNL     1     -41.393  24.935   1.425  0.00  0.00    +0.006 C 
ATOM     28  C   UNL     1     -41.617  27.312   1.149  0.00  0.00    +0.001 C 
ATOM     29  C   UNL     1     -42.199  26.064   1.345  0.00  0.00    +0.000 C 
ATOM     30  H   UNL     1     -37.485  25.550   0.986  0.00  0.00    +0.155 HD
ENDROOT
BRANCH  12  33
ATOM     31  O   UNL     1     -34.313  26.351   6.188  0.00  0.00    -0.131 OA
ATOM     32  O   UNL     1     -32.800  26.727   4.630  0.00  0.00    -0.131 OA
ATOM     33  N   UNL     1     -33.881  26.270   5.029  0.00  0.00    +0.041 N 
ENDBRANCH  12  33
TORSDOF 1
ENDMDL
MODEL 4
REMARK VINA RESULT:      -7.0      2.194      5.686
REMARK  Name = 21578956
REMARK  1 active torsions:
REMARK  status: ('A' for Active; 'I' for Inactive)
REMARK    1  A    between atoms: C_12  and  N_33
REMARK                            x       y       z     vdW  Elec       q    Type
REMARK                         _______ _______ _______ _____ _____    ______ ____
ROOT
ATOM      1  O   UNL     1     -38.989  20.990   0.739  0.00  0.00    -0.273 OA
ATOM      2  O   UNL     1     -35.632  19.965   1.842  0.00  0.00    -0.273 OA
ATOM      3  O   UNL     1     -35.118  25.836   3.365  0.00  0.00    -0.270 OA
ATOM      4  N   UNL     1     -37.355  22.254  -0.284  0.00  0.00    -0.271 N 
ATOM      5  N   UNL     1     -35.902  22.271   2.167  0.00  0.00    -0.282 N 
ATOM      6  N   UNL     1     -37.158  25.197   2.624  0.00  0.00    -0.255 N 
ATOM      7  C   UNL     1     -36.286  21.278  -0.037  0.00  0.00    +0.152 C 
ATOM      8  C   UNL     1     -35.067  21.828  -0.787  0.00  0.00    +0.031 C 
ATOM      9  C   UNL     1     -35.673  22.711  -1.864  0.00  0.00    +0.024 C 
ATOM     10  C   UNL     1     -36.889  23.311  -1.178  0.00  0.00    +0.094 C 
ATOM     11  C   UNL     1     -38.669  22.002   0.107  0.00  0.00    +0.253 C 
ATOM     12  C   UNL     1     -39.720  23.062  -0.228  0.00  0.00    +0.242 C 
ATOM     13  C   UNL     1     -35.947  21.085   1.443  0.00  0.00    +0.244 C 
ATOM     14  C   UNL     1     -40.174  23.862   0.998  0.00  0.00    +0.045 C 
ATOM     15  C   UNL     1     -39.059  24.694   1.540  0.00  0.00    +0.046 C 
ATOM     16  C   UNL     1     -38.601  25.958   1.070  0.00  0.00    -0.007 C 
ATOM     17  C   UNL     1     -37.435  26.275   1.781  0.00  0.00    +0.050 C 
ATOM     18  C   UNL     1     -38.240  24.343   2.587  0.00  0.00    +0.103 C 
ATOM     19  C   UNL     1     -35.669  22.436   3.561  0.00  0.00    +0.055 C 
ATOM     20  C   UNL     1     -35.702  23.727   4.133  0.00  0.00    +0.067 C 
ATOM     21  C   UNL     1     -35.979  24.962   3.361  0.00  0.00    +0.254 C 
ATOM     22  C   UNL     1     -39.064  26.847   0.075  0.00  0.00    -0.003 C 
ATOM     23  C   UNL     1     -36.741  27.474   1.535  0.00  0.00    +0.015 C 
ATOM     24  C   UNL     1     -35.406  21.354   4.414  0.00  0.00    +0.015 C 
ATOM     25  C   UNL     1     -38.376  28.038  -0.165  0.00  0.00    -0.000 C 
ATOM     26  C   UNL     1     -37.232  28.348   0.560  0.00  0.00    +0.001 C 
ATOM     27  C   UNL     1     -35.446  23.921   5.499  0.00  0.00    +0.006 C 
ATOM     28  C   UNL     1     -35.164  21.550   5.779  0.00  0.00    +0.001 C 
ATOM     29  C   UNL     1     -35.179  22.831   6.320  0.00  0.00    +0.000 C 
ATOM     30  H   UNL     1     -36.050  23.097   1.653  0.00  0.00    +0.155 HD
ENDROOT
BRANCH  12  33
ATOM     31  O   UNL     1     -40.780  21.718  -1.806  0.00  0.00    -0.131 OA
ATOM     32  O   UNL     1     -41.931  22.366  -0.042  0.00  0.00    -0.131 OA
ATOM     33  N   UNL     1     -40.905  22.330  -0.735  0.00  0.00    +0.041 N 
ENDBRANCH  12  33
TORSDOF 1
ENDMDL
MODEL 5
REMARK VINA RESULT:      -6.7      2.495      6.121
REMARK  Name = 21578956
REMARK  1 active torsions:
REMARK  status: ('A' for Active; 'I' for Inactive)
REMARK    1  A    between atoms: C_12  and  N_33
REMARK                            x       y       z     vdW  Elec       q    Type
REMARK                         _______ _______ _______ _____ _____    ______ ____
ROOT
ATOM      1  O   UNL     1     -36.871  25.581  -0.615  0.00  0.00    -0.273 OA
ATOM      2  O   UNL     1     -34.898  23.260  -2.679  0.00  0.00    -0.273 OA
ATOM      3  O   UNL     1     -34.995  19.832   2.349  0.00  0.00    -0.270 OA
ATOM      4  N   UNL     1     -34.869  25.060   0.401  0.00  0.00    -0.271 N 
ATOM      5  N   UNL     1     -35.153  22.379  -0.522  0.00  0.00    -0.282 N 
ATOM      6  N   UNL     1     -36.236  21.721   2.435  0.00  0.00    -0.255 N 
ATOM      7  C   UNL     1     -34.222  24.620  -0.841  0.00  0.00    +0.152 C 
ATOM      8  C   UNL     1     -32.762  24.354  -0.455  0.00  0.00    +0.031 C 
ATOM      9  C   UNL     1     -32.551  25.214   0.778  0.00  0.00    +0.024 C 
ATOM     10  C   UNL     1     -33.894  25.141   1.486  0.00  0.00    +0.094 C 
ATOM     11  C   UNL     1     -36.171  25.554   0.403  0.00  0.00    +0.253 C 
ATOM     12  C   UNL     1     -36.746  26.023   1.741  0.00  0.00    +0.242 C 
ATOM     13  C   UNL     1     -34.840  23.360  -1.454  0.00  0.00    +0.244 C 
ATOM     14  C   UNL     1     -37.783  25.055   2.319  0.00  0.00    +0.045 C 
ATOM     15  C   UNL     1     -37.154  23.754   2.694  0.00  0.00    +0.046 C 
ATOM     16  C   UNL     1     -36.423  23.443   3.876  0.00  0.00    -0.007 C 
ATOM     17  C   UNL     1     -35.887  22.157   3.714  0.00  0.00    +0.050 C 
ATOM     18  C   UNL     1     -37.140  22.622   1.914  0.00  0.00    +0.103 C 
ATOM     19  C   UNL     1     -35.781  21.123  -0.752  0.00  0.00    +0.055 C 
ATOM     20  C   UNL     1     -36.059  20.265   0.335  0.00  0.00    +0.067 C 
ATOM     21  C   UNL     1     -35.742  20.594   1.745  0.00  0.00    +0.254 C 
ATOM     22  C   UNL     1     -36.146  24.161   5.061  0.00  0.00    -0.003 C 
ATOM     23  C   UNL     1     -35.104  21.568   4.724  0.00  0.00    +0.015 C 
ATOM     24  C   UNL     1     -36.148  20.688  -2.034  0.00  0.00    +0.015 C 
ATOM     25  C   UNL     1     -35.371  23.572   6.062  0.00  0.00    -0.000 C 
ATOM     26  C   UNL     1     -34.862  22.290   5.896  0.00  0.00    +0.001 C 
ATOM     27  C   UNL     1     -36.650  19.008   0.133  0.00  0.00    +0.006 C 
ATOM     28  C   UNL     1     -36.748  19.439  -2.230  0.00  0.00    +0.001 C 
ATOM     29  C   UNL     1     -36.995  18.599  -1.150  0.00  0.00    +0.000 C 
ATOM     30  H   UNL     1     -34.912  22.577   0.412  0.00  0.00    +0.155 HD
ENDROOT
BRANCH  12  33
ATOM     31  O   UNL     1     -38.665  27.248   1.253  0.00  0.00    -0.131 OA
ATOM     32  O   UNL     1     -36.764  28.336   1.497  0.00  0.00    -0.131 OA
ATOM     33  N   UNL     1     -37.446  27.302   1.469  0.00  0.00    +0.041 N 
ENDBRANCH  12  33
TORSDOF 1
ENDMDL
MODEL 6
REMARK VINA RESULT:      -6.5      2.797      5.530
REMARK  Name = 21578956
REMARK  1 active torsions:
REMARK  status: ('A' for Active; 'I' for Inactive)
REMARK    1  A    between atoms: C_12  and  N_33
REMARK                            x       y       z     vdW  Elec       q    Type
REMARK                         _______ _______ _______ _____ _____    ______ ____
ROOT
ATOM      1  O   UNL     1     -38.477  21.349   2.295  0.00  0.00    -0.273 OA
ATOM      2  O   UNL     1     -35.484  21.081   4.418  0.00  0.00    -0.273 OA
ATOM      3  O   UNL     1     -33.424  25.560   0.849  0.00  0.00    -0.270 OA
ATOM      4  N   UNL     1     -36.589  20.968   1.028  0.00  0.00    -0.271 N 
ATOM      5  N   UNL     1     -35.135  22.701   2.760  0.00  0.00    -0.282 N 
ATOM      6  N   UNL     1     -35.573  24.948   0.501  0.00  0.00    -0.255 N 
ATOM      7  C   UNL     1     -35.807  20.429   2.148  0.00  0.00    +0.152 C 
ATOM      8  C   UNL     1     -34.502  19.931   1.517  0.00  0.00    +0.031 C 
ATOM      9  C   UNL     1     -34.877  19.671   0.069  0.00  0.00    +0.024 C 
ATOM     10  C   UNL     1     -35.880  20.771  -0.234  0.00  0.00    +0.094 C 
ATOM     11  C   UNL     1     -37.915  21.362   1.194  0.00  0.00    +0.253 C 
ATOM     12  C   UNL     1     -38.659  21.875  -0.040  0.00  0.00    +0.242 C 
ATOM     13  C   UNL     1     -35.503  21.452   3.245  0.00  0.00    +0.244 C 
ATOM     14  C   UNL     1     -38.864  23.394  -0.026  0.00  0.00    +0.045 C 
ATOM     15  C   UNL     1     -37.560  24.114  -0.131  0.00  0.00    +0.046 C 
ATOM     16  C   UNL     1     -36.797  24.377  -1.303  0.00  0.00    -0.007 C 
ATOM     17  C   UNL     1     -35.575  24.931  -0.895  0.00  0.00    +0.050 C 
ATOM     18  C   UNL     1     -36.842  24.617   0.928  0.00  0.00    +0.103 C 
ATOM     19  C   UNL     1     -34.841  23.876   3.506  0.00  0.00    +0.055 C 
ATOM     20  C   UNL     1     -34.524  25.077   2.833  0.00  0.00    +0.067 C 
ATOM     21  C   UNL     1     -34.483  25.206   1.357  0.00  0.00    +0.254 C 
ATOM     22  C   UNL     1     -37.030  24.162  -2.680  0.00  0.00    -0.003 C 
ATOM     23  C   UNL     1     -34.596  25.298  -1.838  0.00  0.00    +0.015 C 
ATOM     24  C   UNL     1     -34.854  23.902   4.909  0.00  0.00    +0.015 C 
ATOM     25  C   UNL     1     -36.059  24.531  -3.613  0.00  0.00    -0.000 C 
ATOM     26  C   UNL     1     -34.861  25.095  -3.196  0.00  0.00    +0.001 C 
ATOM     27  C   UNL     1     -34.199  26.243   3.545  0.00  0.00    +0.006 C 
ATOM     28  C   UNL     1     -34.542  25.070   5.614  0.00  0.00    +0.001 C 
ATOM     29  C   UNL     1     -34.211  26.237   4.935  0.00  0.00    +0.000 C 
ATOM     30  H   UNL     1     -35.072  22.783   1.782  0.00  0.00    +0.155 HD
ENDROOT
BRANCH  12  33
ATOM     31  O   UNL     1     -40.964  21.987   0.263  0.00  0.00    -0.131 OA
ATOM     32  O   UNL     1     -40.073  20.044  -0.270  0.00  0.00    -0.131 OA
ATOM     33  N   UNL     1     -40.003  21.252  -0.007  0.00  0.00    +0.041 N 
ENDBRANCH  12  33
TORSDOF 1
ENDMDL
MODEL 7
REMARK VINA RESULT:      -6.5      2.358      5.955
REMARK  Name = 21578956
REMARK  1 active torsions:
REMARK  status: ('A' for Active; 'I' for Inactive)
REMARK    1  A    between atoms: C_12  and  N_33
REMARK                            x       y       z     vdW  Elec       q    Type
REMARK                         _______ _______ _______ _____ _____    ______ ____
ROOT
ATOM      1  O   UNL     1     -37.465  24.484   4.428  0.00  0.00    -0.273 OA
ATOM      2  O   UNL     1     -39.448  26.738   2.302  0.00  0.00    -0.273 OA
ATOM      3  O   UNL     1     -38.082  22.693  -2.035  0.00  0.00    -0.270 OA
ATOM      4  N   UNL     1     -36.247  25.193   2.605  0.00  0.00    -0.271 N 
ATOM      5  N   UNL     1     -38.599  24.977   1.010  0.00  0.00    -0.282 N 
ATOM      6  N   UNL     1     -37.411  22.144   0.055  0.00  0.00    -0.255 N 
ATOM      7  C   UNL     1     -37.094  26.366   2.351  0.00  0.00    +0.152 C 
ATOM      8  C   UNL     1     -36.382  27.135   1.233  0.00  0.00    +0.031 C 
ATOM      9  C   UNL     1     -34.934  26.694   1.355  0.00  0.00    +0.024 C 
ATOM     10  C   UNL     1     -35.049  25.237   1.770  0.00  0.00    +0.094 C 
ATOM     11  C   UNL     1     -36.491  24.343   3.680  0.00  0.00    +0.253 C 
ATOM     12  C   UNL     1     -35.531  23.170   3.885  0.00  0.00    +0.242 C 
ATOM     13  C   UNL     1     -38.523  26.022   1.923  0.00  0.00    +0.244 C 
ATOM     14  C   UNL     1     -36.142  21.821   3.491  0.00  0.00    +0.045 C 
ATOM     15  C   UNL     1     -36.400  21.755   2.022  0.00  0.00    +0.046 C 
ATOM     16  C   UNL     1     -35.471  21.470   0.982  0.00  0.00    -0.007 C 
ATOM     17  C   UNL     1     -36.127  21.682  -0.239  0.00  0.00    +0.050 C 
ATOM     18  C   UNL     1     -37.606  22.011   1.413  0.00  0.00    +0.103 C 
ATOM     19  C   UNL     1     -39.767  24.382   0.458  0.00  0.00    +0.055 C 
ATOM     20  C   UNL     1     -39.648  23.291  -0.432  0.00  0.00    +0.067 C 
ATOM     21  C   UNL     1     -38.351  22.698  -0.838  0.00  0.00    +0.254 C 
ATOM     22  C   UNL     1     -34.114  21.077   0.976  0.00  0.00    -0.003 C 
ATOM     23  C   UNL     1     -35.460  21.482  -1.462  0.00  0.00    +0.015 C 
ATOM     24  C   UNL     1     -41.059  24.833   0.763  0.00  0.00    +0.015 C 
ATOM     25  C   UNL     1     -33.456  20.877  -0.240  0.00  0.00    -0.000 C 
ATOM     26  C   UNL     1     -34.124  21.072  -1.441  0.00  0.00    +0.001 C 
ATOM     27  C   UNL     1     -40.782  22.705  -1.016  0.00  0.00    +0.006 C 
ATOM     28  C   UNL     1     -42.188  24.238   0.189  0.00  0.00    +0.001 C 
ATOM     29  C   UNL     1     -42.051  23.179  -0.702  0.00  0.00    +0.000 C 
ATOM     30  H   UNL     1     -37.739  24.602   0.710  0.00  0.00    +0.155 HD
ENDROOT
BRANCH  12  33
ATOM     31  O   UNL     1     -34.510  23.993   5.809  0.00  0.00    -0.131 OA
ATOM     32  O   UNL     1     -35.777  22.198   5.984  0.00  0.00    -0.131 OA
ATOM     33  N   UNL     1     -35.245  23.112   5.338  0.00  0.00    +0.041 N 
ENDBRANCH  12  33
TORSDOF 1
ENDMDL
MODEL 8
REMARK VINA RESULT:      -6.3      3.841      8.235
REMARK  Name = 21578956
REMARK  1 active torsions:
REMARK  status: ('A' for Active; 'I' for Inactive)
REMARK    1  A    between atoms: C_12  and  N_33
REMARK                            x       y       z     vdW  Elec       q    Type
REMARK                         _______ _______ _______ _____ _____    ______ ____
ROOT
ATOM      1  O   UNL     1     -29.563  27.374   4.237  0.00  0.00    -0.273 OA
ATOM      2  O   UNL     1     -32.111  27.275   6.889  0.00  0.00    -0.273 OA
ATOM      3  O   UNL     1     -35.932  28.337   2.272  0.00  0.00    -0.270 OA
ATOM      4  N   UNL     1     -30.811  29.312   4.264  0.00  0.00    -0.271 N 
ATOM      5  N   UNL     1     -33.128  27.754   4.832  0.00  0.00    -0.282 N 
ATOM      6  N   UNL     1     -33.774  27.990   1.690  0.00  0.00    -0.255 N 
ATOM      7  C   UNL     1     -31.274  29.129   5.645  0.00  0.00    +0.152 C 
ATOM      8  C   UNL     1     -32.033  30.418   5.982  0.00  0.00    +0.031 C 
ATOM      9  C   UNL     1     -31.443  31.444   5.031  0.00  0.00    +0.024 C 
ATOM     10  C   UNL     1     -31.177  30.637   3.771  0.00  0.00    +0.094 C 
ATOM     11  C   UNL     1     -29.935  28.406   3.668  0.00  0.00    +0.253 C 
ATOM     12  C   UNL     1     -29.479  28.701   2.238  0.00  0.00    +0.242 C 
ATOM     13  C   UNL     1     -32.187  27.916   5.842  0.00  0.00    +0.244 C 
ATOM     14  C   UNL     1     -30.135  27.785   1.200  0.00  0.00    +0.045 C 
ATOM     15  C   UNL     1     -31.604  28.037   1.112  0.00  0.00    +0.046 C 
ATOM     16  C   UNL     1     -32.275  29.074   0.403  0.00  0.00    -0.007 C 
ATOM     17  C   UNL     1     -33.633  29.008   0.745  0.00  0.00    +0.050 C 
ATOM     18  C   UNL     1     -32.576  27.310   1.760  0.00  0.00    +0.103 C 
ATOM     19  C   UNL     1     -34.082  26.709   4.687  0.00  0.00    +0.055 C 
ATOM     20  C   UNL     1     -34.937  26.687   3.562  0.00  0.00    +0.067 C 
ATOM     21  C   UNL     1     -34.904  27.703   2.483  0.00  0.00    +0.254 C 
ATOM     22  C   UNL     1     -31.834  30.084  -0.480  0.00  0.00    -0.003 C 
ATOM     23  C   UNL     1     -34.560  29.916   0.201  0.00  0.00    +0.015 C 
ATOM     24  C   UNL     1     -34.217  25.675   5.625  0.00  0.00    +0.015 C 
ATOM     25  C   UNL     1     -32.758  30.981  -1.022  0.00  0.00    -0.000 C 
ATOM     26  C   UNL     1     -34.103  30.893  -0.688  0.00  0.00    +0.001 C 
ATOM     27  C   UNL     1     -35.908  25.685   3.410  0.00  0.00    +0.006 C 
ATOM     28  C   UNL     1     -35.178  24.670   5.463  0.00  0.00    +0.001 C 
ATOM     29  C   UNL     1     -36.025  24.677   4.360  0.00  0.00    +0.000 C 
ATOM     30  H   UNL     1     -33.134  28.445   4.131  0.00  0.00    +0.155 HD
ENDROOT
BRANCH  12  33
ATOM     31  O   UNL     1     -27.643  27.440   1.561  0.00  0.00    -0.131 OA
ATOM     32  O   UNL     1     -27.284  29.229   2.796  0.00  0.00    -0.131 OA
ATOM     33  N   UNL     1     -28.022  28.432   2.201  0.00  0.00    +0.041 N 
ENDBRANCH  12  33
TORSDOF 1
ENDMDL
MODEL 9
REMARK VINA RESULT:      -6.3      2.937      4.325
REMARK  Name = 21578956
REMARK  1 active torsions:
REMARK  status: ('A' for Active; 'I' for Inactive)
REMARK    1  A    between atoms: C_12  and  N_33
REMARK                            x       y       z     vdW  Elec       q    Type
REMARK                         _______ _______ _______ _____ _____    ______ ____
ROOT
ATOM      1  O   UNL     1     -38.510  23.783   1.190  0.00  0.00    -0.273 OA
ATOM      2  O   UNL     1     -36.499  26.752   2.015  0.00  0.00    -0.273 OA
ATOM      3  O   UNL     1     -31.932  23.397  -0.205  0.00  0.00    -0.270 OA
ATOM      4  N   UNL     1     -36.760  23.240   2.589  0.00  0.00    -0.271 N 
ATOM      5  N   UNL     1     -35.111  25.070   1.157  0.00  0.00    -0.282 N 
ATOM      6  N   UNL     1     -33.993  22.485  -0.399  0.00  0.00    -0.255 N 
ATOM      7  C   UNL     1     -36.569  24.615   3.069  0.00  0.00    +0.152 C 
ATOM      8  C   UNL     1     -35.517  24.504   4.179  0.00  0.00    +0.031 C 
ATOM      9  C   UNL     1     -35.638  23.065   4.649  0.00  0.00    +0.024 C 
ATOM     10  C   UNL     1     -35.954  22.307   3.371  0.00  0.00    +0.094 C 
ATOM     11  C   UNL     1     -37.773  22.924   1.686  0.00  0.00    +0.253 C 
ATOM     12  C   UNL     1     -37.918  21.458   1.273  0.00  0.00    +0.242 C 
ATOM     13  C   UNL     1     -36.092  25.592   1.991  0.00  0.00    +0.244 C 
ATOM     14  C   UNL     1     -37.425  21.186  -0.152  0.00  0.00    +0.045 C 
ATOM     15  C   UNL     1     -35.950  21.392  -0.259  0.00  0.00    +0.046 C 
ATOM     16  C   UNL     1     -34.911  20.492   0.113  0.00  0.00    -0.007 C 
ATOM     17  C   UNL     1     -33.694  21.177  -0.014  0.00  0.00    +0.050 C 
ATOM     18  C   UNL     1     -35.336  22.538  -0.708  0.00  0.00    +0.103 C 
ATOM     19  C   UNL     1     -34.498  25.691   0.033  0.00  0.00    +0.055 C 
ATOM     20  C   UNL     1     -33.540  24.984  -0.727  0.00  0.00    +0.067 C 
ATOM     21  C   UNL     1     -33.121  23.593  -0.435  0.00  0.00    +0.254 C 
ATOM     22  C   UNL     1     -34.905  19.158   0.579  0.00  0.00    -0.003 C 
ATOM     23  C   UNL     1     -32.473  20.546   0.288  0.00  0.00    +0.015 C 
ATOM     24  C   UNL     1     -34.807  27.000  -0.366  0.00  0.00    +0.015 C 
ATOM     25  C   UNL     1     -33.692  18.533   0.875  0.00  0.00    -0.000 C 
ATOM     26  C   UNL     1     -32.493  19.218   0.726  0.00  0.00    +0.001 C 
ATOM     27  C   UNL     1     -32.898  25.584  -1.822  0.00  0.00    +0.006 C 
ATOM     28  C   UNL     1     -34.174  27.590  -1.466  0.00  0.00    +0.001 C 
ATOM     29  C   UNL     1     -33.218  26.886  -2.190  0.00  0.00    +0.000 C 
ATOM     30  H   UNL     1     -34.803  24.159   1.368  0.00  0.00    +0.155 HD
ENDROOT
BRANCH  12  33
ATOM     31  O   UNL     1     -39.994  21.453   2.327  0.00  0.00    -0.131 OA
ATOM     32  O   UNL     1     -39.860  20.653   0.279  0.00  0.00    -0.131 OA
ATOM     33  N   UNL     1     -39.370  21.159   1.298  0.00  0.00    +0.041 N 
ENDBRANCH  12  33
TORSDOF 1
ENDMDL
