MODEL 1
REMARK VINA RESULT:      -6.2      0.000      0.000
REMARK  Name = 19003
REMARK  5 active torsions:
REMARK  status: ('A' for Active; 'I' for Inactive)
REMARK    1  A    between atoms: N_2  and  CA_9
REMARK    2  A    between atoms: C_3  and  C_19
REMARK    3  A    between atoms: CA_10  and  C_16
REMARK    4  A    between atoms: C_16  and  O_17
REMARK    5  A    between atoms: C_19  and  N_25
REMARK                            x       y       z     vdW  Elec       q    Type
REMARK                         _______ _______ _______ _____ _____    ______ ____
ROOT
ATOM      1  O   UNL     1     -37.332  23.250   3.698  0.00  0.00    -0.277 OA
ATOM      2  N   UNL     1     -35.868  22.938   1.922  0.00  0.00    -0.298 N 
ATOM      3  C   UNL     1     -36.479  23.684   2.925  0.00  0.00    +0.204 C 
ATOM      4  H   UNL     1     -35.195  23.376   1.353  0.00  0.00    +0.150 HD
ENDROOT
BRANCH   2   9
ATOM      5  S   UNL     1     -34.247  21.802  -0.425  0.00  0.00    -0.118 S 
ATOM      6  O   UNL     1     -35.065  20.377   3.663  0.00  0.00    -0.273 OA
ATOM      7  N   UNL     1     -34.815  19.995   1.348  0.00  0.00    -0.260 N 
ATOM      8  C   UNL     1     -35.563  20.864   0.436  0.00  0.00    +0.151 C 
ATOM      9  CA  UNL     1     -36.183  21.524   1.675  0.00  0.00    +0.178 C 
ATOM     10  CA  UNL     1     -33.410  19.749   1.092  0.00  0.00    +0.184 C 
ATOM     11  C   UNL     1     -33.077  20.359  -0.287  0.00  0.00    +0.068 C 
ATOM     12  C   UNL     1     -35.322  20.538   2.492  0.00  0.00    +0.247 C 
ATOM     13  C   UNL     1     -33.338  19.424  -1.476  0.00  0.00    +0.013 C 
ATOM     14  C   UNL     1     -31.639  20.878  -0.335  0.00  0.00    +0.013 C 
BRANCH  10  16
ATOM     15  OXT UNL     1     -32.159  17.747   1.595  0.00  0.00    -0.248 OA
ATOM     16  C   UNL     1     -33.191  18.275   1.208  0.00  0.00    +0.333 C 
BRANCH  16  17
ATOM     17  O   UNL     1     -34.298  17.594   0.821  0.00  0.00    -0.479 OA
ATOM     18  H   UNL     1     -35.136  17.825   1.170  0.00  0.00    +0.295 HD
ENDBRANCH  16  17
ENDBRANCH  10  16
ENDBRANCH   2   9
BRANCH   3  19
ATOM     19  C   UNL     1     -36.015  25.118   2.990  0.00  0.00    +0.022 C 
ATOM     20  C   UNL     1     -36.643  25.832   4.196  0.00  0.00    -0.012 C 
ATOM     21  C   UNL     1     -34.481  25.185   3.028  0.00  0.00    -0.012 C 
ATOM     22  C   UNL     1     -36.055  25.359   5.527  0.00  0.00    -0.002 C 
ATOM     23  C   UNL     1     -33.908  24.717   4.367  0.00  0.00    -0.002 C 
ATOM     24  C   UNL     1     -34.533  25.464   5.540  0.00  0.00    -0.000 C 
BRANCH  19  25
ATOM     25  N   UNL     1     -36.497  25.736   1.754  0.00  0.00    +0.388 N 
ATOM     26  H   UNL     1     -36.093  26.668   1.658  0.00  0.00    -0.088 HD
ATOM     27  H   UNL     1     -37.514  25.808   1.784  0.00  0.00    -0.088 HD
ATOM     28  H   UNL     1     -36.221  25.163   0.956  0.00  0.00    -0.088 HD
ENDBRANCH  19  25
ENDBRANCH   3  19
TORSDOF 5
ENDMDL
MODEL 2
REMARK VINA RESULT:      -5.8      3.642      5.391
REMARK  Name = 19003
REMARK  5 active torsions:
REMARK  status: ('A' for Active; 'I' for Inactive)
REMARK    1  A    between atoms: N_2  and  CA_9
REMARK    2  A    between atoms: C_3  and  C_19
REMARK    3  A    between atoms: CA_10  and  C_16
REMARK    4  A    between atoms: C_16  and  O_17
REMARK    5  A    between atoms: C_19  and  N_25
REMARK                            x       y       z     vdW  Elec       q    Type
REMARK                         _______ _______ _______ _____ _____    ______ ____
ROOT
ATOM      1  O   UNL     1     -33.370  28.144   4.507  0.00  0.00    -0.277 OA
ATOM      2  N   UNL     1     -34.991  27.125   3.193  0.00  0.00    -0.298 N 
ATOM      3  C   UNL     1     -33.949  28.016   3.429  0.00  0.00    +0.204 C 
ATOM      4  H   UNL     1     -35.391  27.095   2.293  0.00  0.00    +0.150 HD
ENDROOT
BRANCH   2   9
ATOM      5  S   UNL     1     -36.961  25.081   2.023  0.00  0.00    -0.118 S 
ATOM      6  O   UNL     1     -33.502  24.747   4.731  0.00  0.00    -0.273 OA
ATOM      7  N   UNL     1     -35.696  24.159   4.091  0.00  0.00    -0.260 N 
ATOM      8  C   UNL     1     -36.634  25.250   3.816  0.00  0.00    +0.151 C 
ATOM      9  CA  UNL     1     -35.522  26.225   4.226  0.00  0.00    +0.178 C 
ATOM     10  CA  UNL     1     -35.601  23.060   3.153  0.00  0.00    +0.184 C 
ATOM     11  C   UNL     1     -36.733  23.235   2.118  0.00  0.00    +0.068 C 
ATOM     12  C   UNL     1     -34.662  24.967   4.464  0.00  0.00    +0.247 C 
ATOM     13  C   UNL     1     -38.074  22.613   2.531  0.00  0.00    +0.013 C 
ATOM     14  C   UNL     1     -36.316  22.714   0.742  0.00  0.00    +0.013 C 
BRANCH  10  16
ATOM     15  OXT UNL     1     -35.343  20.688   3.528  0.00  0.00    -0.248 OA
ATOM     16  C   UNL     1     -35.652  21.794   3.948  0.00  0.00    +0.333 C 
BRANCH  16  17
ATOM     17  O   UNL     1     -36.093  22.037   5.206  0.00  0.00    -0.479 OA
ATOM     18  H   UNL     1     -36.316  21.323   5.771  0.00  0.00    +0.295 HD
ENDBRANCH  16  17
ENDBRANCH  10  16
ENDBRANCH   2   9
BRANCH   3  19
ATOM     19  C   UNL     1     -33.575  28.852   2.231  0.00  0.00    +0.022 C 
ATOM     20  C   UNL     1     -34.836  29.357   1.514  0.00  0.00    -0.012 C 
ATOM     21  C   UNL     1     -32.659  30.012   2.650  0.00  0.00    -0.012 C 
ATOM     22  C   UNL     1     -35.566  30.442   2.309  0.00  0.00    -0.002 C 
ATOM     23  C   UNL     1     -33.404  31.092   3.437  0.00  0.00    -0.002 C 
ATOM     24  C   UNL     1     -34.634  31.589   2.685  0.00  0.00    -0.000 C 
BRANCH  19  25
ATOM     25  N   UNL     1     -32.840  27.949   1.344  0.00  0.00    +0.388 N 
ATOM     26  H   UNL     1     -32.808  27.017   1.757  0.00  0.00    -0.088 HD
ATOM     27  H   UNL     1     -31.890  28.297   1.216  0.00  0.00    -0.088 HD
ATOM     28  H   UNL     1     -33.310  27.904   0.439  0.00  0.00    -0.088 HD
ENDBRANCH  19  25
ENDBRANCH   3  19
TORSDOF 5
ENDMDL
MODEL 3
REMARK VINA RESULT:      -5.6      2.055      6.881
REMARK  Name = 19003
REMARK  5 active torsions:
REMARK  status: ('A' for Active; 'I' for Inactive)
REMARK    1  A    between atoms: N_2  and  CA_9
REMARK    2  A    between atoms: C_3  and  C_19
REMARK    3  A    between atoms: CA_10  and  C_16
REMARK    4  A    between atoms: C_16  and  O_17
REMARK    5  A    between atoms: C_19  and  N_25
REMARK                            x       y       z     vdW  Elec       q    Type
REMARK                         _______ _______ _______ _____ _____    ______ ____
ROOT
ATOM      1  O   UNL     1     -34.622  19.886   2.703  0.00  0.00    -0.277 OA
ATOM      2  N   UNL     1     -35.967  21.248   1.386  0.00  0.00    -0.298 N 
ATOM      3  C   UNL     1     -34.869  20.426   1.626  0.00  0.00    +0.204 C 
ATOM      4  H   UNL     1     -36.079  21.634   0.488  0.00  0.00    +0.150 HD
ENDROOT
BRANCH   2   9
ATOM      5  S   UNL     1     -35.249  23.805   2.927  0.00  0.00    -0.118 S 
ATOM      6  O   UNL     1     -38.943  22.359   1.009  0.00  0.00    -0.273 OA
ATOM      7  N   UNL     1     -37.811  23.426   2.784  0.00  0.00    -0.260 N 
ATOM      8  C   UNL     1     -36.662  22.728   3.368  0.00  0.00    +0.151 C 
ATOM      9  CA  UNL     1     -36.967  21.564   2.416  0.00  0.00    +0.178 C 
ATOM     10  CA  UNL     1     -37.685  24.829   2.446  0.00  0.00    +0.184 C 
ATOM     11  C   UNL     1     -36.331  25.319   3.003  0.00  0.00    +0.068 C 
ATOM     12  C   UNL     1     -38.136  22.432   1.908  0.00  0.00    +0.247 C 
ATOM     13  C   UNL     1     -36.377  25.795   4.461  0.00  0.00    +0.013 C 
ATOM     14  C   UNL     1     -35.725  26.408   2.115  0.00  0.00    +0.013 C 
BRANCH  10  16
ATOM     15  OXT UNL     1     -39.284  26.627   2.640  0.00  0.00    -0.248 OA
ATOM     16  C   UNL     1     -38.891  25.525   2.992  0.00  0.00    +0.333 C 
BRANCH  16  17
ATOM     17  O   UNL     1     -39.492  24.767   3.941  0.00  0.00    -0.479 OA
ATOM     18  H   UNL     1     -39.119  24.707   4.799  0.00  0.00    +0.295 HD
ENDBRANCH  16  17
ENDBRANCH  10  16
ENDBRANCH   2   9
BRANCH   3  19
ATOM     19  C   UNL     1     -33.965  20.250   0.432  0.00  0.00    +0.022 C 
ATOM     20  C   UNL     1     -32.649  19.576   0.848  0.00  0.00    -0.012 C 
ATOM     21  C   UNL     1     -34.682  19.458  -0.673  0.00  0.00    -0.012 C 
ATOM     22  C   UNL     1     -32.834  18.096   1.194  0.00  0.00    -0.002 C 
ATOM     23  C   UNL     1     -34.852  17.980  -0.316  0.00  0.00    -0.002 C 
ATOM     24  C   UNL     1     -33.524  17.336   0.066  0.00  0.00    -0.000 C 
BRANCH  19  25
ATOM     25  N   UNL     1     -33.687  21.605  -0.046  0.00  0.00    +0.388 N 
ATOM     26  H   UNL     1     -34.188  22.280   0.533  0.00  0.00    -0.088 HD
ATOM     27  H   UNL     1     -33.994  21.694  -1.014  0.00  0.00    -0.088 HD
ATOM     28  H   UNL     1     -32.684  21.787   0.011  0.00  0.00    -0.088 HD
ENDBRANCH  19  25
ENDBRANCH   3  19
TORSDOF 5
ENDMDL
MODEL 4
REMARK VINA RESULT:      -5.6      5.329      8.620
REMARK  Name = 19003
REMARK  5 active torsions:
REMARK  status: ('A' for Active; 'I' for Inactive)
REMARK    1  A    between atoms: N_2  and  CA_9
REMARK    2  A    between atoms: C_3  and  C_19
REMARK    3  A    between atoms: CA_10  and  C_16
REMARK    4  A    between atoms: C_16  and  O_17
REMARK    5  A    between atoms: C_19  and  N_25
REMARK                            x       y       z     vdW  Elec       q    Type
REMARK                         _______ _______ _______ _____ _____    ______ ____
ROOT
ATOM      1  O   UNL     1     -33.502  25.319   4.455  0.00  0.00    -0.277 OA
ATOM      2  N   UNL     1     -34.743  26.980   3.408  0.00  0.00    -0.298 N 
ATOM      3  C   UNL     1     -34.583  25.849   4.203  0.00  0.00    +0.204 C 
ATOM      4  H   UNL     1     -35.652  27.330   3.265  0.00  0.00    +0.150 HD
ENDROOT
BRANCH   2   9
ATOM      5  S   UNL     1     -35.693  29.055   1.354  0.00  0.00    -0.118 S 
ATOM      6  O   UNL     1     -32.785  29.178   4.662  0.00  0.00    -0.273 OA
ATOM      7  N   UNL     1     -33.445  29.722   2.462  0.00  0.00    -0.260 N 
ATOM      8  C   UNL     1     -33.932  28.631   1.614  0.00  0.00    +0.151 C 
ATOM      9  CA  UNL     1     -33.615  27.675   2.772  0.00  0.00    +0.178 C 
ATOM     10  CA  UNL     1     -34.200  30.957   2.522  0.00  0.00    +0.184 C 
ATOM     11  C   UNL     1     -35.308  30.875   1.450  0.00  0.00    +0.068 C 
ATOM     12  C   UNL     1     -33.144  28.931   3.533  0.00  0.00    +0.247 C 
ATOM     13  C   UNL     1     -34.878  31.342   0.053  0.00  0.00    +0.013 C 
ATOM     14  C   UNL     1     -36.565  31.627   1.890  0.00  0.00    +0.013 C 
BRANCH  10  16
ATOM     15  OXT UNL     1     -33.482  33.262   2.518  0.00  0.00    -0.248 OA
ATOM     16  C   UNL     1     -33.226  32.079   2.349  0.00  0.00    +0.333 C 
BRANCH  16  17
ATOM     17  O   UNL     1     -32.012  31.606   1.975  0.00  0.00    -0.479 OA
ATOM     18  H   UNL     1     -31.949  30.968   1.291  0.00  0.00    +0.295 HD
ENDBRANCH  16  17
ENDBRANCH  10  16
ENDBRANCH   2   9
BRANCH   3  19
ATOM     19  C   UNL     1     -35.877  25.292   4.742  0.00  0.00    +0.022 C 
ATOM     20  C   UNL     1     -36.794  24.854   3.590  0.00  0.00    -0.012 C 
ATOM     21  C   UNL     1     -35.600  24.136   5.716  0.00  0.00    -0.012 C 
ATOM     22  C   UNL     1     -36.292  23.587   2.892  0.00  0.00    -0.002 C 
ATOM     23  C   UNL     1     -35.107  22.875   5.003  0.00  0.00    -0.002 C 
ATOM     24  C   UNL     1     -36.053  22.454   3.884  0.00  0.00    -0.000 C 
BRANCH  19  25
ATOM     25  N   UNL     1     -36.502  26.399   5.467  0.00  0.00    +0.388 N 
ATOM     26  H   UNL     1     -37.148  26.028   6.164  0.00  0.00    -0.088 HD
ATOM     27  H   UNL     1     -37.012  26.989   4.811  0.00  0.00    -0.088 HD
ATOM     28  H   UNL     1     -35.781  26.951   5.931  0.00  0.00    -0.088 HD
ENDBRANCH  19  25
ENDBRANCH   3  19
TORSDOF 5
ENDMDL
MODEL 5
REMARK VINA RESULT:      -5.3      2.318      3.266
REMARK  Name = 19003
REMARK  5 active torsions:
REMARK  status: ('A' for Active; 'I' for Inactive)
REMARK    1  A    between atoms: N_2  and  CA_9
REMARK    2  A    between atoms: C_3  and  C_19
REMARK    3  A    between atoms: CA_10  and  C_16
REMARK    4  A    between atoms: C_16  and  O_17
REMARK    5  A    between atoms: C_19  and  N_25
REMARK                            x       y       z     vdW  Elec       q    Type
REMARK                         _______ _______ _______ _____ _____    ______ ____
ROOT
ATOM      1  O   UNL     1     -36.109  22.740   5.146  0.00  0.00    -0.277 OA
ATOM      2  N   UNL     1     -36.053  22.947   2.833  0.00  0.00    -0.298 N 
ATOM      3  C   UNL     1     -36.205  23.427   4.131  0.00  0.00    +0.204 C 
ATOM      4  H   UNL     1     -36.148  23.577   2.083  0.00  0.00    +0.150 HD
ENDROOT
BRANCH   2   9
ATOM      5  S   UNL     1     -38.275  21.642   1.163  0.00  0.00    -0.118 S 
ATOM      6  O   UNL     1     -33.884  21.748   0.810  0.00  0.00    -0.273 OA
ATOM      7  N   UNL     1     -35.945  20.605   0.688  0.00  0.00    -0.260 N 
ATOM      8  C   UNL     1     -36.847  20.716   1.837  0.00  0.00    +0.151 C 
ATOM      9  CA  UNL     1     -35.756  21.539   2.533  0.00  0.00    +0.178 C 
ATOM     10  CA  UNL     1     -36.477  20.798  -0.645  0.00  0.00    +0.184 C 
ATOM     11  C   UNL     1     -38.013  20.892  -0.522  0.00  0.00    +0.068 C 
ATOM     12  C   UNL     1     -34.934  21.332   1.245  0.00  0.00    +0.247 C 
ATOM     13  C   UNL     1     -38.739  19.540  -0.555  0.00  0.00    +0.013 C 
ATOM     14  C   UNL     1     -38.602  21.828  -1.580  0.00  0.00    +0.013 C 
BRANCH  10  16
ATOM     15  OXT UNL     1     -35.576  18.598  -1.065  0.00  0.00    -0.248 OA
ATOM     16  C   UNL     1     -35.972  19.673  -1.491  0.00  0.00    +0.333 C 
BRANCH  16  17
ATOM     17  O   UNL     1     -36.008  20.007  -2.804  0.00  0.00    -0.479 OA
ATOM     18  H   UNL     1     -35.252  19.876  -3.342  0.00  0.00    +0.295 HD
ENDBRANCH  16  17
ENDBRANCH  10  16
ENDBRANCH   2   9
BRANCH   3  19
ATOM     19  C   UNL     1     -36.520  24.900   4.204  0.00  0.00    +0.022 C 
ATOM     20  C   UNL     1     -36.042  25.487   5.540  0.00  0.00    -0.012 C 
ATOM     21  C   UNL     1     -35.905  25.642   3.007  0.00  0.00    -0.012 C 
ATOM     22  C   UNL     1     -34.517  25.593   5.620  0.00  0.00    -0.002 C 
ATOM     23  C   UNL     1     -34.381  25.747   3.105  0.00  0.00    -0.002 C 
ATOM     24  C   UNL     1     -33.942  26.357   4.431  0.00  0.00    -0.000 C 
BRANCH  19  25
ATOM     25  N   UNL     1     -37.980  24.987   4.130  0.00  0.00    +0.388 N 
ATOM     26  H   UNL     1     -38.288  25.879   4.518  0.00  0.00    -0.088 HD
ATOM     27  H   UNL     1     -38.393  24.223   4.663  0.00  0.00    -0.088 HD
ATOM     28  H   UNL     1     -38.275  24.920   3.156  0.00  0.00    -0.088 HD
ENDBRANCH  19  25
ENDBRANCH   3  19
TORSDOF 5
ENDMDL
MODEL 6
REMARK VINA RESULT:      -5.3      5.009      7.799
REMARK  Name = 19003
REMARK  5 active torsions:
REMARK  status: ('A' for Active; 'I' for Inactive)
REMARK    1  A    between atoms: N_2  and  CA_9
REMARK    2  A    between atoms: C_3  and  C_19
REMARK    3  A    between atoms: CA_10  and  C_16
REMARK    4  A    between atoms: C_16  and  O_17
REMARK    5  A    between atoms: C_19  and  N_25
REMARK                            x       y       z     vdW  Elec       q    Type
REMARK                         _______ _______ _______ _____ _____    ______ ____
ROOT
ATOM      1  O   UNL     1     -30.729  27.735   4.064  0.00  0.00    -0.277 OA
ATOM      2  N   UNL     1     -32.819  28.748   4.096  0.00  0.00    -0.298 N 
ATOM      3  C   UNL     1     -31.555  28.467   4.607  0.00  0.00    +0.204 C 
ATOM      4  H   UNL     1     -33.410  29.348   4.606  0.00  0.00    +0.150 HD
ENDROOT
BRANCH   2   9
ATOM      5  S   UNL     1     -33.891  25.893   4.447  0.00  0.00    -0.118 S 
ATOM      6  O   UNL     1     -35.471  29.502   2.473  0.00  0.00    -0.273 OA
ATOM      7  N   UNL     1     -35.097  27.172   2.539  0.00  0.00    -0.260 N 
ATOM      8  C   UNL     1     -33.734  26.715   2.819  0.00  0.00    +0.151 C 
ATOM      9  CA  UNL     1     -33.310  28.190   2.828  0.00  0.00    +0.178 C 
ATOM     10  CA  UNL     1     -36.202  26.569   3.257  0.00  0.00    +0.184 C 
ATOM     11  C   UNL     1     -35.638  25.376   4.058  0.00  0.00    +0.068 C 
ATOM     12  C   UNL     1     -34.792  28.502   2.538  0.00  0.00    +0.247 C 
ATOM     13  C   UNL     1     -35.578  24.056   3.277  0.00  0.00    +0.013 C 
ATOM     14  C   UNL     1     -36.400  25.175   5.369  0.00  0.00    +0.013 C 
BRANCH  10  16
ATOM     15  OXT UNL     1     -37.028  25.758   1.139  0.00  0.00    -0.248 OA
ATOM     16  C   UNL     1     -37.249  26.223   2.247  0.00  0.00    +0.333 C 
BRANCH  16  17
ATOM     17  O   UNL     1     -38.486  26.499   2.726  0.00  0.00    -0.479 OA
ATOM     18  H   UNL     1     -39.213  26.562   2.138  0.00  0.00    +0.295 HD
ENDBRANCH  16  17
ENDBRANCH  10  16
ENDBRANCH   2   9
BRANCH   3  19
ATOM     19  C   UNL     1     -31.266  29.136   5.927  0.00  0.00    +0.022 C 
ATOM     20  C   UNL     1     -29.786  28.970   6.302  0.00  0.00    -0.012 C 
ATOM     21  C   UNL     1     -31.676  30.616   5.880  0.00  0.00    -0.012 C 
ATOM     22  C   UNL     1     -28.863  29.822   5.426  0.00  0.00    -0.002 C 
ATOM     23  C   UNL     1     -30.740  31.455   5.009  0.00  0.00    -0.002 C 
ATOM     24  C   UNL     1     -29.282  31.288   5.424  0.00  0.00    -0.000 C 
BRANCH  19  25
ATOM     25  N   UNL     1     -32.097  28.433   6.906  0.00  0.00    +0.388 N 
ATOM     26  H   UNL     1     -32.181  28.999   7.751  0.00  0.00    -0.088 HD
ATOM     27  H   UNL     1     -31.665  27.539   7.138  0.00  0.00    -0.088 HD
ATOM     28  H   UNL     1     -33.024  28.271   6.512  0.00  0.00    -0.088 HD
ENDBRANCH  19  25
ENDBRANCH   3  19
TORSDOF 5
ENDMDL
MODEL 7
REMARK VINA RESULT:      -5.3      3.673      5.728
REMARK  Name = 19003
REMARK  5 active torsions:
REMARK  status: ('A' for Active; 'I' for Inactive)
REMARK    1  A    between atoms: N_2  and  CA_9
REMARK    2  A    between atoms: C_3  and  C_19
REMARK    3  A    between atoms: CA_10  and  C_16
REMARK    4  A    between atoms: C_16  and  O_17
REMARK    5  A    between atoms: C_19  and  N_25
REMARK                            x       y       z     vdW  Elec       q    Type
REMARK                         _______ _______ _______ _____ _____    ______ ____
ROOT
ATOM      1  O   UNL     1     -32.508  27.549   5.679  0.00  0.00    -0.277 OA
ATOM      2  N   UNL     1     -34.358  27.308   4.296  0.00  0.00    -0.298 N 
ATOM      3  C   UNL     1     -33.141  27.867   4.674  0.00  0.00    +0.204 C 
ATOM      4  H   UNL     1     -34.789  27.630   3.471  0.00  0.00    +0.150 HD
ENDROOT
BRANCH   2   9
ATOM      5  S   UNL     1     -36.695  26.058   2.745  0.00  0.00    -0.118 S 
ATOM      6  O   UNL     1     -33.313  24.369   5.008  0.00  0.00    -0.273 OA
ATOM      7  N   UNL     1     -35.589  24.380   4.384  0.00  0.00    -0.260 N 
ATOM      8  C   UNL     1     -36.311  25.650   4.488  0.00  0.00    +0.151 C 
ATOM      9  CA  UNL     1     -35.030  26.257   5.074  0.00  0.00    +0.178 C 
ATOM     10  CA  UNL     1     -35.717  23.594   3.173  0.00  0.00    +0.184 C 
ATOM     11  C   UNL     1     -36.814  24.252   2.309  0.00  0.00    +0.068 C 
ATOM     12  C   UNL     1     -34.416  24.854   4.893  0.00  0.00    +0.247 C 
ATOM     13  C   UNL     1     -38.240  23.782   2.625  0.00  0.00    +0.013 C 
ATOM     14  C   UNL     1     -36.525  24.081   0.816  0.00  0.00    +0.013 C 
BRANCH  10  16
ATOM     15  OXT UNL     1     -35.934  21.212   2.849  0.00  0.00    -0.248 OA
ATOM     16  C   UNL     1     -35.989  22.184   3.588  0.00  0.00    +0.333 C 
BRANCH  16  17
ATOM     17  O   UNL     1     -36.313  22.125   4.903  0.00  0.00    -0.479 OA
ATOM     18  H   UNL     1     -35.639  22.164   5.553  0.00  0.00    +0.295 HD
ENDBRANCH  16  17
ENDBRANCH  10  16
ENDBRANCH   2   9
BRANCH   3  19
ATOM     19  C   UNL     1     -32.643  28.938   3.736  0.00  0.00    +0.022 C 
ATOM     20  C   UNL     1     -31.133  29.154   3.920  0.00  0.00    -0.012 C 
ATOM     21  C   UNL     1     -32.991  28.585   2.282  0.00  0.00    -0.012 C 
ATOM     22  C   UNL     1     -30.305  27.990   3.371  0.00  0.00    -0.002 C 
ATOM     23  C   UNL     1     -32.150  27.426   1.744  0.00  0.00    -0.002 C 
ATOM     24  C   UNL     1     -30.657  27.683   1.919  0.00  0.00    -0.000 C 
BRANCH  19  25
ATOM     25  N   UNL     1     -33.358  30.155   4.125  0.00  0.00    +0.388 N 
ATOM     26  H   UNL     1     -34.349  29.944   4.245  0.00  0.00    -0.088 HD
ATOM     27  H   UNL     1     -33.246  30.861   3.398  0.00  0.00    -0.088 HD
ATOM     28  H   UNL     1     -32.977  30.507   5.003  0.00  0.00    -0.088 HD
ENDBRANCH  19  25
ENDBRANCH   3  19
TORSDOF 5
ENDMDL
MODEL 8
REMARK VINA RESULT:      -5.2      3.405      7.652
REMARK  Name = 19003
REMARK  5 active torsions:
REMARK  status: ('A' for Active; 'I' for Inactive)
REMARK    1  A    between atoms: N_2  and  CA_9
REMARK    2  A    between atoms: C_3  and  C_19
REMARK    3  A    between atoms: CA_10  and  C_16
REMARK    4  A    between atoms: C_16  and  O_17
REMARK    5  A    between atoms: C_19  and  N_25
REMARK                            x       y       z     vdW  Elec       q    Type
REMARK                         _______ _______ _______ _____ _____    ______ ____
ROOT
ATOM      1  O   UNL     1     -34.950  17.696  -1.678  0.00  0.00    -0.277 OA
ATOM      2  N   UNL     1     -35.879  18.335   0.353  0.00  0.00    -0.298 N 
ATOM      3  C   UNL     1     -35.647  17.449  -0.695  0.00  0.00    +0.204 C 
ATOM      4  H   UNL     1     -36.453  18.043   1.098  0.00  0.00    +0.150 HD
ENDROOT
BRANCH   2   9
ATOM      5  S   UNL     1     -38.021  20.499  -0.037  0.00  0.00    -0.118 S 
ATOM      6  O   UNL     1     -34.764  19.951   2.879  0.00  0.00    -0.273 OA
ATOM      7  N   UNL     1     -36.057  21.313   1.449  0.00  0.00    -0.260 N 
ATOM      8  C   UNL     1     -36.230  20.863   0.065  0.00  0.00    +0.151 C 
ATOM      9  CA  UNL     1     -35.304  19.687   0.398  0.00  0.00    +0.178 C 
ATOM     10  CA  UNL     1     -37.216  21.758   2.195  0.00  0.00    +0.184 C 
ATOM     11  C   UNL     1     -38.401  21.832   1.208  0.00  0.00    +0.068 C 
ATOM     12  C   UNL     1     -35.231  20.290   1.815  0.00  0.00    +0.247 C 
ATOM     13  C   UNL     1     -38.520  23.163   0.454  0.00  0.00    +0.013 C 
ATOM     14  C   UNL     1     -39.725  21.502   1.901  0.00  0.00    +0.013 C 
BRANCH  10  16
ATOM     15  OXT UNL     1     -37.479  23.584   3.753  0.00  0.00    -0.248 OA
ATOM     16  C   UNL     1     -36.849  23.051   2.850  0.00  0.00    +0.333 C 
BRANCH  16  17
ATOM     17  O   UNL     1     -35.718  23.561   2.305  0.00  0.00    -0.479 OA
ATOM     18  H   UNL     1     -34.882  23.327   2.656  0.00  0.00    +0.295 HD
ENDBRANCH  16  17
ENDBRANCH  10  16
ENDBRANCH   2   9
BRANCH   3  19
ATOM     19  C   UNL     1     -36.347  16.122  -0.541  0.00  0.00    +0.022 C 
ATOM     20  C   UNL     1     -37.768  16.325   0.006  0.00  0.00    -0.012 C 
ATOM     21  C   UNL     1     -36.358  15.361  -1.875  0.00  0.00    -0.012 C 
ATOM     22  C   UNL     1     -38.711  16.943  -1.030  0.00  0.00    -0.002 C 
ATOM     23  C   UNL     1     -37.310  15.985  -2.897  0.00  0.00    -0.002 C 
ATOM     24  C   UNL     1     -38.716  16.148  -2.332  0.00  0.00    -0.000 C 
BRANCH  19  25
ATOM     25  N   UNL     1     -35.553  15.377   0.437  0.00  0.00    +0.388 N 
ATOM     26  H   UNL     1     -36.162  14.756   0.969  0.00  0.00    -0.088 HD
ATOM     27  H   UNL     1     -35.096  16.031   1.072  0.00  0.00    -0.088 HD
ATOM     28  H   UNL     1     -34.845  14.825  -0.049  0.00  0.00    -0.088 HD
ENDBRANCH  19  25
ENDBRANCH   3  19
TORSDOF 5
ENDMDL
MODEL 9
REMARK VINA RESULT:      -5.1      5.128      8.428
REMARK  Name = 19003
REMARK  5 active torsions:
REMARK  status: ('A' for Active; 'I' for Inactive)
REMARK    1  A    between atoms: N_2  and  CA_9
REMARK    2  A    between atoms: C_3  and  C_19
REMARK    3  A    between atoms: CA_10  and  C_16
REMARK    4  A    between atoms: C_16  and  O_17
REMARK    5  A    between atoms: C_19  and  N_25
REMARK                            x       y       z     vdW  Elec       q    Type
REMARK                         _______ _______ _______ _____ _____    ______ ____
ROOT
ATOM      1  O   UNL     1     -33.954  25.798   3.674  0.00  0.00    -0.277 OA
ATOM      2  N   UNL     1     -35.424  27.593   3.571  0.00  0.00    -0.298 N 
ATOM      3  C   UNL     1     -35.035  26.313   3.954  0.00  0.00    +0.204 C 
ATOM      4  H   UNL     1     -36.313  27.917   3.845  0.00  0.00    +0.150 HD
ENDROOT
BRANCH   2   9
ATOM      5  S   UNL     1     -36.330  27.736   0.641  0.00  0.00    -0.118 S 
ATOM      6  O   UNL     1     -35.258  30.788   3.633  0.00  0.00    -0.273 OA
ATOM      7  N   UNL     1     -35.203  29.934   1.433  0.00  0.00    -0.260 N 
ATOM      8  C   UNL     1     -34.805  28.535   1.262  0.00  0.00    +0.151 C 
ATOM      9  CA  UNL     1     -34.566  28.484   2.777  0.00  0.00    +0.178 C 
ATOM     10  CA  UNL     1     -36.381  30.419   0.744  0.00  0.00    +0.184 C 
ATOM     11  C   UNL     1     -36.846  29.305  -0.219  0.00  0.00    +0.068 C 
ATOM     12  C   UNL     1     -35.017  29.959   2.784  0.00  0.00    +0.247 C 
ATOM     13  C   UNL     1     -36.171  29.333  -1.597  0.00  0.00    +0.013 C 
ATOM     14  C   UNL     1     -38.367  29.307  -0.381  0.00  0.00    +0.013 C 
BRANCH  10  16
ATOM     15  OXT UNL     1     -36.806  32.525  -0.359  0.00  0.00    -0.248 OA
ATOM     16  C   UNL     1     -36.011  31.713   0.092  0.00  0.00    +0.333 C 
BRANCH  16  17
ATOM     17  O   UNL     1     -34.665  31.867   0.065  0.00  0.00    -0.479 OA
ATOM     18  H   UNL     1     -34.211  32.158   0.832  0.00  0.00    +0.295 HD
ENDBRANCH  16  17
ENDBRANCH  10  16
ENDBRANCH   2   9
BRANCH   3  19
ATOM     19  C   UNL     1     -36.078  25.570   4.752  0.00  0.00    +0.022 C 
ATOM     20  C   UNL     1     -37.215  25.092   3.837  0.00  0.00    -0.012 C 
ATOM     21  C   UNL     1     -35.437  24.401   5.516  0.00  0.00    -0.012 C 
ATOM     22  C   UNL     1     -36.788  23.941   2.924  0.00  0.00    -0.002 C 
ATOM     23  C   UNL     1     -35.023  23.255   4.592  0.00  0.00    -0.002 C 
ATOM     24  C   UNL     1     -36.181  22.788   3.717  0.00  0.00    -0.000 C 
BRANCH  19  25
ATOM     25  N   UNL     1     -36.601  26.547   5.708  0.00  0.00    +0.388 N 
ATOM     26  H   UNL     1     -37.308  27.124   5.253  0.00  0.00    -0.088 HD
ATOM     27  H   UNL     1     -35.839  27.139   6.039  0.00  0.00    -0.088 HD
ATOM     28  H   UNL     1     -37.019  26.058   6.499  0.00  0.00    -0.088 HD
ENDBRANCH  19  25
ENDBRANCH   3  19
TORSDOF 5
ENDMDL
