MODEL 1
REMARK VINA RESULT:      -6.0      0.000      0.000
REMARK  Name = 56843076
REMARK  6 active torsions:
REMARK  status: ('A' for Active; 'I' for Inactive)
REMARK    1  A    between atoms: N_1  and  C_11
REMARK    2  A    between atoms: C_7  and  C_26
REMARK    3  A    between atoms: C_12  and  O_15
REMARK    4  A    between atoms: C_13  and  O_17
REMARK    5  A    between atoms: C_14  and  C_19
REMARK    6  A    between atoms: C_19  and  O_20
REMARK                            x       y       z     vdW  Elec       q    Type
REMARK                         _______ _______ _______ _____ _____    ______ ____
ROOT
ATOM      1  N   UNL     1     -37.803  23.966   2.737  0.00  0.00    -0.264 N 
ATOM      2  N   UNL     1     -38.860  26.134   2.793  0.00  0.00    -0.233 NA
ATOM      3  N   UNL     1     -41.072  26.139   1.778  0.00  0.00    -0.234 NA
ATOM      4  C   UNL     1     -38.837  24.826   2.477  0.00  0.00    +0.121 C 
ATOM      5  C   UNL     1     -38.124  22.715   2.276  0.00  0.00    +0.074 C 
ATOM      6  C   UNL     1     -39.841  24.110   1.836  0.00  0.00    +0.141 C 
ATOM      7  C   UNL     1     -39.381  22.774   1.714  0.00  0.00    +0.075 C 
ATOM      8  C   UNL     1     -40.989  24.820   1.487  0.00  0.00    +0.111 C 
ATOM      9  C   UNL     1     -40.017  26.705   2.404  0.00  0.00    +0.252 C 
ATOM     10  N   UNL     1     -42.064  24.188   0.836  0.00  0.00    -0.346 N 
ATOM     11  H   UNL     1     -42.867  24.705   0.596  0.00  0.00    +0.143 HD
ATOM     12  H   UNL     1     -42.014  23.228   0.619  0.00  0.00    +0.143 HD
ENDROOT
BRANCH   1  14
ATOM     13  S   UNL     1     -35.342  22.916   3.498  0.00  0.00    -0.114 S 
ATOM     14  C   UNL     1     -36.503  24.329   3.420  0.00  0.00    +0.156 C 
ATOM     15  C   UNL     1     -36.656  24.797   4.872  0.00  0.00    +0.167 C 
ATOM     16  C   UNL     1     -35.300  24.600   5.558  0.00  0.00    +0.152 C 
ATOM     17  C   UNL     1     -34.829  23.181   5.236  0.00  0.00    +0.108 C 
BRANCH  15  18
ATOM     18  O   UNL     1     -37.030  26.170   4.900  0.00  0.00    -0.379 OA
ATOM     19  H   UNL     1     -36.322  26.690   5.311  0.00  0.00    +0.211 HD
ENDBRANCH  15  18
BRANCH  16  20
ATOM     20  O   UNL     1     -34.342  25.545   5.077  0.00  0.00    -0.381 OA
ATOM     21  H   UNL     1     -34.717  26.033   4.327  0.00  0.00    +0.210 HD
ENDBRANCH  16  20
BRANCH  17  22
ATOM     22  C   UNL     1     -35.471  22.122   6.124  0.00  0.00    +0.150 C 
BRANCH  22  23
ATOM     23  O   UNL     1     -35.204  20.845   5.571  0.00  0.00    -0.381 OA
ATOM     24  H   UNL     1     -35.208  20.906   4.602  0.00  0.00    +0.210 HD
ENDBRANCH  22  23
ENDBRANCH  17  22
ENDBRANCH   1  14
BRANCH   7  26
ATOM     25  N   UNL     1     -40.593  20.752   0.651  0.00  0.00    -0.191 NA
ATOM     26  C   UNL     1     -40.048  21.660   1.128  0.00  0.00    +0.098 C 
ENDBRANCH   7  26
TORSDOF 6
ENDMDL
MODEL 2
REMARK VINA RESULT:      -5.7      3.418      5.919
REMARK  Name = 56843076
REMARK  6 active torsions:
REMARK  status: ('A' for Active; 'I' for Inactive)
REMARK    1  A    between atoms: N_1  and  C_11
REMARK    2  A    between atoms: C_7  and  C_26
REMARK    3  A    between atoms: C_12  and  O_15
REMARK    4  A    between atoms: C_13  and  O_17
REMARK    5  A    between atoms: C_14  and  C_19
REMARK    6  A    between atoms: C_19  and  O_20
REMARK                            x       y       z     vdW  Elec       q    Type
REMARK                         _______ _______ _______ _____ _____    ______ ____
ROOT
ATOM      1  N   UNL     1     -36.397  22.766   1.835  0.00  0.00    -0.264 N 
ATOM      2  N   UNL     1     -35.641  22.218   4.058  0.00  0.00    -0.233 NA
ATOM      3  N   UNL     1     -35.899  24.059   5.630  0.00  0.00    -0.234 NA
ATOM      4  C   UNL     1     -36.170  23.061   3.152  0.00  0.00    +0.121 C 
ATOM      5  C   UNL     1     -36.943  23.858   1.210  0.00  0.00    +0.074 C 
ATOM      6  C   UNL     1     -36.578  24.370   3.377  0.00  0.00    +0.141 C 
ATOM      7  C   UNL     1     -37.067  24.867   2.142  0.00  0.00    +0.075 C 
ATOM      8  C   UNL     1     -36.426  24.859   4.673  0.00  0.00    +0.111 C 
ATOM      9  C   UNL     1     -35.545  22.806   5.268  0.00  0.00    +0.252 C 
ATOM     10  N   UNL     1     -36.809  26.171   5.005  0.00  0.00    -0.346 N 
ATOM     11  H   UNL     1     -36.694  26.500   5.926  0.00  0.00    +0.143 HD
ATOM     12  H   UNL     1     -37.193  26.761   4.317  0.00  0.00    +0.143 HD
ENDROOT
BRANCH   1  14
ATOM     13  S   UNL     1     -36.171  21.565  -0.665  0.00  0.00    -0.114 S 
ATOM     14  C   UNL     1     -36.094  21.447   1.160  0.00  0.00    +0.156 C 
ATOM     15  C   UNL     1     -37.055  20.308   1.523  0.00  0.00    +0.167 C 
ATOM     16  C   UNL     1     -36.967  19.264   0.406  0.00  0.00    +0.152 C 
ATOM     17  C   UNL     1     -37.097  20.007  -0.924  0.00  0.00    +0.108 C 
BRANCH  15  18
ATOM     18  O   UNL     1     -36.677  19.735   2.769  0.00  0.00    -0.379 OA
ATOM     19  H   UNL     1     -36.924  20.336   3.490  0.00  0.00    +0.211 HD
ENDBRANCH  15  18
BRANCH  16  20
ATOM     20  O   UNL     1     -35.716  18.574   0.451  0.00  0.00    -0.381 OA
ATOM     21  H   UNL     1     -35.836  17.714   0.884  0.00  0.00    +0.210 HD
ENDBRANCH  16  20
BRANCH  17  22
ATOM     22  C   UNL     1     -38.541  20.326  -1.291  0.00  0.00    +0.150 C 
BRANCH  22  23
ATOM     23  O   UNL     1     -39.376  19.305  -0.776  0.00  0.00    -0.381 OA
ATOM     24  H   UNL     1     -39.185  18.470  -1.232  0.00  0.00    +0.210 HD
ENDBRANCH  22  23
ENDBRANCH  17  22
ENDBRANCH   1  14
BRANCH   7  26
ATOM     25  N   UNL     1     -38.031  27.209   1.622  0.00  0.00    -0.191 NA
ATOM     26  C   UNL     1     -37.598  26.158   1.856  0.00  0.00    +0.098 C 
ENDBRANCH   7  26
TORSDOF 6
ENDMDL
MODEL 3
REMARK VINA RESULT:      -5.6      3.370      5.766
REMARK  Name = 56843076
REMARK  6 active torsions:
REMARK  status: ('A' for Active; 'I' for Inactive)
REMARK    1  A    between atoms: N_1  and  C_11
REMARK    2  A    between atoms: C_7  and  C_26
REMARK    3  A    between atoms: C_12  and  O_15
REMARK    4  A    between atoms: C_13  and  O_17
REMARK    5  A    between atoms: C_14  and  C_19
REMARK    6  A    between atoms: C_19  and  O_20
REMARK                            x       y       z     vdW  Elec       q    Type
REMARK                         _______ _______ _______ _____ _____    ______ ____
ROOT
ATOM      1  N   UNL     1     -36.796  22.582   2.475  0.00  0.00    -0.264 N 
ATOM      2  N   UNL     1     -35.683  22.343   4.601  0.00  0.00    -0.233 NA
ATOM      3  N   UNL     1     -35.583  24.423   5.860  0.00  0.00    -0.234 NA
ATOM      4  C   UNL     1     -36.328  23.066   3.667  0.00  0.00    +0.121 C 
ATOM      5  C   UNL     1     -37.398  23.597   1.776  0.00  0.00    +0.074 C 
ATOM      6  C   UNL     1     -36.635  24.419   3.733  0.00  0.00    +0.141 C 
ATOM      7  C   UNL     1     -37.313  24.747   2.531  0.00  0.00    +0.075 C 
ATOM      8  C   UNL     1     -36.236  25.096   4.885  0.00  0.00    +0.111 C 
ATOM      9  C   UNL     1     -35.351  23.107   5.661  0.00  0.00    +0.252 C 
ATOM     10  N   UNL     1     -36.500  26.468   5.050  0.00  0.00    -0.346 N 
ATOM     11  H   UNL     1     -36.209  26.930   5.870  0.00  0.00    +0.143 HD
ATOM     12  H   UNL     1     -36.974  26.967   4.346  0.00  0.00    +0.143 HD
ENDROOT
BRANCH   1  14
ATOM     13  S   UNL     1     -34.984  20.764   1.401  0.00  0.00    -0.114 S 
ATOM     14  C   UNL     1     -36.672  21.155   1.991  0.00  0.00    +0.156 C 
ATOM     15  C   UNL     1     -37.594  20.797   0.818  0.00  0.00    +0.167 C 
ATOM     16  C   UNL     1     -36.990  19.573   0.122  0.00  0.00    +0.152 C 
ATOM     17  C   UNL     1     -35.507  19.864  -0.106  0.00  0.00    +0.108 C 
BRANCH  15  18
ATOM     18  O   UNL     1     -38.899  20.499   1.303  0.00  0.00    -0.379 OA
ATOM     19  H   UNL     1     -38.829  20.013   2.139  0.00  0.00    +0.211 HD
ENDBRANCH  15  18
BRANCH  16  20
ATOM     20  O   UNL     1     -37.132  18.404   0.932  0.00  0.00    -0.381 OA
ATOM     21  H   UNL     1     -36.713  18.554   1.794  0.00  0.00    +0.210 HD
ENDBRANCH  16  20
BRANCH  17  22
ATOM     22  C   UNL     1     -35.249  20.731  -1.332  0.00  0.00    +0.150 C 
BRANCH  22  23
ATOM     23  O   UNL     1     -34.771  21.993  -0.902  0.00  0.00    -0.381 OA
ATOM     24  H   UNL     1     -34.931  22.092   0.050  0.00  0.00    +0.210 HD
ENDBRANCH  22  23
ENDBRANCH  17  22
ENDBRANCH   1  14
BRANCH   7  26
ATOM     25  N   UNL     1     -38.253  27.040   1.793  0.00  0.00    -0.191 NA
ATOM     26  C   UNL     1     -37.831  26.011   2.125  0.00  0.00    +0.098 C 
ENDBRANCH   7  26
TORSDOF 6
ENDMDL
MODEL 4
REMARK VINA RESULT:      -5.6      2.660      4.304
REMARK  Name = 56843076
REMARK  6 active torsions:
REMARK  status: ('A' for Active; 'I' for Inactive)
REMARK    1  A    between atoms: N_1  and  C_11
REMARK    2  A    between atoms: C_7  and  C_26
REMARK    3  A    between atoms: C_12  and  O_15
REMARK    4  A    between atoms: C_13  and  O_17
REMARK    5  A    between atoms: C_14  and  C_19
REMARK    6  A    between atoms: C_19  and  O_20
REMARK                            x       y       z     vdW  Elec       q    Type
REMARK                         _______ _______ _______ _____ _____    ______ ____
ROOT
ATOM      1  N   UNL     1     -36.479  22.918   2.801  0.00  0.00    -0.264 N 
ATOM      2  N   UNL     1     -38.755  22.800   2.014  0.00  0.00    -0.233 NA
ATOM      3  N   UNL     1     -39.207  20.793   0.713  0.00  0.00    -0.234 NA
ATOM      4  C   UNL     1     -37.506  22.313   2.128  0.00  0.00    +0.121 C 
ATOM      5  C   UNL     1     -35.352  22.141   2.709  0.00  0.00    +0.074 C 
ATOM      6  C   UNL     1     -37.028  21.123   1.592  0.00  0.00    +0.141 C 
ATOM      7  C   UNL     1     -35.663  21.022   1.965  0.00  0.00    +0.075 C 
ATOM      8  C   UNL     1     -37.935  20.357   0.863  0.00  0.00    +0.111 C 
ATOM      9  C   UNL     1     -39.533  21.971   1.289  0.00  0.00    +0.252 C 
ATOM     10  N   UNL     1     -37.551  19.135   0.280  0.00  0.00    -0.346 N 
ATOM     11  H   UNL     1     -38.206  18.607  -0.232  0.00  0.00    +0.143 HD
ATOM     12  H   UNL     1     -36.628  18.808   0.383  0.00  0.00    +0.143 HD
ENDROOT
BRANCH   1  14
ATOM     13  S   UNL     1     -36.256  25.666   2.429  0.00  0.00    -0.114 S 
ATOM     14  C   UNL     1     -36.559  24.239   3.534  0.00  0.00    +0.156 C 
ATOM     15  C   UNL     1     -35.545  24.398   4.674  0.00  0.00    +0.167 C 
ATOM     16  C   UNL     1     -35.383  25.900   4.931  0.00  0.00    +0.152 C 
ATOM     17  C   UNL     1     -35.155  26.572   3.577  0.00  0.00    +0.108 C 
BRANCH  15  18
ATOM     18  O   UNL     1     -36.025  23.744   5.842  0.00  0.00    -0.379 OA
ATOM     19  H   UNL     1     -36.156  24.396   6.548  0.00  0.00    +0.211 HD
ENDBRANCH  15  18
BRANCH  16  20
ATOM     20  O   UNL     1     -36.555  26.442   5.545  0.00  0.00    -0.381 OA
ATOM     21  H   UNL     1     -36.652  27.373   5.292  0.00  0.00    +0.210 HD
ENDBRANCH  16  20
BRANCH  17  22
ATOM     22  C   UNL     1     -33.714  26.466   3.092  0.00  0.00    +0.150 C 
BRANCH  22  23
ATOM     23  O   UNL     1     -32.850  26.622   4.204  0.00  0.00    -0.381 OA
ATOM     24  H   UNL     1     -32.946  27.518   4.565  0.00  0.00    +0.210 HD
ENDBRANCH  22  23
ENDBRANCH  17  22
ENDBRANCH   1  14
BRANCH   7  26
ATOM     25  N   UNL     1     -33.982  19.138   1.408  0.00  0.00    -0.191 NA
ATOM     26  C   UNL     1     -34.737  19.984   1.658  0.00  0.00    +0.098 C 
ENDBRANCH   7  26
TORSDOF 6
ENDMDL
MODEL 5
REMARK VINA RESULT:      -5.5      1.131      2.756
REMARK  Name = 56843076
REMARK  6 active torsions:
REMARK  status: ('A' for Active; 'I' for Inactive)
REMARK    1  A    between atoms: N_1  and  C_11
REMARK    2  A    between atoms: C_7  and  C_26
REMARK    3  A    between atoms: C_12  and  O_15
REMARK    4  A    between atoms: C_13  and  O_17
REMARK    5  A    between atoms: C_14  and  C_19
REMARK    6  A    between atoms: C_19  and  O_20
REMARK                            x       y       z     vdW  Elec       q    Type
REMARK                         _______ _______ _______ _____ _____    ______ ____
ROOT
ATOM      1  N   UNL     1     -37.489  25.132   2.761  0.00  0.00    -0.264 N 
ATOM      2  N   UNL     1     -37.910  22.758   2.706  0.00  0.00    -0.233 NA
ATOM      3  N   UNL     1     -40.029  22.193   1.650  0.00  0.00    -0.234 NA
ATOM      4  C   UNL     1     -38.245  24.035   2.446  0.00  0.00    +0.121 C 
ATOM      5  C   UNL     1     -38.139  26.267   2.348  0.00  0.00    +0.074 C 
ATOM      6  C   UNL     1     -39.403  24.476   1.818  0.00  0.00    +0.141 C 
ATOM      7  C   UNL     1     -39.328  25.891   1.761  0.00  0.00    +0.075 C 
ATOM      8  C   UNL     1     -40.310  23.496   1.417  0.00  0.00    +0.111 C 
ATOM      9  C   UNL     1     -38.863  21.909   2.271  0.00  0.00    +0.252 C 
ATOM     10  N   UNL     1     -41.513  23.838   0.772  0.00  0.00    -0.346 N 
ATOM     11  H   UNL     1     -42.141  23.132   0.496  0.00  0.00    +0.143 HD
ATOM     12  H   UNL     1     -41.726  24.783   0.597  0.00  0.00    +0.143 HD
ENDROOT
BRANCH   1  14
ATOM     13  S   UNL     1     -35.203  23.583   3.101  0.00  0.00    -0.114 S 
ATOM     14  C   UNL     1     -36.148  25.109   3.459  0.00  0.00    +0.156 C 
ATOM     15  C   UNL     1     -36.224  25.179   4.989  0.00  0.00    +0.167 C 
ATOM     16  C   UNL     1     -34.908  24.615   5.536  0.00  0.00    +0.152 C 
ATOM     17  C   UNL     1     -34.650  23.288   4.822  0.00  0.00    +0.108 C 
BRANCH  15  18
ATOM     18  O   UNL     1     -36.395  26.529   5.404  0.00  0.00    -0.379 OA
ATOM     19  H   UNL     1     -37.308  26.807   5.230  0.00  0.00    +0.211 HD
ENDBRANCH  15  18
BRANCH  16  20
ATOM     20  O   UNL     1     -33.825  25.514   5.287  0.00  0.00    -0.381 OA
ATOM     21  H   UNL     1     -33.002  25.010   5.192  0.00  0.00    +0.210 HD
ENDBRANCH  16  20
BRANCH  17  22
ATOM     22  C   UNL     1     -35.435  22.125   5.417  0.00  0.00    +0.150 C 
BRANCH  22  23
ATOM     23  O   UNL     1     -35.715  21.194   4.387  0.00  0.00    -0.381 OA
ATOM     24  H   UNL     1     -35.453  20.305   4.676  0.00  0.00    +0.210 HD
ENDBRANCH  22  23
ENDBRANCH  17  22
ENDBRANCH   1  14
BRANCH   7  26
ATOM     25  N   UNL     1     -41.042  27.551   0.764  0.00  0.00    -0.191 NA
ATOM     26  C   UNL     1     -40.272  26.806   1.212  0.00  0.00    +0.098 C 
ENDBRANCH   7  26
TORSDOF 6
ENDMDL
MODEL 6
REMARK VINA RESULT:      -5.4      2.833      3.916
REMARK  Name = 56843076
REMARK  6 active torsions:
REMARK  status: ('A' for Active; 'I' for Inactive)
REMARK    1  A    between atoms: N_1  and  C_11
REMARK    2  A    between atoms: C_7  and  C_26
REMARK    3  A    between atoms: C_12  and  O_15
REMARK    4  A    between atoms: C_13  and  O_17
REMARK    5  A    between atoms: C_14  and  C_19
REMARK    6  A    between atoms: C_19  and  O_20
REMARK                            x       y       z     vdW  Elec       q    Type
REMARK                         _______ _______ _______ _____ _____    ______ ____
ROOT
ATOM      1  N   UNL     1     -36.429  24.810   2.539  0.00  0.00    -0.264 N 
ATOM      2  N   UNL     1     -38.789  25.203   2.233  0.00  0.00    -0.233 NA
ATOM      3  N   UNL     1     -40.081  23.147   2.068  0.00  0.00    -0.234 NA
ATOM      4  C   UNL     1     -37.723  24.394   2.372  0.00  0.00    +0.121 C 
ATOM      5  C   UNL     1     -35.609  23.716   2.647  0.00  0.00    +0.074 C 
ATOM      6  C   UNL     1     -37.732  23.005   2.372  0.00  0.00    +0.141 C 
ATOM      7  C   UNL     1     -36.389  22.584   2.547  0.00  0.00    +0.075 C 
ATOM      8  C   UNL     1     -38.971  22.387   2.213  0.00  0.00    +0.111 C 
ATOM      9  C   UNL     1     -39.923  24.489   2.088  0.00  0.00    +0.252 C 
ATOM     10  N   UNL     1     -39.088  20.985   2.200  0.00  0.00    -0.346 N 
ATOM     11  H   UNL     1     -39.972  20.566   2.086  0.00  0.00    +0.143 HD
ATOM     12  H   UNL     1     -38.287  20.423   2.304  0.00  0.00    +0.143 HD
ENDROOT
BRANCH   1  14
ATOM     13  S   UNL     1     -34.908  26.692   1.167  0.00  0.00    -0.114 S 
ATOM     14  C   UNL     1     -35.964  26.248   2.594  0.00  0.00    +0.156 C 
ATOM     15  C   UNL     1     -35.127  26.601   3.830  0.00  0.00    +0.167 C 
ATOM     16  C   UNL     1     -34.312  27.851   3.486  0.00  0.00    +0.152 C 
ATOM     17  C   UNL     1     -33.647  27.603   2.132  0.00  0.00    +0.108 C 
BRANCH  15  18
ATOM     18  O   UNL     1     -35.984  26.856   4.937  0.00  0.00    -0.379 OA
ATOM     19  H   UNL     1     -35.480  27.294   5.641  0.00  0.00    +0.211 HD
ENDBRANCH  15  18
BRANCH  16  20
ATOM     20  O   UNL     1     -35.155  29.003   3.404  0.00  0.00    -0.381 OA
ATOM     21  H   UNL     1     -34.902  29.535   2.633  0.00  0.00    +0.210 HD
ENDBRANCH  16  20
BRANCH  17  22
ATOM     22  C   UNL     1     -32.379  26.764   2.234  0.00  0.00    +0.150 C 
BRANCH  22  23
ATOM     23  O   UNL     1     -31.711  27.097   3.438  0.00  0.00    -0.381 OA
ATOM     24  H   UNL     1     -32.361  27.183   4.154  0.00  0.00    +0.210 HD
ENDBRANCH  22  23
ENDBRANCH  17  22
ENDBRANCH   1  14
BRANCH   7  26
ATOM     25  N   UNL     1     -35.465  20.172   2.667  0.00  0.00    -0.191 NA
ATOM     26  C   UNL     1     -35.880  21.255   2.613  0.00  0.00    +0.098 C 
ENDBRANCH   7  26
TORSDOF 6
ENDMDL
MODEL 7
REMARK VINA RESULT:      -5.3      2.347      4.209
REMARK  Name = 56843076
REMARK  6 active torsions:
REMARK  status: ('A' for Active; 'I' for Inactive)
REMARK    1  A    between atoms: N_1  and  C_11
REMARK    2  A    between atoms: C_7  and  C_26
REMARK    3  A    between atoms: C_12  and  O_15
REMARK    4  A    between atoms: C_13  and  O_17
REMARK    5  A    between atoms: C_14  and  C_19
REMARK    6  A    between atoms: C_19  and  O_20
REMARK                            x       y       z     vdW  Elec       q    Type
REMARK                         _______ _______ _______ _____ _____    ______ ____
ROOT
ATOM      1  N   UNL     1     -37.613  23.309   2.806  0.00  0.00    -0.264 N 
ATOM      2  N   UNL     1     -35.510  22.132   2.874  0.00  0.00    -0.233 NA
ATOM      3  N   UNL     1     -35.570  20.010   1.681  0.00  0.00    -0.234 NA
ATOM      4  C   UNL     1     -36.797  22.253   2.501  0.00  0.00    +0.121 C 
ATOM      5  C   UNL     1     -38.856  23.097   2.265  0.00  0.00    +0.074 C 
ATOM      6  C   UNL     1     -37.532  21.345   1.749  0.00  0.00    +0.141 C 
ATOM      7  C   UNL     1     -38.834  21.887   1.604  0.00  0.00    +0.075 C 
ATOM      8  C   UNL     1     -36.866  20.191   1.338  0.00  0.00    +0.111 C 
ATOM      9  C   UNL     1     -34.981  20.979   2.417  0.00  0.00    +0.252 C 
ATOM     10  N   UNL     1     -37.521  19.209   0.572  0.00  0.00    -0.346 N 
ATOM     11  H   UNL     1     -37.035  18.399   0.290  0.00  0.00    +0.143 HD
ATOM     12  H   UNL     1     -38.464  19.330   0.316  0.00  0.00    +0.143 HD
ENDROOT
BRANCH   1  14
ATOM     13  S   UNL     1     -36.857  25.975   2.562  0.00  0.00    -0.114 S 
ATOM     14  C   UNL     1     -37.220  24.524   3.616  0.00  0.00    +0.156 C 
ATOM     15  C   UNL     1     -35.966  24.337   4.479  0.00  0.00    +0.167 C 
ATOM     16  C   UNL     1     -35.410  25.733   4.781  0.00  0.00    +0.152 C 
ATOM     17  C   UNL     1     -35.346  26.494   3.457  0.00  0.00    +0.108 C 
BRANCH  15  18
ATOM     18  O   UNL     1     -36.305  23.666   5.687  0.00  0.00    -0.379 OA
ATOM     19  H   UNL     1     -35.555  23.706   6.300  0.00  0.00    +0.211 HD
ENDBRANCH  15  18
BRANCH  16  20
ATOM     20  O   UNL     1     -36.255  26.431   5.698  0.00  0.00    -0.381 OA
ATOM     21  H   UNL     1     -37.166  26.108   5.609  0.00  0.00    +0.210 HD
ENDBRANCH  16  20
BRANCH  17  22
ATOM     22  C   UNL     1     -34.117  26.148   2.626  0.00  0.00    +0.150 C 
BRANCH  22  23
ATOM     23  O   UNL     1     -33.009  26.001   3.497  0.00  0.00    -0.381 OA
ATOM     24  H   UNL     1     -32.512  26.834   3.532  0.00  0.00    +0.210 HD
ENDBRANCH  22  23
ENDBRANCH  17  22
ENDBRANCH   1  14
BRANCH   7  26
ATOM     25  N   UNL     1     -40.863  20.880   0.357  0.00  0.00    -0.191 NA
ATOM     26  C   UNL     1     -39.952  21.332   0.917  0.00  0.00    +0.098 C 
ENDBRANCH   7  26
TORSDOF 6
ENDMDL
MODEL 8
REMARK VINA RESULT:      -5.3      2.917      4.668
REMARK  Name = 56843076
REMARK  6 active torsions:
REMARK  status: ('A' for Active; 'I' for Inactive)
REMARK    1  A    between atoms: N_1  and  C_11
REMARK    2  A    between atoms: C_7  and  C_26
REMARK    3  A    between atoms: C_12  and  O_15
REMARK    4  A    between atoms: C_13  and  O_17
REMARK    5  A    between atoms: C_14  and  C_19
REMARK    6  A    between atoms: C_19  and  O_20
REMARK                            x       y       z     vdW  Elec       q    Type
REMARK                         _______ _______ _______ _____ _____    ______ ____
ROOT
ATOM      1  N   UNL     1     -35.902  22.436   2.469  0.00  0.00    -0.264 N 
ATOM      2  N   UNL     1     -34.363  20.833   1.534  0.00  0.00    -0.233 NA
ATOM      3  N   UNL     1     -35.479  19.023   0.350  0.00  0.00    -0.234 NA
ATOM      4  C   UNL     1     -35.603  21.298   1.770  0.00  0.00    +0.121 C 
ATOM      5  C   UNL     1     -37.263  22.601   2.511  0.00  0.00    +0.074 C 
ATOM      6  C   UNL     1     -36.797  20.721   1.355  0.00  0.00    +0.141 C 
ATOM      7  C   UNL     1     -37.843  21.553   1.828  0.00  0.00    +0.075 C 
ATOM      8  C   UNL     1     -36.699  19.541   0.619  0.00  0.00    +0.111 C 
ATOM      9  C   UNL     1     -34.402  19.692   0.817  0.00  0.00    +0.252 C 
ATOM     10  N   UNL     1     -37.849  18.879   0.152  0.00  0.00    -0.346 N 
ATOM     11  H   UNL     1     -37.761  18.046  -0.366  0.00  0.00    +0.143 HD
ATOM     12  H   UNL     1     -38.742  19.247   0.342  0.00  0.00    +0.143 HD
ENDROOT
BRANCH   1  14
ATOM     13  S   UNL     1     -34.865  23.220   4.929  0.00  0.00    -0.114 S 
ATOM     14  C   UNL     1     -34.899  23.372   3.105  0.00  0.00    +0.156 C 
ATOM     15  C   UNL     1     -35.155  24.860   2.837  0.00  0.00    +0.167 C 
ATOM     16  C   UNL     1     -34.438  25.651   3.936  0.00  0.00    +0.152 C 
ATOM     17  C   UNL     1     -34.817  25.018   5.275  0.00  0.00    +0.108 C 
BRANCH  15  18
ATOM     18  O   UNL     1     -34.645  25.215   1.557  0.00  0.00    -0.379 OA
ATOM     19  H   UNL     1     -34.813  24.494   0.931  0.00  0.00    +0.211 HD
ENDBRANCH  15  18
BRANCH  16  20
ATOM     20  O   UNL     1     -33.020  25.594   3.762  0.00  0.00    -0.381 OA
ATOM     21  H   UNL     1     -32.601  26.299   4.281  0.00  0.00    +0.210 HD
ENDBRANCH  16  20
BRANCH  17  22
ATOM     22  C   UNL     1     -36.177  25.474   5.788  0.00  0.00    +0.150 C 
BRANCH  22  23
ATOM     23  O   UNL     1     -36.470  26.742   5.226  0.00  0.00    -0.381 OA
ATOM     24  H   UNL     1     -35.784  27.377   5.485  0.00  0.00    +0.210 HD
ENDBRANCH  22  23
ENDBRANCH  17  22
ENDBRANCH   1  14
BRANCH   7  26
ATOM     25  N   UNL     1     -40.394  21.254   1.526  0.00  0.00    -0.191 NA
ATOM     26  C   UNL     1     -39.249  21.388   1.662  0.00  0.00    +0.098 C 
ENDBRANCH   7  26
TORSDOF 6
ENDMDL
MODEL 9
REMARK VINA RESULT:      -5.3      4.084      6.143
REMARK  Name = 56843076
REMARK  6 active torsions:
REMARK  status: ('A' for Active; 'I' for Inactive)
REMARK    1  A    between atoms: N_1  and  C_11
REMARK    2  A    between atoms: C_7  and  C_26
REMARK    3  A    between atoms: C_12  and  O_15
REMARK    4  A    between atoms: C_13  and  O_17
REMARK    5  A    between atoms: C_14  and  C_19
REMARK    6  A    between atoms: C_19  and  O_20
REMARK                            x       y       z     vdW  Elec       q    Type
REMARK                         _______ _______ _______ _____ _____    ______ ____
ROOT
ATOM      1  N   UNL     1     -34.854  23.707   2.410  0.00  0.00    -0.264 N 
ATOM      2  N   UNL     1     -35.637  24.264   4.622  0.00  0.00    -0.233 NA
ATOM      3  N   UNL     1     -35.118  26.554   5.264  0.00  0.00    -0.234 NA
ATOM      4  C   UNL     1     -35.020  24.564   3.464  0.00  0.00    +0.121 C 
ATOM      5  C   UNL     1     -34.183  24.348   1.401  0.00  0.00    +0.074 C 
ATOM      6  C   UNL     1     -34.442  25.781   3.124  0.00  0.00    +0.141 C 
ATOM      7  C   UNL     1     -33.915  25.636   1.816  0.00  0.00    +0.075 C 
ATOM      8  C   UNL     1     -34.510  26.794   4.079  0.00  0.00    +0.111 C 
ATOM      9  C   UNL     1     -35.636  25.322   5.459  0.00  0.00    +0.252 C 
ATOM     10  N   UNL     1     -33.956  28.064   3.832  0.00  0.00    -0.346 N 
ATOM     11  H   UNL     1     -34.013  28.768   4.519  0.00  0.00    +0.143 HD
ATOM     12  H   UNL     1     -33.512  28.249   2.974  0.00  0.00    +0.143 HD
ENDROOT
BRANCH   1  14
ATOM     13  S   UNL     1     -34.508  21.318   1.027  0.00  0.00    -0.114 S 
ATOM     14  C   UNL     1     -35.329  22.272   2.355  0.00  0.00    +0.156 C 
ATOM     15  C   UNL     1     -36.830  22.106   2.091  0.00  0.00    +0.167 C 
ATOM     16  C   UNL     1     -37.042  20.693   1.539  0.00  0.00    +0.152 C 
ATOM     17  C   UNL     1     -36.020  20.482   0.422  0.00  0.00    +0.108 C 
BRANCH  15  18
ATOM     18  O   UNL     1     -37.556  22.279   3.303  0.00  0.00    -0.379 OA
ATOM     19  H   UNL     1     -36.990  22.046   4.055  0.00  0.00    +0.211 HD
ENDBRANCH  15  18
BRANCH  16  20
ATOM     20  O   UNL     1     -36.847  19.712   2.561  0.00  0.00    -0.381 OA
ATOM     21  H   UNL     1     -36.844  20.144   3.429  0.00  0.00    +0.210 HD
ENDBRANCH  16  20
BRANCH  17  22
ATOM     22  C   UNL     1     -36.449  21.100  -0.904  0.00  0.00    +0.150 C 
BRANCH  22  23
ATOM     23  O   UNL     1     -35.538  22.133  -1.237  0.00  0.00    -0.381 OA
ATOM     24  H   UNL     1     -34.976  21.844  -1.973  0.00  0.00    +0.210 HD
ENDBRANCH  22  23
ENDBRANCH  17  22
ENDBRANCH   1  14
BRANCH   7  26
ATOM     25  N   UNL     1     -32.666  27.391   0.385  0.00  0.00    -0.191 NA
ATOM     26  C   UNL     1     -33.227  26.602   1.027  0.00  0.00    +0.098 C 
ENDBRANCH   7  26
TORSDOF 6
ENDMDL
