MODEL 1
REMARK VINA RESULT:      -5.5      0.000      0.000
REMARK  Name = 57352300
REMARK  12 active torsions:
REMARK  status: ('A' for Active; 'I' for Inactive)
REMARK    1  A    between atoms: N_1  and  N_5
REMARK    2  A    between atoms: C_2  and  C_16
REMARK    3  A    between atoms: N_4  and  C_7
REMARK    4  A    between atoms: N_4  and  C_11
REMARK    5  A    between atoms: C_11  and  C_12
REMARK    6  A    between atoms: C_12  and  C_13
REMARK    7  A    between atoms: N_15  and  C_16
REMARK    8  A    between atoms: N_15  and  N_18
REMARK    9  A    between atoms: N_17  and  C_20
REMARK   10  A    between atoms: N_17  and  C_24
REMARK   11  A    between atoms: C_24  and  C_25
REMARK   12  A    between atoms: C_25  and  C_26
REMARK                            x       y       z     vdW  Elec       q    Type
REMARK                         _______ _______ _______ _____ _____    ______ ____
ROOT
ATOM      1  N   UNL     1     -35.988  26.416   4.964  0.00  0.00    -0.178 NA
ATOM      2  C   UNL     1     -34.714  26.384   4.732  0.00  0.00    +0.076 C 
ATOM      3  C   UNL     1     -34.027  26.406   3.397  0.00  0.00    +0.051 C 
ENDROOT
BRANCH   1   4
ATOM      4  N   UNL     1     -36.807  26.472   3.891  0.00  0.00    -0.247 N 
ATOM      5  N   UNL     1     -38.302  25.735   2.334  0.00  0.00    -0.369 N 
ATOM      6  C   UNL     1     -37.559  25.397   3.445  0.00  0.00    +0.212 C 
ATOM      7  H   UNL     1     -36.872  27.323   3.398  0.00  0.00    +0.192 HD
ATOM      8  H   UNL     1     -38.886  25.066   1.909  0.00  0.00    +0.159 HD
ATOM      9  H   UNL     1     -38.248  26.646   1.964  0.00  0.00    +0.159 HD
BRANCH   6  10
ATOM     10  N   UNL     1     -37.528  24.241   4.042  0.00  0.00    -0.239 NA
BRANCH  10  11
ATOM     11  C   UNL     1     -36.881  23.143   3.337  0.00  0.00    +0.129 C 
BRANCH  11  12
ATOM     12  C   UNL     1     -35.517  22.862   3.957  0.00  0.00    +0.026 C 
BRANCH  12  13
ATOM     13  C   UNL     1     -35.547  22.919   5.486  0.00  0.00    +0.002 C 
ATOM     14  C   UNL     1     -35.172  21.578   6.099  0.00  0.00    +0.000 C 
ENDBRANCH  12  13
ENDBRANCH  11  12
ENDBRANCH  10  11
ENDBRANCH   6  10
ENDBRANCH   1   4
BRANCH   2  15
ATOM     15  C   UNL     1     -33.818  26.336   5.929  0.00  0.00    +0.157 C 
BRANCH  15  16
ATOM     16  N   UNL     1     -32.642  26.852   5.839  0.00  0.00    -0.116 NA
BRANCH  16  17
ATOM     17  N   UNL     1     -32.349  27.699   6.853  0.00  0.00    -0.273 N 
ATOM     18  N   UNL     1     -31.572  29.582   7.878  0.00  0.00    -0.369 N 
ATOM     19  C   UNL     1     -31.752  28.936   6.674  0.00  0.00    +0.207 C 
ATOM     20  H   UNL     1     -32.572  27.420   7.770  0.00  0.00    +0.185 HD
ATOM     21  H   UNL     1     -31.157  30.474   7.901  0.00  0.00    +0.159 HD
ATOM     22  H   UNL     1     -31.859  29.150   8.715  0.00  0.00    +0.159 HD
BRANCH  19  23
ATOM     23  N   UNL     1     -31.426  29.377   5.493  0.00  0.00    -0.239 NA
BRANCH  23  24
ATOM     24  C   UNL     1     -32.159  30.530   4.987  0.00  0.00    +0.129 C 
BRANCH  24  25
ATOM     25  C   UNL     1     -33.012  30.118   3.793  0.00  0.00    +0.026 C 
BRANCH  25  26
ATOM     26  C   UNL     1     -33.901  31.257   3.290  0.00  0.00    +0.002 C 
ATOM     27  C   UNL     1     -35.312  30.772   2.994  0.00  0.00    +0.000 C 
ENDBRANCH  25  26
ENDBRANCH  24  25
ENDBRANCH  23  24
ENDBRANCH  19  23
ENDBRANCH  16  17
ENDBRANCH  15  16
ENDBRANCH   2  15
TORSDOF 12
ENDMDL
MODEL 2
REMARK VINA RESULT:      -5.4      3.990      8.055
REMARK  Name = 57352300
REMARK  12 active torsions:
REMARK  status: ('A' for Active; 'I' for Inactive)
REMARK    1  A    between atoms: N_1  and  N_5
REMARK    2  A    between atoms: C_2  and  C_16
REMARK    3  A    between atoms: N_4  and  C_7
REMARK    4  A    between atoms: N_4  and  C_11
REMARK    5  A    between atoms: C_11  and  C_12
REMARK    6  A    between atoms: C_12  and  C_13
REMARK    7  A    between atoms: N_15  and  C_16
REMARK    8  A    between atoms: N_15  and  N_18
REMARK    9  A    between atoms: N_17  and  C_20
REMARK   10  A    between atoms: N_17  and  C_24
REMARK   11  A    between atoms: C_24  and  C_25
REMARK   12  A    between atoms: C_25  and  C_26
REMARK                            x       y       z     vdW  Elec       q    Type
REMARK                         _______ _______ _______ _____ _____    ______ ____
ROOT
ATOM      1  N   UNL     1     -38.397  24.106   3.383  0.00  0.00    -0.178 NA
ATOM      2  C   UNL     1     -39.519  24.304   2.766  0.00  0.00    +0.076 C 
ATOM      3  C   UNL     1     -40.415  25.506   2.860  0.00  0.00    +0.051 C 
ENDROOT
BRANCH   1   4
ATOM      4  N   UNL     1     -37.973  25.084   4.214  0.00  0.00    -0.247 N 
ATOM      5  N   UNL     1     -36.519  26.557   5.173  0.00  0.00    -0.369 N 
ATOM      6  C   UNL     1     -36.673  25.564   4.229  0.00  0.00    +0.212 C 
ATOM      7  H   UNL     1     -38.622  25.476   4.843  0.00  0.00    +0.192 HD
ATOM      8  H   UNL     1     -35.644  26.991   5.294  0.00  0.00    +0.159 HD
ATOM      9  H   UNL     1     -37.285  26.832   5.727  0.00  0.00    +0.159 HD
BRANCH   6  10
ATOM     10  N   UNL     1     -35.758  25.098   3.429  0.00  0.00    -0.239 NA
BRANCH  10  11
ATOM     11  C   UNL     1     -35.196  23.792   3.746  0.00  0.00    +0.129 C 
BRANCH  11  12
ATOM     12  C   UNL     1     -34.616  23.807   5.156  0.00  0.00    +0.026 C 
BRANCH  12  13
ATOM     13  C   UNL     1     -35.323  22.822   6.090  0.00  0.00    +0.002 C 
ATOM     14  C   UNL     1     -35.104  21.383   5.649  0.00  0.00    +0.000 C 
ENDBRANCH  12  13
ENDBRANCH  11  12
ENDBRANCH  10  11
ENDBRANCH   6  10
ENDBRANCH   1   4
BRANCH   2  15
ATOM     15  C   UNL     1     -39.970  23.221   1.839  0.00  0.00    +0.157 C 
BRANCH  15  16
ATOM     16  N   UNL     1     -39.812  21.996   2.200  0.00  0.00    -0.116 NA
BRANCH  16  17
ATOM     17  N   UNL     1     -39.528  21.165   1.171  0.00  0.00    -0.273 N 
ATOM     18  N   UNL     1     -38.253  19.924  -0.256  0.00  0.00    -0.369 N 
ATOM     19  C   UNL     1     -38.244  20.771   0.832  0.00  0.00    +0.207 C 
ATOM     20  H   UNL     1     -40.276  20.819   0.632  0.00  0.00    +0.185 HD
ATOM     21  H   UNL     1     -37.406  19.565  -0.607  0.00  0.00    +0.159 HD
ATOM     22  H   UNL     1     -39.106  19.678  -0.681  0.00  0.00    +0.159 HD
BRANCH  19  23
ATOM     23  N   UNL     1     -37.201  21.182   1.494  0.00  0.00    -0.239 NA
BRANCH  23  24
ATOM     24  C   UNL     1     -36.341  20.164   2.082  0.00  0.00    +0.129 C 
BRANCH  24  25
ATOM     25  C   UNL     1     -34.880  20.574   1.939  0.00  0.00    +0.026 C 
BRANCH  25  26
ATOM     26  C   UNL     1     -33.986  19.412   1.502  0.00  0.00    +0.002 C 
ATOM     27  C   UNL     1     -32.840  19.891   0.624  0.00  0.00    +0.000 C 
ENDBRANCH  25  26
ENDBRANCH  24  25
ENDBRANCH  23  24
ENDBRANCH  19  23
ENDBRANCH  16  17
ENDBRANCH  15  16
ENDBRANCH   2  15
TORSDOF 12
ENDMDL
MODEL 3
REMARK VINA RESULT:      -5.4      3.419      6.306
REMARK  Name = 57352300
REMARK  12 active torsions:
REMARK  status: ('A' for Active; 'I' for Inactive)
REMARK    1  A    between atoms: N_1  and  N_5
REMARK    2  A    between atoms: C_2  and  C_16
REMARK    3  A    between atoms: N_4  and  C_7
REMARK    4  A    between atoms: N_4  and  C_11
REMARK    5  A    between atoms: C_11  and  C_12
REMARK    6  A    between atoms: C_12  and  C_13
REMARK    7  A    between atoms: N_15  and  C_16
REMARK    8  A    between atoms: N_15  and  N_18
REMARK    9  A    between atoms: N_17  and  C_20
REMARK   10  A    between atoms: N_17  and  C_24
REMARK   11  A    between atoms: C_24  and  C_25
REMARK   12  A    between atoms: C_25  and  C_26
REMARK                            x       y       z     vdW  Elec       q    Type
REMARK                         _______ _______ _______ _____ _____    ______ ____
ROOT
ATOM      1  N   UNL     1     -37.897  22.273   2.732  0.00  0.00    -0.178 NA
ATOM      2  C   UNL     1     -38.792  23.130   2.357  0.00  0.00    +0.076 C 
ATOM      3  C   UNL     1     -39.884  22.931   1.345  0.00  0.00    +0.051 C 
ENDROOT
BRANCH   1   4
ATOM      4  N   UNL     1     -37.934  21.053   2.151  0.00  0.00    -0.247 N 
ATOM      5  N   UNL     1     -37.139  19.176   1.128  0.00  0.00    -0.369 N 
ATOM      6  C   UNL     1     -36.811  20.402   1.667  0.00  0.00    +0.212 C 
ATOM      7  H   UNL     1     -38.807  20.603   2.066  0.00  0.00    +0.192 HD
ATOM      8  H   UNL     1     -36.437  18.602   0.745  0.00  0.00    +0.159 HD
ATOM      9  H   UNL     1     -38.077  18.875   1.124  0.00  0.00    +0.159 HD
BRANCH   6  10
ATOM     10  N   UNL     1     -35.624  20.929   1.743  0.00  0.00    -0.239 NA
BRANCH  10  11
ATOM     11  C   UNL     1     -34.525  20.049   2.120  0.00  0.00    +0.129 C 
BRANCH  11  12
ATOM     12  C   UNL     1     -33.588  19.854   0.933  0.00  0.00    +0.026 C 
BRANCH  12  13
ATOM     13  C   UNL     1     -32.636  18.672   1.127  0.00  0.00    +0.002 C 
ATOM     14  C   UNL     1     -31.303  18.912   0.436  0.00  0.00    +0.000 C 
ENDBRANCH  12  13
ENDBRANCH  11  12
ENDBRANCH  10  11
ENDBRANCH   6  10
ENDBRANCH   1   4
BRANCH   2  15
ATOM     15  C   UNL     1     -38.749  24.472   3.018  0.00  0.00    +0.157 C 
BRANCH  15  16
ATOM     16  N   UNL     1     -37.803  24.714   3.857  0.00  0.00    -0.116 NA
BRANCH  16  17
ATOM     17  N   UNL     1     -37.098  25.832   3.562  0.00  0.00    -0.273 N 
ATOM     18  N   UNL     1     -35.581  27.510   3.843  0.00  0.00    -0.369 N 
ATOM     19  C   UNL     1     -36.135  26.376   4.396  0.00  0.00    +0.207 C 
ATOM     20  H   UNL     1     -37.280  26.284   2.707  0.00  0.00    +0.185 HD
ATOM     21  H   UNL     1     -34.880  28.003   4.329  0.00  0.00    +0.159 HD
ATOM     22  H   UNL     1     -35.885  27.828   2.962  0.00  0.00    +0.159 HD
BRANCH  19  23
ATOM     23  N   UNL     1     -35.836  25.839   5.543  0.00  0.00    -0.239 NA
BRANCH  23  24
ATOM     24  C   UNL     1     -34.513  25.242   5.675  0.00  0.00    +0.129 C 
BRANCH  24  25
ATOM     25  C   UNL     1     -34.528  23.822   5.122  0.00  0.00    +0.026 C 
BRANCH  25  26
ATOM     26  C   UNL     1     -35.311  22.855   6.013  0.00  0.00    +0.002 C 
ATOM     27  C   UNL     1     -35.159  21.417   5.542  0.00  0.00    +0.000 C 
ENDBRANCH  25  26
ENDBRANCH  24  25
ENDBRANCH  23  24
ENDBRANCH  19  23
ENDBRANCH  16  17
ENDBRANCH  15  16
ENDBRANCH   2  15
TORSDOF 12
ENDMDL
MODEL 4
REMARK VINA RESULT:      -5.4      9.039     10.532
REMARK  Name = 57352300
REMARK  12 active torsions:
REMARK  status: ('A' for Active; 'I' for Inactive)
REMARK    1  A    between atoms: N_1  and  N_5
REMARK    2  A    between atoms: C_2  and  C_16
REMARK    3  A    between atoms: N_4  and  C_7
REMARK    4  A    between atoms: N_4  and  C_11
REMARK    5  A    between atoms: C_11  and  C_12
REMARK    6  A    between atoms: C_12  and  C_13
REMARK    7  A    between atoms: N_15  and  C_16
REMARK    8  A    between atoms: N_15  and  N_18
REMARK    9  A    between atoms: N_17  and  C_20
REMARK   10  A    between atoms: N_17  and  C_24
REMARK   11  A    between atoms: C_24  and  C_25
REMARK   12  A    between atoms: C_25  and  C_26
REMARK                            x       y       z     vdW  Elec       q    Type
REMARK                         _______ _______ _______ _____ _____    ______ ____
ROOT
ATOM      1  N   UNL     1     -43.692  32.461   5.109  0.00  0.00    -0.178 NA
ATOM      2  C   UNL     1     -44.768  32.985   4.615  0.00  0.00    +0.076 C 
ATOM      3  C   UNL     1     -46.123  33.072   5.258  0.00  0.00    +0.051 C 
ENDROOT
BRANCH   1   4
ATOM      4  N   UNL     1     -43.784  31.921   6.345  0.00  0.00    -0.247 N 
ATOM      5  N   UNL     1     -43.621  30.332   7.973  0.00  0.00    -0.369 N 
ATOM      6  C   UNL     1     -43.425  30.615   6.638  0.00  0.00    +0.212 C 
ATOM      7  H   UNL     1     -44.125  32.486   7.077  0.00  0.00    +0.192 HD
ATOM      8  H   UNL     1     -43.408  29.437   8.324  0.00  0.00    +0.159 HD
ATOM      9  H   UNL     1     -43.976  31.025   8.577  0.00  0.00    +0.159 HD
BRANCH   6  10
ATOM     10  N   UNL     1     -42.967  29.807   5.727  0.00  0.00    -0.239 NA
BRANCH  10  11
ATOM     11  C   UNL     1     -43.941  29.023   4.979  0.00  0.00    +0.129 C 
BRANCH  11  12
ATOM     12  C   UNL     1     -43.223  28.134   3.970  0.00  0.00    +0.026 C 
BRANCH  12  13
ATOM     13  C   UNL     1     -43.903  26.773   3.802  0.00  0.00    +0.002 C 
ATOM     14  C   UNL     1     -45.112  26.640   4.714  0.00  0.00    +0.000 C 
ENDBRANCH  12  13
ENDBRANCH  11  12
ENDBRANCH  10  11
ENDBRANCH   6  10
ENDBRANCH   1   4
BRANCH   2  15
ATOM     15  C   UNL     1     -44.650  33.592   3.253  0.00  0.00    +0.157 C 
BRANCH  15  16
ATOM     16  N   UNL     1     -43.475  33.759   2.754  0.00  0.00    -0.116 NA
BRANCH  16  17
ATOM     17  N   UNL     1     -42.722  34.650   3.440  0.00  0.00    -0.273 N 
ATOM     18  N   UNL     1     -41.030  36.125   3.839  0.00  0.00    -0.369 N 
ATOM     19  C   UNL     1     -41.597  35.268   2.920  0.00  0.00    +0.207 C 
ATOM     20  H   UNL     1     -42.989  34.872   4.361  0.00  0.00    +0.185 HD
ATOM     21  H   UNL     1     -40.221  36.634   3.603  0.00  0.00    +0.159 HD
ATOM     22  H   UNL     1     -41.435  36.229   4.730  0.00  0.00    +0.159 HD
BRANCH  19  23
ATOM     23  N   UNL     1     -41.178  35.030   1.711  0.00  0.00    -0.239 NA
BRANCH  23  24
ATOM     24  C   UNL     1     -39.941  34.273   1.571  0.00  0.00    +0.129 C 
BRANCH  24  25
ATOM     25  C   UNL     1     -38.945  35.060   0.727  0.00  0.00    +0.026 C 
BRANCH  25  26
ATOM     26  C   UNL     1     -38.157  36.079   1.552  0.00  0.00    +0.002 C 
ATOM     27  C   UNL     1     -37.154  36.834   0.692  0.00  0.00    +0.000 C 
ENDBRANCH  25  26
ENDBRANCH  24  25
ENDBRANCH  23  24
ENDBRANCH  19  23
ENDBRANCH  16  17
ENDBRANCH  15  16
ENDBRANCH   2  15
TORSDOF 12
ENDMDL
MODEL 5
REMARK VINA RESULT:      -5.4      3.101      4.441
REMARK  Name = 57352300
REMARK  12 active torsions:
REMARK  status: ('A' for Active; 'I' for Inactive)
REMARK    1  A    between atoms: N_1  and  N_5
REMARK    2  A    between atoms: C_2  and  C_16
REMARK    3  A    between atoms: N_4  and  C_7
REMARK    4  A    between atoms: N_4  and  C_11
REMARK    5  A    between atoms: C_11  and  C_12
REMARK    6  A    between atoms: C_12  and  C_13
REMARK    7  A    between atoms: N_15  and  C_16
REMARK    8  A    between atoms: N_15  and  N_18
REMARK    9  A    between atoms: N_17  and  C_20
REMARK   10  A    between atoms: N_17  and  C_24
REMARK   11  A    between atoms: C_24  and  C_25
REMARK   12  A    between atoms: C_25  and  C_26
REMARK                            x       y       z     vdW  Elec       q    Type
REMARK                         _______ _______ _______ _____ _____    ______ ____
ROOT
ATOM      1  N   UNL     1     -35.847  22.819   3.876  0.00  0.00    -0.178 NA
ATOM      2  C   UNL     1     -35.290  22.812   5.046  0.00  0.00    +0.076 C 
ATOM      3  C   UNL     1     -35.251  21.682   6.034  0.00  0.00    +0.051 C 
ENDROOT
BRANCH   1   4
ATOM      4  N   UNL     1     -36.473  21.686   3.488  0.00  0.00    -0.247 N 
ATOM      5  N   UNL     1     -36.848  19.788   2.279  0.00  0.00    -0.369 N 
ATOM      6  C   UNL     1     -36.018  20.874   2.461  0.00  0.00    +0.212 C 
ATOM      7  H   UNL     1     -37.297  21.423   3.959  0.00  0.00    +0.192 HD
ATOM      8  H   UNL     1     -36.646  19.125   1.580  0.00  0.00    +0.159 HD
ATOM      9  H   UNL     1     -37.644  19.676   2.848  0.00  0.00    +0.159 HD
BRANCH   6  10
ATOM     10  N   UNL     1     -34.938  21.153   1.791  0.00  0.00    -0.239 NA
BRANCH  10  11
ATOM     11  C   UNL     1     -34.535  20.212   0.754  0.00  0.00    +0.129 C 
BRANCH  11  12
ATOM     12  C   UNL     1     -33.120  20.533   0.286  0.00  0.00    +0.026 C 
BRANCH  12  13
ATOM     13  C   UNL     1     -32.115  19.444   0.670  0.00  0.00    +0.002 C 
ATOM     14  C   UNL     1     -32.800  18.275   1.361  0.00  0.00    +0.000 C 
ENDBRANCH  12  13
ENDBRANCH  11  12
ENDBRANCH  10  11
ENDBRANCH   6  10
ENDBRANCH   1   4
BRANCH   2  15
ATOM     15  C   UNL     1     -34.588  24.067   5.458  0.00  0.00    +0.157 C 
BRANCH  15  16
ATOM     16  N   UNL     1     -33.818  24.649   4.607  0.00  0.00    -0.116 NA
BRANCH  16  17
ATOM     17  N   UNL     1     -34.383  25.732   4.024  0.00  0.00    -0.273 N 
ATOM     18  N   UNL     1     -34.865  27.932   3.667  0.00  0.00    -0.369 N 
ATOM     19  C   UNL     1     -34.163  27.034   4.443  0.00  0.00    +0.207 C 
ATOM     20  H   UNL     1     -34.984  25.586   3.258  0.00  0.00    +0.185 HD
ATOM     21  H   UNL     1     -34.803  28.896   3.853  0.00  0.00    +0.159 HD
ATOM     22  H   UNL     1     -35.429  27.608   2.927  0.00  0.00    +0.159 HD
BRANCH  19  23
ATOM     23  N   UNL     1     -33.382  27.311   5.447  0.00  0.00    -0.239 NA
BRANCH  23  24
ATOM     24  C   UNL     1     -32.153  28.035   5.154  0.00  0.00    +0.129 C 
BRANCH  24  25
ATOM     25  C   UNL     1     -31.896  29.078   6.236  0.00  0.00    +0.026 C 
BRANCH  25  26
ATOM     26  C   UNL     1     -31.674  30.477   5.659  0.00  0.00    +0.002 C 
ATOM     27  C   UNL     1     -32.583  30.738   4.467  0.00  0.00    +0.000 C 
ENDBRANCH  25  26
ENDBRANCH  24  25
ENDBRANCH  23  24
ENDBRANCH  19  23
ENDBRANCH  16  17
ENDBRANCH  15  16
ENDBRANCH   2  15
TORSDOF 12
ENDMDL
MODEL 6
REMARK VINA RESULT:      -5.2      2.106      3.487
REMARK  Name = 57352300
REMARK  12 active torsions:
REMARK  status: ('A' for Active; 'I' for Inactive)
REMARK    1  A    between atoms: N_1  and  N_5
REMARK    2  A    between atoms: C_2  and  C_16
REMARK    3  A    between atoms: N_4  and  C_7
REMARK    4  A    between atoms: N_4  and  C_11
REMARK    5  A    between atoms: C_11  and  C_12
REMARK    6  A    between atoms: C_12  and  C_13
REMARK    7  A    between atoms: N_15  and  C_16
REMARK    8  A    between atoms: N_15  and  N_18
REMARK    9  A    between atoms: N_17  and  C_20
REMARK   10  A    between atoms: N_17  and  C_24
REMARK   11  A    between atoms: C_24  and  C_25
REMARK   12  A    between atoms: C_25  and  C_26
REMARK                            x       y       z     vdW  Elec       q    Type
REMARK                         _______ _______ _______ _____ _____    ______ ____
ROOT
ATOM      1  N   UNL     1     -35.160  26.587   3.881  0.00  0.00    -0.178 NA
ATOM      2  C   UNL     1     -34.399  27.510   3.385  0.00  0.00    +0.076 C 
ATOM      3  C   UNL     1     -34.807  28.666   2.519  0.00  0.00    +0.051 C 
ENDROOT
BRANCH   1   4
ATOM      4  N   UNL     1     -36.478  26.658   3.590  0.00  0.00    -0.247 N 
ATOM      5  N   UNL     1     -38.651  25.975   3.453  0.00  0.00    -0.369 N 
ATOM      6  C   UNL     1     -37.375  25.635   3.852  0.00  0.00    +0.212 C 
ATOM      7  H   UNL     1     -36.820  27.480   3.168  0.00  0.00    +0.192 HD
ATOM      8  H   UNL     1     -39.392  25.341   3.579  0.00  0.00    +0.159 HD
ATOM      9  H   UNL     1     -38.820  26.854   3.042  0.00  0.00    +0.159 HD
BRANCH   6  10
ATOM     10  N   UNL     1     -37.003  24.518   4.406  0.00  0.00    -0.239 NA
BRANCH  10  11
ATOM     11  C   UNL     1     -36.834  23.363   3.534  0.00  0.00    +0.129 C 
BRANCH  11  12
ATOM     12  C   UNL     1     -35.599  22.574   3.953  0.00  0.00    +0.026 C 
BRANCH  12  13
ATOM     13  C   UNL     1     -35.044  23.031   5.305  0.00  0.00    +0.002 C 
ATOM     14  C   UNL     1     -35.305  21.998   6.390  0.00  0.00    +0.000 C 
ENDBRANCH  12  13
ENDBRANCH  11  12
ENDBRANCH  10  11
ENDBRANCH   6  10
ENDBRANCH   1   4
BRANCH   2  15
ATOM     15  C   UNL     1     -32.944  27.428   3.726  0.00  0.00    +0.157 C 
BRANCH  15  16
ATOM     16  N   UNL     1     -32.606  26.939   4.868  0.00  0.00    -0.116 NA
BRANCH  16  17
ATOM     17  N   UNL     1     -32.568  27.862   5.857  0.00  0.00    -0.273 N 
ATOM     18  N   UNL     1     -31.657  29.295   7.379  0.00  0.00    -0.369 N 
ATOM     19  C   UNL     1     -31.395  28.374   6.387  0.00  0.00    +0.207 C 
ATOM     20  H   UNL     1     -33.423  28.188   6.222  0.00  0.00    +0.185 HD
ATOM     21  H   UNL     1     -30.913  29.741   7.844  0.00  0.00    +0.159 HD
ATOM     22  H   UNL     1     -32.588  29.506   7.621  0.00  0.00    +0.159 HD
BRANCH  19  23
ATOM     23  N   UNL     1     -30.225  27.996   5.960  0.00  0.00    -0.239 NA
BRANCH  23  24
ATOM     24  C   UNL     1     -29.141  28.965   6.040  0.00  0.00    +0.129 C 
BRANCH  24  25
ATOM     25  C   UNL     1     -27.803  28.240   6.131  0.00  0.00    +0.026 C 
BRANCH  25  26
ATOM     26  C   UNL     1     -27.576  27.602   7.502  0.00  0.00    +0.002 C 
ATOM     27  C   UNL     1     -27.136  26.151   7.374  0.00  0.00    +0.000 C 
ENDBRANCH  25  26
ENDBRANCH  24  25
ENDBRANCH  23  24
ENDBRANCH  19  23
ENDBRANCH  16  17
ENDBRANCH  15  16
ENDBRANCH   2  15
TORSDOF 12
ENDMDL
MODEL 7
REMARK VINA RESULT:      -5.2      3.240      5.452
REMARK  Name = 57352300
REMARK  12 active torsions:
REMARK  status: ('A' for Active; 'I' for Inactive)
REMARK    1  A    between atoms: N_1  and  N_5
REMARK    2  A    between atoms: C_2  and  C_16
REMARK    3  A    between atoms: N_4  and  C_7
REMARK    4  A    between atoms: N_4  and  C_11
REMARK    5  A    between atoms: C_11  and  C_12
REMARK    6  A    between atoms: C_12  and  C_13
REMARK    7  A    between atoms: N_15  and  C_16
REMARK    8  A    between atoms: N_15  and  N_18
REMARK    9  A    between atoms: N_17  and  C_20
REMARK   10  A    between atoms: N_17  and  C_24
REMARK   11  A    between atoms: C_24  and  C_25
REMARK   12  A    between atoms: C_25  and  C_26
REMARK                            x       y       z     vdW  Elec       q    Type
REMARK                         _______ _______ _______ _____ _____    ______ ____
ROOT
ATOM      1  N   UNL     1     -35.702  22.932   3.857  0.00  0.00    -0.178 NA
ATOM      2  C   UNL     1     -35.269  23.038   5.073  0.00  0.00    +0.076 C 
ATOM      3  C   UNL     1     -35.415  22.041   6.187  0.00  0.00    +0.051 C 
ENDROOT
BRANCH   1   4
ATOM      4  N   UNL     1     -36.368  21.800   3.539  0.00  0.00    -0.247 N 
ATOM      5  N   UNL     1     -36.865  19.893   2.390  0.00  0.00    -0.369 N 
ATOM      6  C   UNL     1     -36.014  20.975   2.484  0.00  0.00    +0.212 C 
ATOM      7  H   UNL     1     -37.148  21.548   4.086  0.00  0.00    +0.192 HD
ATOM      8  H   UNL     1     -36.732  19.221   1.683  0.00  0.00    +0.159 HD
ATOM      9  H   UNL     1     -37.607  19.793   3.030  0.00  0.00    +0.159 HD
BRANCH   6  10
ATOM     10  N   UNL     1     -34.998  21.237   1.716  0.00  0.00    -0.239 NA
BRANCH  10  11
ATOM     11  C   UNL     1     -34.673  20.263   0.682  0.00  0.00    +0.129 C 
BRANCH  11  12
ATOM     12  C   UNL     1     -33.201  19.880   0.777  0.00  0.00    +0.026 C 
BRANCH  12  13
ATOM     13  C   UNL     1     -32.998  18.475   1.350  0.00  0.00    +0.002 C 
ATOM     14  C   UNL     1     -31.568  17.996   1.155  0.00  0.00    +0.000 C 
ENDBRANCH  12  13
ENDBRANCH  11  12
ENDBRANCH  10  11
ENDBRANCH   6  10
ENDBRANCH   1   4
BRANCH   2  15
ATOM     15  C   UNL     1     -34.521  24.289   5.408  0.00  0.00    +0.157 C 
BRANCH  15  16
ATOM     16  N   UNL     1     -33.877  24.892   4.470  0.00  0.00    -0.116 NA
BRANCH  16  17
ATOM     17  N   UNL     1     -34.118  26.223   4.423  0.00  0.00    -0.273 N 
ATOM     18  N   UNL     1     -34.978  28.191   3.656  0.00  0.00    -0.369 N 
ATOM     19  C   UNL     1     -34.908  26.828   3.459  0.00  0.00    +0.207 C 
ATOM     20  H   UNL     1     -33.708  26.793   5.112  0.00  0.00    +0.185 HD
ATOM     21  H   UNL     1     -35.507  28.750   3.043  0.00  0.00    +0.159 HD
ATOM     22  H   UNL     1     -34.498  28.604   4.410  0.00  0.00    +0.159 HD
BRANCH  19  23
ATOM     23  N   UNL     1     -35.485  26.144   2.514  0.00  0.00    -0.239 NA
BRANCH  23  24
ATOM     24  C   UNL     1     -36.899  26.399   2.275  0.00  0.00    +0.129 C 
BRANCH  24  25
ATOM     25  C   UNL     1     -37.738  25.708   3.345  0.00  0.00    +0.026 C 
BRANCH  25  26
ATOM     26  C   UNL     1     -39.152  25.383   2.859  0.00  0.00    +0.002 C 
ATOM     27  C   UNL     1     -39.331  23.890   2.626  0.00  0.00    +0.000 C 
ENDBRANCH  25  26
ENDBRANCH  24  25
ENDBRANCH  23  24
ENDBRANCH  19  23
ENDBRANCH  16  17
ENDBRANCH  15  16
ENDBRANCH   2  15
TORSDOF 12
ENDMDL
MODEL 8
REMARK VINA RESULT:      -5.2      3.756      7.755
REMARK  Name = 57352300
REMARK  12 active torsions:
REMARK  status: ('A' for Active; 'I' for Inactive)
REMARK    1  A    between atoms: N_1  and  N_5
REMARK    2  A    between atoms: C_2  and  C_16
REMARK    3  A    between atoms: N_4  and  C_7
REMARK    4  A    between atoms: N_4  and  C_11
REMARK    5  A    between atoms: C_11  and  C_12
REMARK    6  A    between atoms: C_12  and  C_13
REMARK    7  A    between atoms: N_15  and  C_16
REMARK    8  A    between atoms: N_15  and  N_18
REMARK    9  A    between atoms: N_17  and  C_20
REMARK   10  A    between atoms: N_17  and  C_24
REMARK   11  A    between atoms: C_24  and  C_25
REMARK   12  A    between atoms: C_25  and  C_26
REMARK                            x       y       z     vdW  Elec       q    Type
REMARK                         _______ _______ _______ _____ _____    ______ ____
ROOT
ATOM      1  N   UNL     1     -39.087  23.604   2.988  0.00  0.00    -0.178 NA
ATOM      2  C   UNL     1     -38.954  23.387   1.718  0.00  0.00    +0.076 C 
ATOM      3  C   UNL     1     -38.345  24.300   0.693  0.00  0.00    +0.051 C 
ENDROOT
BRANCH   1   4
ATOM      4  N   UNL     1     -38.634  24.787   3.460  0.00  0.00    -0.247 N 
ATOM      5  N   UNL     1     -37.228  26.242   4.512  0.00  0.00    -0.369 N 
ATOM      6  C   UNL     1     -37.441  24.929   4.150  0.00  0.00    +0.212 C 
ATOM      7  H   UNL     1     -39.182  25.591   3.306  0.00  0.00    +0.192 HD
ATOM      8  H   UNL     1     -36.416  26.490   5.010  0.00  0.00    +0.159 HD
ATOM      9  H   UNL     1     -37.889  26.932   4.274  0.00  0.00    +0.159 HD
BRANCH   6  10
ATOM     10  N   UNL     1     -36.662  23.915   4.393  0.00  0.00    -0.239 NA
BRANCH  10  11
ATOM     11  C   UNL     1     -35.663  24.078   5.440  0.00  0.00    +0.129 C 
BRANCH  11  12
ATOM     12  C   UNL     1     -34.270  24.132   4.823  0.00  0.00    +0.026 C 
BRANCH  12  13
ATOM     13  C   UNL     1     -33.742  25.563   4.696  0.00  0.00    +0.002 C 
ATOM     14  C   UNL     1     -33.878  26.324   6.005  0.00  0.00    +0.000 C 
ENDBRANCH  12  13
ENDBRANCH  11  12
ENDBRANCH  10  11
ENDBRANCH   6  10
ENDBRANCH   1   4
BRANCH   2  15
ATOM     15  C   UNL     1     -39.446  22.069   1.211  0.00  0.00    +0.157 C 
BRANCH  15  16
ATOM     16  N   UNL     1     -38.656  21.054   1.266  0.00  0.00    -0.116 NA
BRANCH  16  17
ATOM     17  N   UNL     1     -37.833  21.072   2.340  0.00  0.00    -0.273 N 
ATOM     18  N   UNL     1     -35.878  20.967   3.509  0.00  0.00    -0.369 N 
ATOM     19  C   UNL     1     -36.461  20.902   2.262  0.00  0.00    +0.207 C 
ATOM     20  H   UNL     1     -38.233  21.213   3.229  0.00  0.00    +0.185 HD
ATOM     21  H   UNL     1     -34.904  20.862   3.603  0.00  0.00    +0.159 HD
ATOM     22  H   UNL     1     -36.437  21.118   4.306  0.00  0.00    +0.159 HD
BRANCH  19  23
ATOM     23  N   UNL     1     -35.856  20.711   1.125  0.00  0.00    -0.239 NA
BRANCH  23  24
ATOM     24  C   UNL     1     -34.399  20.713   1.137  0.00  0.00    +0.129 C 
BRANCH  24  25
ATOM     25  C   UNL     1     -33.882  19.304   1.405  0.00  0.00    +0.026 C 
BRANCH  25  26
ATOM     26  C   UNL     1     -32.504  19.060   0.787  0.00  0.00    +0.002 C 
ATOM     27  C   UNL     1     -32.003  20.289   0.043  0.00  0.00    +0.000 C 
ENDBRANCH  25  26
ENDBRANCH  24  25
ENDBRANCH  23  24
ENDBRANCH  19  23
ENDBRANCH  16  17
ENDBRANCH  15  16
ENDBRANCH   2  15
TORSDOF 12
ENDMDL
MODEL 9
REMARK VINA RESULT:      -5.1      1.794      6.862
REMARK  Name = 57352300
REMARK  12 active torsions:
REMARK  status: ('A' for Active; 'I' for Inactive)
REMARK    1  A    between atoms: N_1  and  N_5
REMARK    2  A    between atoms: C_2  and  C_16
REMARK    3  A    between atoms: N_4  and  C_7
REMARK    4  A    between atoms: N_4  and  C_11
REMARK    5  A    between atoms: C_11  and  C_12
REMARK    6  A    between atoms: C_12  and  C_13
REMARK    7  A    between atoms: N_15  and  C_16
REMARK    8  A    between atoms: N_15  and  N_18
REMARK    9  A    between atoms: N_17  and  C_20
REMARK   10  A    between atoms: N_17  and  C_24
REMARK   11  A    between atoms: C_24  and  C_25
REMARK   12  A    between atoms: C_25  and  C_26
REMARK                            x       y       z     vdW  Elec       q    Type
REMARK                         _______ _______ _______ _____ _____    ______ ____
ROOT
ATOM      1  N   UNL     1     -34.088  28.010   4.039  0.00  0.00    -0.178 NA
ATOM      2  C   UNL     1     -33.943  26.745   4.278  0.00  0.00    +0.076 C 
ATOM      3  C   UNL     1     -33.447  25.686   3.336  0.00  0.00    +0.051 C 
ENDROOT
BRANCH   1   4
ATOM      4  N   UNL     1     -33.763  28.441   2.800  0.00  0.00    -0.247 N 
ATOM      5  N   UNL     1     -33.038  29.883   1.188  0.00  0.00    -0.369 N 
ATOM      6  C   UNL     1     -33.288  29.715   2.534  0.00  0.00    +0.212 C 
ATOM      7  H   UNL     1     -33.871  27.817   2.045  0.00  0.00    +0.192 HD
ATOM      8  H   UNL     1     -32.695  30.743   0.854  0.00  0.00    +0.159 HD
ATOM      9  H   UNL     1     -33.204  29.142   0.561  0.00  0.00    +0.159 HD
BRANCH   6  10
ATOM     10  N   UNL     1     -33.117  30.597   3.476  0.00  0.00    -0.239 NA
BRANCH  10  11
ATOM     11  C   UNL     1     -31.749  30.866   3.898  0.00  0.00    +0.129 C 
BRANCH  11  12
ATOM     12  C   UNL     1     -31.695  31.010   5.415  0.00  0.00    +0.026 C 
BRANCH  12  13
ATOM     13  C   UNL     1     -30.902  29.883   6.082  0.00  0.00    +0.002 C 
ATOM     14  C   UNL     1     -31.824  28.864   6.732  0.00  0.00    +0.000 C 
ENDBRANCH  12  13
ENDBRANCH  11  12
ENDBRANCH  10  11
ENDBRANCH   6  10
ENDBRANCH   1   4
BRANCH   2  15
ATOM     15  C   UNL     1     -34.292  26.283   5.658  0.00  0.00    +0.157 C 
BRANCH  15  16
ATOM     16  N   UNL     1     -35.518  25.987   5.916  0.00  0.00    -0.116 NA
BRANCH  16  17
ATOM     17  N   UNL     1     -36.384  26.411   4.966  0.00  0.00    -0.273 N 
ATOM     18  N   UNL     1     -37.963  26.265   3.327  0.00  0.00    -0.369 N 
ATOM     19  C   UNL     1     -37.181  25.560   4.217  0.00  0.00    +0.207 C 
ATOM     20  H   UNL     1     -36.451  27.378   4.797  0.00  0.00    +0.185 HD
ATOM     21  H   UNL     1     -38.580  25.786   2.729  0.00  0.00    +0.159 HD
ATOM     22  H   UNL     1     -37.903  27.247   3.291  0.00  0.00    +0.159 HD
BRANCH  19  23
ATOM     23  N   UNL     1     -37.151  24.269   4.380  0.00  0.00    -0.239 NA
BRANCH  23  24
ATOM     24  C   UNL     1     -36.492  23.482   3.346  0.00  0.00    +0.129 C 
BRANCH  24  25
ATOM     25  C   UNL     1     -35.744  22.315   3.980  0.00  0.00    +0.026 C 
BRANCH  25  26
ATOM     26  C   UNL     1     -34.977  22.727   5.238  0.00  0.00    +0.002 C 
ATOM     27  C   UNL     1     -35.472  21.974   6.463  0.00  0.00    +0.000 C 
ENDBRANCH  25  26
ENDBRANCH  24  25
ENDBRANCH  23  24
ENDBRANCH  19  23
ENDBRANCH  16  17
ENDBRANCH  15  16
ENDBRANCH   2  15
TORSDOF 12
ENDMDL
