MODEL 1
REMARK VINA RESULT:      -7.1      0.000      0.000
REMARK  Name = 56927770
REMARK  4 active torsions:
REMARK  status: ('A' for Active; 'I' for Inactive)
REMARK    1  A    between atoms: C_7  and  C_17
REMARK    2  A    between atoms: C_12  and  O_14
REMARK    3  A    between atoms: C_17  and  O_18
REMARK    4  A    between atoms: O_18  and  N_21
REMARK                            x       y       z     vdW  Elec       q    Type
REMARK                         _______ _______ _______ _____ _____    ______ ____
ROOT
ATOM      1  F   UNL     1     -35.113  22.046   2.012  0.00  0.00    -0.198 F 
ATOM      2  F   UNL     1     -35.711  22.042   6.718  0.00  0.00    -0.201 F 
ATOM      3  O   UNL     1     -34.529  24.712   2.039  0.00  0.00    -0.418 OA
ATOM      4  O   UNL     1     -33.967  26.637   0.943  0.00  0.00    -0.244 OA
ATOM      5  C   UNL     1     -34.827  24.749   4.451  0.00  0.00    +0.040 C 
ATOM      6  C   UNL     1     -34.827  24.053   3.247  0.00  0.00    +0.179 C 
ATOM      7  C   UNL     1     -34.230  26.791   3.292  0.00  0.00    +0.153 C 
ATOM      8  C   UNL     1     -34.513  26.169   4.443  0.00  0.00    +0.016 C 
ATOM      9  C   UNL     1     -35.128  24.059   5.628  0.00  0.00    +0.036 C 
ATOM     10  C   UNL     1     -35.120  22.691   3.186  0.00  0.00    +0.210 C 
ATOM     11  C   UNL     1     -34.225  26.070   2.000  0.00  0.00    +0.352 C 
ATOM     12  C   UNL     1     -35.419  22.011   4.365  0.00  0.00    +0.192 C 
ATOM     13  C   UNL     1     -35.424  22.694   5.583  0.00  0.00    +0.176 C 
ENDROOT
BRANCH  12  14
ATOM     14  O   UNL     1     -35.707  20.683   4.329  0.00  0.00    -0.502 OA
ATOM     15  H   UNL     1     -36.441  20.349   4.807  0.00  0.00    +0.292 HD
ENDBRANCH  12  14
BRANCH   7  17
ATOM     16  O   UNL     1     -34.781  29.094   3.378  0.00  0.00    -0.243 OA
ATOM     17  C   UNL     1     -33.926  28.223   3.387  0.00  0.00    +0.370 C 
BRANCH  17  18
ATOM     18  O   UNL     1     -32.581  28.373   3.480  0.00  0.00    -0.331 OA
BRANCH  18  21
ATOM     19  O   UNL     1     -32.230  31.220   3.632  0.00  0.00    -0.267 OA
ATOM     20  O   UNL     1     -31.906  27.318   6.064  0.00  0.00    -0.267 OA
ATOM     21  N   UNL     1     -32.226  29.117   4.626  0.00  0.00    -0.054 N 
ATOM     22  C   UNL     1     -31.642  29.612   6.791  0.00  0.00    +0.066 C 
ATOM     23  C   UNL     1     -31.749  30.906   5.984  0.00  0.00    +0.066 C 
ATOM     24  C   UNL     1     -32.095  30.469   4.586  0.00  0.00    +0.287 C 
ATOM     25  C   UNL     1     -31.933  28.511   5.806  0.00  0.00    +0.287 C 
ENDBRANCH  18  21
ENDBRANCH  17  18
ENDBRANCH   7  17
TORSDOF 4
ENDMDL
MODEL 2
REMARK VINA RESULT:      -6.9      0.226      1.569
REMARK  Name = 56927770
REMARK  4 active torsions:
REMARK  status: ('A' for Active; 'I' for Inactive)
REMARK    1  A    between atoms: C_7  and  C_17
REMARK    2  A    between atoms: C_12  and  O_14
REMARK    3  A    between atoms: C_17  and  O_18
REMARK    4  A    between atoms: O_18  and  N_21
REMARK                            x       y       z     vdW  Elec       q    Type
REMARK                         _______ _______ _______ _____ _____    ______ ____
ROOT
ATOM      1  F   UNL     1     -35.224  22.111   1.703  0.00  0.00    -0.198 F 
ATOM      2  F   UNL     1     -35.792  21.855   6.405  0.00  0.00    -0.201 F 
ATOM      3  O   UNL     1     -34.568  24.755   1.876  0.00  0.00    -0.418 OA
ATOM      4  O   UNL     1     -33.960  26.723   0.887  0.00  0.00    -0.244 OA
ATOM      5  C   UNL     1     -34.850  24.662   4.289  0.00  0.00    +0.040 C 
ATOM      6  C   UNL     1     -34.876  24.036   3.047  0.00  0.00    +0.179 C 
ATOM      7  C   UNL     1     -34.205  26.750   3.243  0.00  0.00    +0.153 C 
ATOM      8  C   UNL     1     -34.498  26.072   4.359  0.00  0.00    +0.016 C 
ATOM      9  C   UNL     1     -35.162  23.915   5.427  0.00  0.00    +0.036 C 
ATOM     10  C   UNL     1     -35.206  22.689   2.911  0.00  0.00    +0.210 C 
ATOM     11  C   UNL     1     -34.227  26.104   1.912  0.00  0.00    +0.352 C 
ATOM     12  C   UNL     1     -35.516  21.951   4.052  0.00  0.00    +0.192 C 
ATOM     13  C   UNL     1     -35.494  22.563   5.307  0.00  0.00    +0.176 C 
ENDROOT
BRANCH  12  14
ATOM     14  O   UNL     1     -35.840  20.634   3.943  0.00  0.00    -0.502 OA
ATOM     15  H   UNL     1     -35.208  20.021   3.623  0.00  0.00    +0.292 HD
ENDBRANCH  12  14
BRANCH   7  17
ATOM     16  O   UNL     1     -34.687  29.065   3.405  0.00  0.00    -0.243 OA
ATOM     17  C   UNL     1     -33.862  28.166   3.417  0.00  0.00    +0.370 C 
BRANCH  17  18
ATOM     18  O   UNL     1     -32.519  28.267   3.583  0.00  0.00    -0.331 OA
BRANCH  18  21
ATOM     19  O   UNL     1     -32.108  27.224   6.227  0.00  0.00    -0.267 OA
ATOM     20  O   UNL     1     -32.323  31.124   3.781  0.00  0.00    -0.267 OA
ATOM     21  N   UNL     1     -32.200  29.010   4.740  0.00  0.00    -0.054 N 
ATOM     22  C   UNL     1     -31.733  30.796   6.106  0.00  0.00    +0.066 C 
ATOM     23  C   UNL     1     -31.661  29.501   6.917  0.00  0.00    +0.066 C 
ATOM     24  C   UNL     1     -32.019  28.409   5.945  0.00  0.00    +0.287 C 
ATOM     25  C   UNL     1     -32.127  30.366   4.718  0.00  0.00    +0.287 C 
ENDBRANCH  18  21
ENDBRANCH  17  18
ENDBRANCH   7  17
TORSDOF 4
ENDMDL
MODEL 3
REMARK VINA RESULT:      -6.9      1.312      2.483
REMARK  Name = 56927770
REMARK  4 active torsions:
REMARK  status: ('A' for Active; 'I' for Inactive)
REMARK    1  A    between atoms: C_7  and  C_17
REMARK    2  A    between atoms: C_12  and  O_14
REMARK    3  A    between atoms: C_17  and  O_18
REMARK    4  A    between atoms: O_18  and  N_21
REMARK                            x       y       z     vdW  Elec       q    Type
REMARK                         _______ _______ _______ _____ _____    ______ ____
ROOT
ATOM      1  F   UNL     1     -35.906  21.680   5.278  0.00  0.00    -0.198 F 
ATOM      2  F   UNL     1     -35.171  21.150   0.622  0.00  0.00    -0.201 F 
ATOM      3  O   UNL     1     -35.155  24.301   5.149  0.00  0.00    -0.418 OA
ATOM      4  O   UNL     1     -34.788  26.318   6.159  0.00  0.00    -0.244 OA
ATOM      5  C   UNL     1     -34.768  24.068   2.760  0.00  0.00    +0.040 C 
ATOM      6  C   UNL     1     -35.152  23.518   3.979  0.00  0.00    +0.179 C 
ATOM      7  C   UNL     1     -34.379  26.207   3.828  0.00  0.00    +0.153 C 
ATOM      8  C   UNL     1     -34.372  25.467   2.713  0.00  0.00    +0.016 C 
ATOM      9  C   UNL     1     -34.778  23.258   1.622  0.00  0.00    +0.036 C 
ATOM     10  C   UNL     1     -35.541  22.184   4.092  0.00  0.00    +0.210 C 
ATOM     11  C   UNL     1     -34.782  25.642   5.135  0.00  0.00    +0.352 C 
ATOM     12  C   UNL     1     -35.548  21.383   2.951  0.00  0.00    +0.192 C 
ATOM     13  C   UNL     1     -35.166  21.919   1.720  0.00  0.00    +0.176 C 
ENDROOT
BRANCH  12  14
ATOM     14  O   UNL     1     -35.925  20.079   3.038  0.00  0.00    -0.502 OA
ATOM     15  H   UNL     1     -35.975  19.660   3.875  0.00  0.00    +0.292 HD
ENDBRANCH  12  14
BRANCH   7  17
ATOM     16  O   UNL     1     -34.746  28.525   3.494  0.00  0.00    -0.243 OA
ATOM     17  C   UNL     1     -33.963  27.607   3.679  0.00  0.00    +0.370 C 
BRANCH  17  18
ATOM     18  O   UNL     1     -32.612  27.668   3.780  0.00  0.00    -0.331 OA
BRANCH  18  21
ATOM     19  O   UNL     1     -32.174  30.462   3.276  0.00  0.00    -0.267 OA
ATOM     20  O   UNL     1     -31.918  27.205   6.528  0.00  0.00    -0.267 OA
ATOM     21  N   UNL     1     -32.213  28.641   4.722  0.00  0.00    -0.054 N 
ATOM     22  C   UNL     1     -31.570  29.594   6.711  0.00  0.00    +0.066 C 
ATOM     23  C   UNL     1     -31.655  30.674   5.631  0.00  0.00    +0.066 C 
ATOM     24  C   UNL     1     -32.042  29.943   4.374  0.00  0.00    +0.287 C 
ATOM     25  C   UNL     1     -31.914  28.309   6.006  0.00  0.00    +0.287 C 
ENDBRANCH  18  21
ENDBRANCH  17  18
ENDBRANCH   7  17
TORSDOF 4
ENDMDL
MODEL 4
REMARK VINA RESULT:      -6.5      1.228      1.347
REMARK  Name = 56927770
REMARK  4 active torsions:
REMARK  status: ('A' for Active; 'I' for Inactive)
REMARK    1  A    between atoms: C_7  and  C_17
REMARK    2  A    between atoms: C_12  and  O_14
REMARK    3  A    between atoms: C_17  and  O_18
REMARK    4  A    between atoms: O_18  and  N_21
REMARK                            x       y       z     vdW  Elec       q    Type
REMARK                         _______ _______ _______ _____ _____    ______ ____
ROOT
ATOM      1  F   UNL     1     -35.375  22.358   1.662  0.00  0.00    -0.198 F 
ATOM      2  F   UNL     1     -35.731  21.453   6.304  0.00  0.00    -0.201 F 
ATOM      3  O   UNL     1     -34.558  24.912   2.171  0.00  0.00    -0.418 OA
ATOM      4  O   UNL     1     -33.884  26.969   1.438  0.00  0.00    -0.244 OA
ATOM      5  C   UNL     1     -34.728  24.486   4.558  0.00  0.00    +0.040 C 
ATOM      6  C   UNL     1     -34.851  24.048   3.244  0.00  0.00    +0.179 C 
ATOM      7  C   UNL     1     -34.013  26.667   3.784  0.00  0.00    +0.153 C 
ATOM      8  C   UNL     1     -34.291  25.850   4.808  0.00  0.00    +0.016 C 
ATOM      9  C   UNL     1     -35.028  23.598   5.595  0.00  0.00    +0.036 C 
ATOM     10  C   UNL     1     -35.265  22.753   2.937  0.00  0.00    +0.210 C 
ATOM     11  C   UNL     1     -34.137  26.223   2.379  0.00  0.00    +0.352 C 
ATOM     12  C   UNL     1     -35.563  21.875   3.977  0.00  0.00    +0.192 C 
ATOM     13  C   UNL     1     -35.445  22.297   5.303  0.00  0.00    +0.176 C 
ENDROOT
BRANCH  12  14
ATOM     14  O   UNL     1     -35.969  20.606   3.701  0.00  0.00    -0.502 OA
ATOM     15  H   UNL     1     -35.472  20.073   3.112  0.00  0.00    +0.292 HD
ENDBRANCH  12  14
BRANCH   7  17
ATOM     16  O   UNL     1     -33.959  29.025   3.553  0.00  0.00    -0.243 OA
ATOM     17  C   UNL     1     -33.579  28.024   4.138  0.00  0.00    +0.370 C 
BRANCH  17  18
ATOM     18  O   UNL     1     -32.721  27.942   5.185  0.00  0.00    -0.331 OA
BRANCH  18  21
ATOM     19  O   UNL     1     -32.374  30.618   6.171  0.00  0.00    -0.267 OA
ATOM     20  O   UNL     1     -30.411  27.344   3.588  0.00  0.00    -0.267 OA
ATOM     21  N   UNL     1     -31.595  28.771   4.991  0.00  0.00    -0.054 N 
ATOM     22  C   UNL     1     -29.536  29.494   4.274  0.00  0.00    +0.066 C 
ATOM     23  C   UNL     1     -30.188  30.580   5.131  0.00  0.00    +0.066 C 
ATOM     24  C   UNL     1     -31.534  30.025   5.511  0.00  0.00    +0.287 C 
ATOM     25  C   UNL     1     -30.549  28.381   4.216  0.00  0.00    +0.287 C 
ENDBRANCH  18  21
ENDBRANCH  17  18
ENDBRANCH   7  17
TORSDOF 4
ENDMDL
MODEL 5
REMARK VINA RESULT:      -6.5      2.728      3.499
REMARK  Name = 56927770
REMARK  4 active torsions:
REMARK  status: ('A' for Active; 'I' for Inactive)
REMARK    1  A    between atoms: C_7  and  C_17
REMARK    2  A    between atoms: C_12  and  O_14
REMARK    3  A    between atoms: C_17  and  O_18
REMARK    4  A    between atoms: O_18  and  N_21
REMARK                            x       y       z     vdW  Elec       q    Type
REMARK                         _______ _______ _______ _____ _____    ______ ____
ROOT
ATOM      1  F   UNL     1     -35.538  20.869   2.800  0.00  0.00    -0.198 F 
ATOM      2  F   UNL     1     -35.199  22.750   7.141  0.00  0.00    -0.201 F 
ATOM      3  O   UNL     1     -36.242  23.290   1.752  0.00  0.00    -0.418 OA
ATOM      4  O   UNL     1     -36.830  24.591  -0.032  0.00  0.00    -0.244 OA
ATOM      5  C   UNL     1     -36.078  24.289   3.962  0.00  0.00    +0.040 C 
ATOM      6  C   UNL     1     -35.980  23.178   3.131  0.00  0.00    +0.179 C 
ATOM      7  C   UNL     1     -36.701  25.670   2.072  0.00  0.00    +0.153 C 
ATOM      8  C   UNL     1     -36.454  25.569   3.384  0.00  0.00    +0.016 C 
ATOM      9  C   UNL     1     -35.810  24.137   5.325  0.00  0.00    +0.036 C 
ATOM     10  C   UNL     1     -35.625  21.923   3.623  0.00  0.00    +0.210 C 
ATOM     11  C   UNL     1     -36.604  24.502   1.170  0.00  0.00    +0.352 C 
ATOM     12  C   UNL     1     -35.360  21.780   4.983  0.00  0.00    +0.192 C 
ATOM     13  C   UNL     1     -35.453  22.885   5.832  0.00  0.00    +0.176 C 
ENDROOT
BRANCH  12  14
ATOM     14  O   UNL     1     -35.012  20.565   5.485  0.00  0.00    -0.502 OA
ATOM     15  H   UNL     1     -34.116  20.382   5.692  0.00  0.00    +0.292 HD
ENDBRANCH  12  14
BRANCH   7  17
ATOM     16  O   UNL     1     -38.215  27.433   1.603  0.00  0.00    -0.243 OA
ATOM     17  C   UNL     1     -37.073  27.004   1.584  0.00  0.00    +0.370 C 
BRANCH  17  18
ATOM     18  O   UNL     1     -35.954  27.624   1.133  0.00  0.00    -0.331 OA
BRANCH  18  21
ATOM     19  O   UNL     1     -37.022  30.012  -0.054  0.00  0.00    -0.267 OA
ATOM     20  O   UNL     1     -34.501  28.442   3.471  0.00  0.00    -0.267 OA
ATOM     21  N   UNL     1     -35.854  28.936   1.645  0.00  0.00    -0.054 N 
ATOM     22  C   UNL     1     -35.293  30.685   3.023  0.00  0.00    +0.066 C 
ATOM     23  C   UNL     1     -36.130  31.206   1.853  0.00  0.00    +0.066 C 
ATOM     24  C   UNL     1     -36.406  29.997   1.001  0.00  0.00    +0.287 C 
ATOM     25  C   UNL     1     -35.142  29.209   2.770  0.00  0.00    +0.287 C 
ENDBRANCH  18  21
ENDBRANCH  17  18
ENDBRANCH   7  17
TORSDOF 4
ENDMDL
MODEL 6
REMARK VINA RESULT:      -6.5      1.974      2.981
REMARK  Name = 56927770
REMARK  4 active torsions:
REMARK  status: ('A' for Active; 'I' for Inactive)
REMARK    1  A    between atoms: C_7  and  C_17
REMARK    2  A    between atoms: C_12  and  O_14
REMARK    3  A    between atoms: C_17  and  O_18
REMARK    4  A    between atoms: O_18  and  N_21
REMARK                            x       y       z     vdW  Elec       q    Type
REMARK                         _______ _______ _______ _____ _____    ______ ____
ROOT
ATOM      1  F   UNL     1     -35.537  23.120   6.244  0.00  0.00    -0.198 F 
ATOM      2  F   UNL     1     -35.541  22.633   1.526  0.00  0.00    -0.201 F 
ATOM      3  O   UNL     1     -34.135  25.454   6.052  0.00  0.00    -0.418 OA
ATOM      4  O   UNL     1     -33.122  27.253   7.032  0.00  0.00    -0.244 OA
ATOM      5  C   UNL     1     -34.117  25.238   3.631  0.00  0.00    +0.040 C 
ATOM      6  C   UNL     1     -34.483  24.753   4.882  0.00  0.00    +0.179 C 
ATOM      7  C   UNL     1     -33.043  27.147   4.666  0.00  0.00    +0.153 C 
ATOM      8  C   UNL     1     -33.370  26.484   3.550  0.00  0.00    +0.016 C 
ATOM      9  C   UNL     1     -34.480  24.514   2.493  0.00  0.00    +0.036 C 
ATOM     10  C   UNL     1     -35.198  23.565   5.027  0.00  0.00    +0.210 C 
ATOM     11  C   UNL     1     -33.421  26.648   6.007  0.00  0.00    +0.352 C 
ATOM     12  C   UNL     1     -35.556  22.848   3.887  0.00  0.00    +0.192 C 
ATOM     13  C   UNL     1     -35.198  23.321   2.623  0.00  0.00    +0.176 C 
ENDROOT
BRANCH  12  14
ATOM     14  O   UNL     1     -36.255  21.687   4.005  0.00  0.00    -0.502 OA
ATOM     15  H   UNL     1     -36.835  21.561   4.730  0.00  0.00    +0.292 HD
ENDBRANCH  12  14
BRANCH   7  17
ATOM     16  O   UNL     1     -32.787  29.503   4.595  0.00  0.00    -0.243 OA
ATOM     17  C   UNL     1     -32.290  28.394   4.482  0.00  0.00    +0.370 C 
BRANCH  17  18
ATOM     18  O   UNL     1     -31.006  28.080   4.177  0.00  0.00    -0.331 OA
BRANCH  18  21
ATOM     19  O   UNL     1     -29.816  30.605   3.501  0.00  0.00    -0.267 OA
ATOM     20  O   UNL     1     -29.860  27.270   6.682  0.00  0.00    -0.267 OA
ATOM     21  N   UNL     1     -30.097  28.819   4.964  0.00  0.00    -0.054 N 
ATOM     22  C   UNL     1     -28.720  29.405   6.705  0.00  0.00    +0.066 C 
ATOM     23  C   UNL     1     -28.705  30.511   5.649  0.00  0.00    +0.066 C 
ATOM     24  C   UNL     1     -29.600  30.013   4.547  0.00  0.00    +0.287 C 
ATOM     25  C   UNL     1     -29.622  28.340   6.143  0.00  0.00    +0.287 C 
ENDBRANCH  18  21
ENDBRANCH  17  18
ENDBRANCH   7  17
TORSDOF 4
ENDMDL
MODEL 7
REMARK VINA RESULT:      -6.4      1.900      3.433
REMARK  Name = 56927770
REMARK  4 active torsions:
REMARK  status: ('A' for Active; 'I' for Inactive)
REMARK    1  A    between atoms: C_7  and  C_17
REMARK    2  A    between atoms: C_12  and  O_14
REMARK    3  A    between atoms: C_17  and  O_18
REMARK    4  A    between atoms: O_18  and  N_21
REMARK                            x       y       z     vdW  Elec       q    Type
REMARK                         _______ _______ _______ _____ _____    ______ ____
ROOT
ATOM      1  F   UNL     1     -35.956  23.486   6.045  0.00  0.00    -0.198 F 
ATOM      2  F   UNL     1     -36.431  23.627   1.328  0.00  0.00    -0.201 F 
ATOM      3  O   UNL     1     -34.234  25.603   5.985  0.00  0.00    -0.418 OA
ATOM      4  O   UNL     1     -32.879  27.097   7.059  0.00  0.00    -0.244 OA
ATOM      5  C   UNL     1     -34.452  25.706   3.566  0.00  0.00    +0.040 C 
ATOM      6  C   UNL     1     -34.782  25.117   4.782  0.00  0.00    +0.179 C 
ATOM      7  C   UNL     1     -33.016  27.292   4.703  0.00  0.00    +0.153 C 
ATOM      8  C   UNL     1     -33.533  26.833   3.556  0.00  0.00    +0.016 C 
ATOM      9  C   UNL     1     -35.017  25.195   2.395  0.00  0.00    +0.036 C 
ATOM     10  C   UNL     1     -35.656  24.034   4.860  0.00  0.00    +0.210 C 
ATOM     11  C   UNL     1     -33.352  26.680   6.007  0.00  0.00    +0.352 C 
ATOM     12  C   UNL     1     -36.214  23.531   3.687  0.00  0.00    +0.192 C 
ATOM     13  C   UNL     1     -35.895  24.109   2.457  0.00  0.00    +0.176 C 
ENDROOT
BRANCH  12  14
ATOM     14  O   UNL     1     -37.070  22.475   3.739  0.00  0.00    -0.502 OA
ATOM     15  H   UNL     1     -37.336  22.047   2.949  0.00  0.00    +0.292 HD
ENDBRANCH  12  14
BRANCH   7  17
ATOM     16  O   UNL     1     -30.980  28.350   4.109  0.00  0.00    -0.243 OA
ATOM     17  C   UNL     1     -32.099  28.432   4.589  0.00  0.00    +0.370 C 
BRANCH  17  18
ATOM     18  O   UNL     1     -32.713  29.530   5.096  0.00  0.00    -0.331 OA
BRANCH  18  21
ATOM     19  O   UNL     1     -30.796  31.623   4.655  0.00  0.00    -0.267 OA
ATOM     20  O   UNL     1     -34.913  30.036   3.322  0.00  0.00    -0.267 OA
ATOM     21  N   UNL     1     -32.798  30.560   4.135  0.00  0.00    -0.054 N 
ATOM     22  C   UNL     1     -33.606  31.869   2.430  0.00  0.00    +0.066 C 
ATOM     23  C   UNL     1     -32.240  32.395   2.872  0.00  0.00    +0.066 C 
ATOM     24  C   UNL     1     -31.824  31.499   4.008  0.00  0.00    +0.287 C 
ATOM     25  C   UNL     1     -33.890  30.702   3.338  0.00  0.00    +0.287 C 
ENDBRANCH  18  21
ENDBRANCH  17  18
ENDBRANCH   7  17
TORSDOF 4
ENDMDL
MODEL 8
REMARK VINA RESULT:      -6.4      3.592      7.606
REMARK  Name = 56927770
REMARK  4 active torsions:
REMARK  status: ('A' for Active; 'I' for Inactive)
REMARK    1  A    between atoms: C_7  and  C_17
REMARK    2  A    between atoms: C_12  and  O_14
REMARK    3  A    between atoms: C_17  and  O_18
REMARK    4  A    between atoms: O_18  and  N_21
REMARK                            x       y       z     vdW  Elec       q    Type
REMARK                         _______ _______ _______ _____ _____    ______ ____
ROOT
ATOM      1  F   UNL     1     -33.740  26.636   7.086  0.00  0.00    -0.198 F 
ATOM      2  F   UNL     1     -32.071  28.282   2.962  0.00  0.00    -0.201 F 
ATOM      3  O   UNL     1     -34.796  24.447   5.841  0.00  0.00    -0.418 OA
ATOM      4  O   UNL     1     -35.953  22.479   5.921  0.00  0.00    -0.244 OA
ATOM      5  C   UNL     1     -33.956  25.260   3.710  0.00  0.00    +0.040 C 
ATOM      6  C   UNL     1     -34.104  25.412   5.084  0.00  0.00    +0.179 C 
ATOM      7  C   UNL     1     -35.181  23.172   3.791  0.00  0.00    +0.153 C 
ATOM      8  C   UNL     1     -34.526  24.086   3.066  0.00  0.00    +0.016 C 
ATOM      9  C   UNL     1     -33.263  26.239   2.994  0.00  0.00    +0.036 C 
ATOM     10  C   UNL     1     -33.582  26.514   5.761  0.00  0.00    +0.210 C 
ATOM     11  C   UNL     1     -35.352  23.315   5.254  0.00  0.00    +0.352 C 
ATOM     12  C   UNL     1     -32.893  27.485   5.039  0.00  0.00    +0.192 C 
ATOM     13  C   UNL     1     -32.734  27.349   3.658  0.00  0.00    +0.176 C 
ENDROOT
BRANCH  12  14
ATOM     14  O   UNL     1     -32.375  28.569   5.678  0.00  0.00    -0.502 OA
ATOM     15  H   UNL     1     -31.692  28.457   6.311  0.00  0.00    +0.292 HD
ENDBRANCH  12  14
BRANCH   7  17
ATOM     16  O   UNL     1     -35.691  20.879   3.473  0.00  0.00    -0.243 OA
ATOM     17  C   UNL     1     -35.720  22.024   3.052  0.00  0.00    +0.370 C 
BRANCH  17  18
ATOM     18  O   UNL     1     -36.225  22.469   1.874  0.00  0.00    -0.331 OA
BRANCH  18  21
ATOM     19  O   UNL     1     -37.723  20.320   0.695  0.00  0.00    -0.267 OA
ATOM     20  O   UNL     1     -38.138  24.391   2.815  0.00  0.00    -0.267 OA
ATOM     21  N   UNL     1     -37.631  22.343   1.839  0.00  0.00    -0.054 N 
ATOM     22  C   UNL     1     -39.855  22.820   2.149  0.00  0.00    +0.066 C 
ATOM     23  C   UNL     1     -39.717  21.469   1.445  0.00  0.00    +0.066 C 
ATOM     24  C   UNL     1     -38.236  21.275   1.258  0.00  0.00    +0.287 C 
ATOM     25  C   UNL     1     -38.445  23.317   2.322  0.00  0.00    +0.287 C 
ENDBRANCH  18  21
ENDBRANCH  17  18
ENDBRANCH   7  17
TORSDOF 4
ENDMDL
MODEL 9
REMARK VINA RESULT:      -6.3      1.978      2.232
REMARK  Name = 56927770
REMARK  4 active torsions:
REMARK  status: ('A' for Active; 'I' for Inactive)
REMARK    1  A    between atoms: C_7  and  C_17
REMARK    2  A    between atoms: C_12  and  O_14
REMARK    3  A    between atoms: C_17  and  O_18
REMARK    4  A    between atoms: O_18  and  N_21
REMARK                            x       y       z     vdW  Elec       q    Type
REMARK                         _______ _______ _______ _____ _____    ______ ____
ROOT
ATOM      1  F   UNL     1     -36.544  24.594   2.142  0.00  0.00    -0.198 F 
ATOM      2  F   UNL     1     -35.948  22.146   6.162  0.00  0.00    -0.201 F 
ATOM      3  O   UNL     1     -34.736  26.469   2.958  0.00  0.00    -0.418 OA
ATOM      4  O   UNL     1     -33.574  28.402   2.593  0.00  0.00    -0.244 OA
ATOM      5  C   UNL     1     -34.404  25.242   5.030  0.00  0.00    +0.040 C 
ATOM      6  C   UNL     1     -35.028  25.374   3.793  0.00  0.00    +0.179 C 
ATOM      7  C   UNL     1     -33.170  27.291   4.646  0.00  0.00    +0.153 C 
ATOM      8  C   UNL     1     -33.444  26.252   5.445  0.00  0.00    +0.016 C 
ATOM      9  C   UNL     1     -34.721  24.142   5.830  0.00  0.00    +0.036 C 
ATOM     10  C   UNL     1     -35.958  24.441   3.337  0.00  0.00    +0.210 C 
ATOM     11  C   UNL     1     -33.822  27.452   3.328  0.00  0.00    +0.352 C 
ATOM     12  C   UNL     1     -36.268  23.347   4.142  0.00  0.00    +0.192 C 
ATOM     13  C   UNL     1     -35.651  23.198   5.386  0.00  0.00    +0.176 C 
ENDROOT
BRANCH  12  14
ATOM     14  O   UNL     1     -37.172  22.424   3.717  0.00  0.00    -0.502 OA
ATOM     15  H   UNL     1     -37.654  21.918   4.341  0.00  0.00    +0.292 HD
ENDBRANCH  12  14
BRANCH   7  17
ATOM     16  O   UNL     1     -32.467  29.157   5.928  0.00  0.00    -0.243 OA
ATOM     17  C   UNL     1     -32.187  28.256   5.153  0.00  0.00    +0.370 C 
BRANCH  17  18
ATOM     18  O   UNL     1     -30.977  27.962   4.616  0.00  0.00    -0.331 OA
BRANCH  18  21
ATOM     19  O   UNL     1     -30.158  30.571   3.738  0.00  0.00    -0.267 OA
ATOM     20  O   UNL     1     -29.211  27.217   6.753  0.00  0.00    -0.267 OA
ATOM     21  N   UNL     1     -29.958  28.759   5.181  0.00  0.00    -0.054 N 
ATOM     22  C   UNL     1     -28.246  29.428   6.557  0.00  0.00    +0.066 C 
ATOM     23  C   UNL     1     -28.561  30.541   5.556  0.00  0.00    +0.066 C 
ATOM     24  C   UNL     1     -29.658  29.988   4.687  0.00  0.00    +0.287 C 
ATOM     25  C   UNL     1     -29.183  28.305   6.200  0.00  0.00    +0.287 C 
ENDBRANCH  18  21
ENDBRANCH  17  18
ENDBRANCH   7  17
TORSDOF 4
ENDMDL
