MODEL 1
REMARK VINA RESULT:      -5.6      0.000      0.000
REMARK  Name = 191813
REMARK  8 active torsions:
REMARK  status: ('A' for Active; 'I' for Inactive)
REMARK    1  A    between atoms: C_1  and  N_4
REMARK    2  A    between atoms: C_1  and  C_14
REMARK    3  A    between atoms: C_1  and  C_17
REMARK    4  A    between atoms: C_14  and  O_15
REMARK    5  A    between atoms: C_17  and  C_18
REMARK    6  A    between atoms: C_18  and  C_19
REMARK    7  A    between atoms: C_19  and  C_20
REMARK    8  A    between atoms: C_20  and  N_21
REMARK                            x       y       z     vdW  Elec       q    Type
REMARK                         _______ _______ _______ _____ _____    ______ ____
ROOT
ATOM      1  C   UNL     1     -35.411  21.246   1.744  0.00  0.00    +0.181 C 
ENDROOT
BRANCH   1   4
ATOM      2  O   UNL     1     -34.562  23.962   0.854  0.00  0.00    -0.269 OA
ATOM      3  O   UNL     1     -35.601  21.598   4.702  0.00  0.00    -0.269 OA
ATOM      4  N   UNL     1     -35.163  22.423   2.536  0.00  0.00    -0.214 N 
ATOM      5  C   UNL     1     -34.771  23.642   2.011  0.00  0.00    +0.256 C 
ATOM      6  C   UNL     1     -35.285  22.470   3.914  0.00  0.00    +0.256 C 
ATOM      7  C   UNL     1     -34.642  24.550   3.149  0.00  0.00    +0.058 C 
ATOM      8  C   UNL     1     -34.953  23.841   4.300  0.00  0.00    +0.058 C 
ATOM      9  C   UNL     1     -34.283  25.881   3.186  0.00  0.00    +0.005 C 
ATOM     10  C   UNL     1     -34.922  24.427   5.550  0.00  0.00    +0.005 C 
ATOM     11  C   UNL     1     -34.245  26.496   4.441  0.00  0.00    +0.000 C 
ATOM     12  C   UNL     1     -34.561  25.776   5.611  0.00  0.00    +0.000 C 
ENDBRANCH   1   4
BRANCH   1  14
ATOM     13  O   UNL     1     -37.829  21.546   1.643  0.00  0.00    -0.248 OA
ATOM     14  C   UNL     1     -36.862  20.871   1.975  0.00  0.00    +0.332 C 
BRANCH  14  15
ATOM     15  O   UNL     1     -36.981  19.700   2.654  0.00  0.00    -0.479 OA
ATOM     16  H   UNL     1     -36.690  19.641   3.543  0.00  0.00    +0.295 HD
ENDBRANCH  14  15
ENDBRANCH   1  14
BRANCH   1  17
ATOM     17  C   UNL     1     -34.498  20.080   2.127  0.00  0.00    +0.032 C 
BRANCH  17  18
ATOM     18  C   UNL     1     -33.551  19.618   1.013  0.00  0.00    +0.000 C 
BRANCH  18  19
ATOM     19  C   UNL     1     -32.770  18.347   1.372  0.00  0.00    -0.024 C 
BRANCH  19  20
ATOM     20  C   UNL     1     -33.028  17.194   0.398  0.00  0.00    -0.086 C 
BRANCH  20  21
ATOM     21  N   UNL     1     -34.446  16.873   0.300  0.00  0.00    +0.380 N 
ATOM     22  H   UNL     1     -34.987  17.735   0.239  0.00  0.00    -0.089 HD
ATOM     23  H   UNL     1     -34.734  16.348   1.126  0.00  0.00    -0.089 HD
ATOM     24  H   UNL     1     -34.611  16.310  -0.534  0.00  0.00    -0.089 HD
ENDBRANCH  20  21
ENDBRANCH  19  20
ENDBRANCH  18  19
ENDBRANCH  17  18
ENDBRANCH   1  17
TORSDOF 8
ENDMDL
MODEL 2
REMARK VINA RESULT:      -5.6      0.104      1.970
REMARK  Name = 191813
REMARK  8 active torsions:
REMARK  status: ('A' for Active; 'I' for Inactive)
REMARK    1  A    between atoms: C_1  and  N_4
REMARK    2  A    between atoms: C_1  and  C_14
REMARK    3  A    between atoms: C_1  and  C_17
REMARK    4  A    between atoms: C_14  and  O_15
REMARK    5  A    between atoms: C_17  and  C_18
REMARK    6  A    between atoms: C_18  and  C_19
REMARK    7  A    between atoms: C_19  and  C_20
REMARK    8  A    between atoms: C_20  and  N_21
REMARK                            x       y       z     vdW  Elec       q    Type
REMARK                         _______ _______ _______ _____ _____    ______ ____
ROOT
ATOM      1  C   UNL     1     -35.377  21.198   1.722  0.00  0.00    +0.181 C 
ENDROOT
BRANCH   1   4
ATOM      2  O   UNL     1     -35.508  21.495   4.685  0.00  0.00    -0.269 OA
ATOM      3  O   UNL     1     -34.692  23.971   0.855  0.00  0.00    -0.269 OA
ATOM      4  N   UNL     1     -35.160  22.374   2.526  0.00  0.00    -0.214 N 
ATOM      5  C   UNL     1     -35.247  22.394   3.907  0.00  0.00    +0.256 C 
ATOM      6  C   UNL     1     -34.843  23.618   2.010  0.00  0.00    +0.256 C 
ATOM      7  C   UNL     1     -34.948  23.767   4.310  0.00  0.00    +0.058 C 
ATOM      8  C   UNL     1     -34.704  24.507   3.162  0.00  0.00    +0.058 C 
ATOM      9  C   UNL     1     -34.894  24.330   5.568  0.00  0.00    +0.005 C 
ATOM     10  C   UNL     1     -34.393  25.851   3.212  0.00  0.00    +0.005 C 
ATOM     11  C   UNL     1     -34.580  25.691   5.643  0.00  0.00    +0.000 C 
ATOM     12  C   UNL     1     -34.331  26.443   4.477  0.00  0.00    +0.000 C 
ENDBRANCH   1   4
BRANCH   1  14
ATOM     13  O   UNL     1     -37.797  21.454   1.568  0.00  0.00    -0.248 OA
ATOM     14  C   UNL     1     -36.825  20.799   1.926  0.00  0.00    +0.332 C 
BRANCH  14  15
ATOM     15  O   UNL     1     -36.938  19.631   2.611  0.00  0.00    -0.479 OA
ATOM     16  H   UNL     1     -37.552  19.558   3.315  0.00  0.00    +0.295 HD
ENDBRANCH  14  15
ENDBRANCH   1  14
BRANCH   1  17
ATOM     17  C   UNL     1     -34.452  20.044   2.113  0.00  0.00    +0.032 C 
BRANCH  17  18
ATOM     18  C   UNL     1     -33.600  19.489   0.965  0.00  0.00    +0.000 C 
BRANCH  18  19
ATOM     19  C   UNL     1     -32.803  18.238   1.353  0.00  0.00    -0.024 C 
BRANCH  19  20
ATOM     20  C   UNL     1     -33.042  17.061   0.404  0.00  0.00    -0.086 C 
BRANCH  20  21
ATOM     21  N   UNL     1     -34.461  16.758   0.261  0.00  0.00    +0.380 N 
ATOM     22  H   UNL     1     -34.807  16.337   1.123  0.00  0.00    -0.089 HD
ATOM     23  H   UNL     1     -34.592  16.105  -0.512  0.00  0.00    -0.089 HD
ATOM     24  H   UNL     1     -34.975  17.617   0.071  0.00  0.00    -0.089 HD
ENDBRANCH  20  21
ENDBRANCH  19  20
ENDBRANCH  18  19
ENDBRANCH  17  18
ENDBRANCH   1  17
TORSDOF 8
ENDMDL
MODEL 3
REMARK VINA RESULT:      -5.6      3.500      4.651
REMARK  Name = 191813
REMARK  8 active torsions:
REMARK  status: ('A' for Active; 'I' for Inactive)
REMARK    1  A    between atoms: C_1  and  N_4
REMARK    2  A    between atoms: C_1  and  C_14
REMARK    3  A    between atoms: C_1  and  C_17
REMARK    4  A    between atoms: C_14  and  O_15
REMARK    5  A    between atoms: C_17  and  C_18
REMARK    6  A    between atoms: C_18  and  C_19
REMARK    7  A    between atoms: C_19  and  C_20
REMARK    8  A    between atoms: C_20  and  N_21
REMARK                            x       y       z     vdW  Elec       q    Type
REMARK                         _______ _______ _______ _____ _____    ______ ____
ROOT
ATOM      1  C   UNL     1     -36.693  24.859   2.759  0.00  0.00    +0.181 C 
ENDROOT
BRANCH   1   4
ATOM      2  O   UNL     1     -36.045  24.742   5.666  0.00  0.00    -0.269 OA
ATOM      3  O   UNL     1     -34.641  26.775   1.747  0.00  0.00    -0.269 OA
ATOM      4  N   UNL     1     -35.655  25.546   3.485  0.00  0.00    -0.214 N 
ATOM      5  C   UNL     1     -35.444  25.413   4.847  0.00  0.00    +0.256 C 
ATOM      6  C   UNL     1     -34.751  26.418   2.905  0.00  0.00    +0.256 C 
ATOM      7  C   UNL     1     -34.300  26.265   5.162  0.00  0.00    +0.058 C 
ATOM      8  C   UNL     1     -33.880  26.873   3.988  0.00  0.00    +0.058 C 
ATOM      9  C   UNL     1     -33.673  26.497   6.369  0.00  0.00    +0.005 C 
ATOM     10  C   UNL     1     -32.811  27.746   3.959  0.00  0.00    +0.005 C 
ATOM     11  C   UNL     1     -32.587  27.378   6.363  0.00  0.00    +0.000 C 
ATOM     12  C   UNL     1     -32.160  27.995   5.170  0.00  0.00    +0.000 C 
ENDBRANCH   1   4
BRANCH   1  14
ATOM     13  O   UNL     1     -38.360  26.619   2.495  0.00  0.00    -0.248 OA
ATOM     14  C   UNL     1     -37.984  25.597   3.056  0.00  0.00    +0.332 C 
BRANCH  14  15
ATOM     15  O   UNL     1     -38.677  25.018   4.072  0.00  0.00    -0.479 OA
ATOM     16  H   UNL     1     -38.265  24.884   4.903  0.00  0.00    +0.295 HD
ENDBRANCH  14  15
ENDBRANCH   1  14
BRANCH   1  17
ATOM     17  C   UNL     1     -36.819  23.391   3.169  0.00  0.00    +0.032 C 
BRANCH  17  18
ATOM     18  C   UNL     1     -35.549  22.557   2.959  0.00  0.00    +0.000 C 
BRANCH  18  19
ATOM     19  C   UNL     1     -35.470  21.333   3.879  0.00  0.00    -0.024 C 
BRANCH  19  20
ATOM     20  C   UNL     1     -34.929  21.666   5.271  0.00  0.00    -0.086 C 
BRANCH  20  21
ATOM     21  N   UNL     1     -35.999  21.799   6.253  0.00  0.00    +0.380 N 
ATOM     22  H   UNL     1     -36.673  22.493   5.929  0.00  0.00    -0.089 HD
ATOM     23  H   UNL     1     -35.606  22.098   7.145  0.00  0.00    -0.089 HD
ATOM     24  H   UNL     1     -36.466  20.901   6.371  0.00  0.00    -0.089 HD
ENDBRANCH  20  21
ENDBRANCH  19  20
ENDBRANCH  18  19
ENDBRANCH  17  18
ENDBRANCH   1  17
TORSDOF 8
ENDMDL
MODEL 4
REMARK VINA RESULT:      -5.6      2.878      5.899
REMARK  Name = 191813
REMARK  8 active torsions:
REMARK  status: ('A' for Active; 'I' for Inactive)
REMARK    1  A    between atoms: C_1  and  N_4
REMARK    2  A    between atoms: C_1  and  C_14
REMARK    3  A    between atoms: C_1  and  C_17
REMARK    4  A    between atoms: C_14  and  O_15
REMARK    5  A    between atoms: C_17  and  C_18
REMARK    6  A    between atoms: C_18  and  C_19
REMARK    7  A    between atoms: C_19  and  C_20
REMARK    8  A    between atoms: C_20  and  N_21
REMARK                            x       y       z     vdW  Elec       q    Type
REMARK                         _______ _______ _______ _____ _____    ______ ____
ROOT
ATOM      1  C   UNL     1     -35.113  22.744   4.522  0.00  0.00    +0.181 C 
ENDROOT
BRANCH   1   4
ATOM      2  O   UNL     1     -37.631  24.283   4.105  0.00  0.00    -0.269 OA
ATOM      3  O   UNL     1     -35.360  20.591   2.471  0.00  0.00    -0.269 OA
ATOM      4  N   UNL     1     -36.171  22.511   3.573  0.00  0.00    -0.214 N 
ATOM      5  C   UNL     1     -37.304  23.300   3.467  0.00  0.00    +0.256 C 
ATOM      6  C   UNL     1     -36.178  21.472   2.659  0.00  0.00    +0.256 C 
ATOM      7  C   UNL     1     -38.098  22.721   2.385  0.00  0.00    +0.058 C 
ATOM      8  C   UNL     1     -37.417  21.616   1.897  0.00  0.00    +0.058 C 
ATOM      9  C   UNL     1     -39.313  23.118   1.867  0.00  0.00    +0.005 C 
ATOM     10  C   UNL     1     -37.916  20.848   0.863  0.00  0.00    +0.005 C 
ATOM     11  C   UNL     1     -39.838  22.356   0.818  0.00  0.00    +0.000 C 
ATOM     12  C   UNL     1     -39.145  21.233   0.322  0.00  0.00    +0.000 C 
ENDBRANCH   1   4
BRANCH   1  14
ATOM     13  O   UNL     1     -36.058  22.225   6.709  0.00  0.00    -0.248 OA
ATOM     14  C   UNL     1     -35.417  21.874   5.726  0.00  0.00    +0.332 C 
BRANCH  14  15
ATOM     15  O   UNL     1     -34.845  20.646   5.621  0.00  0.00    -0.479 OA
ATOM     16  H   UNL     1     -35.298  19.890   5.940  0.00  0.00    +0.295 HD
ENDBRANCH  14  15
ENDBRANCH   1  14
BRANCH   1  17
ATOM     17  C   UNL     1     -35.018  24.212   4.943  0.00  0.00    +0.032 C 
BRANCH  17  18
ATOM     18  C   UNL     1     -33.931  25.016   4.220  0.00  0.00    +0.000 C 
BRANCH  18  19
ATOM     19  C   UNL     1     -34.421  25.667   2.922  0.00  0.00    -0.024 C 
BRANCH  19  20
ATOM     20  C   UNL     1     -35.164  26.985   3.160  0.00  0.00    -0.086 C 
BRANCH  20  21
ATOM     21  N   UNL     1     -36.596  26.852   2.921  0.00  0.00    +0.380 N 
ATOM     22  H   UNL     1     -36.929  25.979   3.329  0.00  0.00    -0.089 HD
ATOM     23  H   UNL     1     -36.774  26.848   1.917  0.00  0.00    -0.089 HD
ATOM     24  H   UNL     1     -37.087  27.636   3.350  0.00  0.00    -0.089 HD
ENDBRANCH  20  21
ENDBRANCH  19  20
ENDBRANCH  18  19
ENDBRANCH  17  18
ENDBRANCH   1  17
TORSDOF 8
ENDMDL
MODEL 5
REMARK VINA RESULT:      -5.6      2.858      5.951
REMARK  Name = 191813
REMARK  8 active torsions:
REMARK  status: ('A' for Active; 'I' for Inactive)
REMARK    1  A    between atoms: C_1  and  N_4
REMARK    2  A    between atoms: C_1  and  C_14
REMARK    3  A    between atoms: C_1  and  C_17
REMARK    4  A    between atoms: C_14  and  O_15
REMARK    5  A    between atoms: C_17  and  C_18
REMARK    6  A    between atoms: C_18  and  C_19
REMARK    7  A    between atoms: C_19  and  C_20
REMARK    8  A    between atoms: C_20  and  N_21
REMARK                            x       y       z     vdW  Elec       q    Type
REMARK                         _______ _______ _______ _____ _____    ______ ____
ROOT
ATOM      1  C   UNL     1     -35.151  22.790   4.590  0.00  0.00    +0.181 C 
ENDROOT
BRANCH   1   4
ATOM      2  O   UNL     1     -35.187  20.646   2.520  0.00  0.00    -0.269 OA
ATOM      3  O   UNL     1     -37.724  24.206   4.055  0.00  0.00    -0.269 OA
ATOM      4  N   UNL     1     -36.153  22.508   3.594  0.00  0.00    -0.214 N 
ATOM      5  C   UNL     1     -36.065  21.475   2.677  0.00  0.00    +0.256 C 
ATOM      6  C   UNL     1     -37.319  23.238   3.439  0.00  0.00    +0.256 C 
ATOM      7  C   UNL     1     -37.284  21.544   1.873  0.00  0.00    +0.058 C 
ATOM      8  C   UNL     1     -38.042  22.610   2.334  0.00  0.00    +0.058 C 
ATOM      9  C   UNL     1     -37.701  20.749   0.826  0.00  0.00    +0.005 C 
ATOM     10  C   UNL     1     -39.259  22.937   1.771  0.00  0.00    +0.005 C 
ATOM     11  C   UNL     1     -38.932  21.061   0.241  0.00  0.00    +0.000 C 
ATOM     12  C   UNL     1     -39.703  22.144   0.709  0.00  0.00    +0.000 C 
ENDBRANCH   1   4
BRANCH   1  14
ATOM     13  O   UNL     1     -36.109  22.170   6.744  0.00  0.00    -0.248 OA
ATOM     14  C   UNL     1     -35.440  21.873   5.762  0.00  0.00    +0.332 C 
BRANCH  14  15
ATOM     15  O   UNL     1     -34.822  20.670   5.629  0.00  0.00    -0.479 OA
ATOM     16  H   UNL     1     -35.310  19.878   5.741  0.00  0.00    +0.295 HD
ENDBRANCH  14  15
ENDBRANCH   1  14
BRANCH   1  17
ATOM     17  C   UNL     1     -35.175  24.251   5.045  0.00  0.00    +0.032 C 
BRANCH  17  18
ATOM     18  C   UNL     1     -33.997  25.095   4.545  0.00  0.00    +0.000 C 
BRANCH  18  19
ATOM     19  C   UNL     1     -34.150  25.547   3.088  0.00  0.00    -0.024 C 
BRANCH  19  20
ATOM     20  C   UNL     1     -35.337  26.491   2.878  0.00  0.00    -0.086 C 
BRANCH  20  21
ATOM     21  N   UNL     1     -35.255  27.667   3.735  0.00  0.00    +0.380 N 
ATOM     22  H   UNL     1     -36.178  27.875   4.115  0.00  0.00    -0.089 HD
ATOM     23  H   UNL     1     -34.924  28.463   3.189  0.00  0.00    -0.089 HD
ATOM     24  H   UNL     1     -34.605  27.486   4.499  0.00  0.00    -0.089 HD
ENDBRANCH  20  21
ENDBRANCH  19  20
ENDBRANCH  18  19
ENDBRANCH  17  18
ENDBRANCH   1  17
TORSDOF 8
ENDMDL
MODEL 6
REMARK VINA RESULT:      -5.5      3.565      6.038
REMARK  Name = 191813
REMARK  8 active torsions:
REMARK  status: ('A' for Active; 'I' for Inactive)
REMARK    1  A    between atoms: C_1  and  N_4
REMARK    2  A    between atoms: C_1  and  C_14
REMARK    3  A    between atoms: C_1  and  C_17
REMARK    4  A    between atoms: C_14  and  O_15
REMARK    5  A    between atoms: C_17  and  C_18
REMARK    6  A    between atoms: C_18  and  C_19
REMARK    7  A    between atoms: C_19  and  C_20
REMARK    8  A    between atoms: C_20  and  N_21
REMARK                            x       y       z     vdW  Elec       q    Type
REMARK                         _______ _______ _______ _____ _____    ______ ____
ROOT
ATOM      1  C   UNL     1     -36.953  26.343   2.577  0.00  0.00    +0.181 C 
ENDROOT
BRANCH   1   4
ATOM      2  O   UNL     1     -36.547  23.558   1.593  0.00  0.00    -0.269 OA
ATOM      3  O   UNL     1     -36.201  26.095   5.454  0.00  0.00    -0.269 OA
ATOM      4  N   UNL     1     -36.505  25.181   3.302  0.00  0.00    -0.214 N 
ATOM      5  C   UNL     1     -36.350  23.927   2.736  0.00  0.00    +0.256 C 
ATOM      6  C   UNL     1     -36.180  25.185   4.647  0.00  0.00    +0.256 C 
ATOM      7  C   UNL     1     -35.875  23.057   3.810  0.00  0.00    +0.058 C 
ATOM      8  C   UNL     1     -35.772  23.817   4.965  0.00  0.00    +0.058 C 
ATOM      9  C   UNL     1     -35.559  21.714   3.789  0.00  0.00    +0.005 C 
ATOM     10  C   UNL     1     -35.347  23.275   6.162  0.00  0.00    +0.005 C 
ATOM     11  C   UNL     1     -35.125  21.143   4.990  0.00  0.00    +0.000 C 
ATOM     12  C   UNL     1     -35.020  21.916   6.163  0.00  0.00    +0.000 C 
ENDBRANCH   1   4
BRANCH   1  14
ATOM     13  O   UNL     1     -38.921  25.819   1.236  0.00  0.00    -0.248 OA
ATOM     14  C   UNL     1     -38.432  26.140   2.313  0.00  0.00    +0.332 C 
BRANCH  14  15
ATOM     15  O   UNL     1     -39.185  26.406   3.413  0.00  0.00    -0.479 OA
ATOM     16  H   UNL     1     -39.273  25.762   4.087  0.00  0.00    +0.295 HD
ENDBRANCH  14  15
ENDBRANCH   1  14
BRANCH   1  17
ATOM     17  C   UNL     1     -36.203  26.532   1.257  0.00  0.00    +0.032 C 
BRANCH  17  18
ATOM     18  C   UNL     1     -34.908  27.346   1.368  0.00  0.00    +0.000 C 
BRANCH  18  19
ATOM     19  C   UNL     1     -34.916  28.339   2.536  0.00  0.00    -0.024 C 
BRANCH  19  20
ATOM     20  C   UNL     1     -33.584  28.386   3.288  0.00  0.00    -0.086 C 
BRANCH  20  21
ATOM     21  N   UNL     1     -33.628  27.608   4.521  0.00  0.00    +0.380 N 
ATOM     22  H   UNL     1     -33.936  28.206   5.288  0.00  0.00    -0.089 HD
ATOM     23  H   UNL     1     -32.698  27.243   4.726  0.00  0.00    -0.089 HD
ATOM     24  H   UNL     1     -34.280  26.833   4.411  0.00  0.00    -0.089 HD
ENDBRANCH  20  21
ENDBRANCH  19  20
ENDBRANCH  18  19
ENDBRANCH  17  18
ENDBRANCH   1  17
TORSDOF 8
ENDMDL
MODEL 7
REMARK VINA RESULT:      -5.4      1.223      1.257
REMARK  Name = 191813
REMARK  8 active torsions:
REMARK  status: ('A' for Active; 'I' for Inactive)
REMARK    1  A    between atoms: C_1  and  N_4
REMARK    2  A    between atoms: C_1  and  C_14
REMARK    3  A    between atoms: C_1  and  C_17
REMARK    4  A    between atoms: C_14  and  O_15
REMARK    5  A    between atoms: C_17  and  C_18
REMARK    6  A    between atoms: C_18  and  C_19
REMARK    7  A    between atoms: C_19  and  C_20
REMARK    8  A    between atoms: C_20  and  N_21
REMARK                            x       y       z     vdW  Elec       q    Type
REMARK                         _______ _______ _______ _____ _____    ______ ____
ROOT
ATOM      1  C   UNL     1     -35.283  21.019   1.564  0.00  0.00    +0.181 C 
ENDROOT
BRANCH   1   4
ATOM      2  O   UNL     1     -35.180  23.898   0.801  0.00  0.00    -0.269 OA
ATOM      3  O   UNL     1     -35.365  21.173   4.544  0.00  0.00    -0.269 OA
ATOM      4  N   UNL     1     -35.279  22.182   2.414  0.00  0.00    -0.214 N 
ATOM      5  C   UNL     1     -35.231  23.484   1.945  0.00  0.00    +0.256 C 
ATOM      6  C   UNL     1     -35.322  22.133   3.796  0.00  0.00    +0.256 C 
ATOM      7  C   UNL     1     -35.255  24.340   3.129  0.00  0.00    +0.058 C 
ATOM      8  C   UNL     1     -35.311  23.523   4.248  0.00  0.00    +0.058 C 
ATOM      9  C   UNL     1     -35.230  25.716   3.229  0.00  0.00    +0.005 C 
ATOM     10  C   UNL     1     -35.343  24.039   5.528  0.00  0.00    +0.005 C 
ATOM     11  C   UNL     1     -35.263  26.261   4.516  0.00  0.00    +0.000 C 
ATOM     12  C   UNL     1     -35.320  25.431   5.653  0.00  0.00    +0.000 C 
ENDBRANCH   1   4
BRANCH   1  14
ATOM     13  O   UNL     1     -37.581  20.862   0.766  0.00  0.00    -0.248 OA
ATOM     14  C   UNL     1     -36.709  20.504   1.548  0.00  0.00    +0.332 C 
BRANCH  14  15
ATOM     15  O   UNL     1     -36.939  19.616   2.550  0.00  0.00    -0.479 OA
ATOM     16  H   UNL     1     -36.307  19.505   3.233  0.00  0.00    +0.295 HD
ENDBRANCH  14  15
ENDBRANCH   1  14
BRANCH   1  17
ATOM     17  C   UNL     1     -34.335  19.927   2.064  0.00  0.00    +0.032 C 
BRANCH  17  18
ATOM     18  C   UNL     1     -33.827  18.974   0.975  0.00  0.00    +0.000 C 
BRANCH  18  19
ATOM     19  C   UNL     1     -32.515  18.274   1.348  0.00  0.00    -0.024 C 
BRANCH  19  20
ATOM     20  C   UNL     1     -31.375  18.587   0.375  0.00  0.00    -0.086 C 
BRANCH  20  21
ATOM     21  N   UNL     1     -31.308  20.008   0.056  0.00  0.00    +0.380 N 
ATOM     22  H   UNL     1     -32.132  20.479   0.429  0.00  0.00    -0.089 HD
ATOM     23  H   UNL     1     -31.277  20.128  -0.957  0.00  0.00    -0.089 HD
ATOM     24  H   UNL     1     -30.469  20.411   0.471  0.00  0.00    -0.089 HD
ENDBRANCH  20  21
ENDBRANCH  19  20
ENDBRANCH  18  19
ENDBRANCH  17  18
ENDBRANCH   1  17
TORSDOF 8
ENDMDL
MODEL 8
REMARK VINA RESULT:      -5.4      3.633      6.300
REMARK  Name = 191813
REMARK  8 active torsions:
REMARK  status: ('A' for Active; 'I' for Inactive)
REMARK    1  A    between atoms: C_1  and  N_4
REMARK    2  A    between atoms: C_1  and  C_14
REMARK    3  A    between atoms: C_1  and  C_17
REMARK    4  A    between atoms: C_14  and  O_15
REMARK    5  A    between atoms: C_17  and  C_18
REMARK    6  A    between atoms: C_18  and  C_19
REMARK    7  A    between atoms: C_19  and  C_20
REMARK    8  A    between atoms: C_20  and  N_21
REMARK                            x       y       z     vdW  Elec       q    Type
REMARK                         _______ _______ _______ _____ _____    ______ ____
ROOT
ATOM      1  C   UNL     1     -36.774  26.593   2.623  0.00  0.00    +0.181 C 
ENDROOT
BRANCH   1   4
ATOM      2  O   UNL     1     -36.020  26.278   5.490  0.00  0.00    -0.269 OA
ATOM      3  O   UNL     1     -36.461  23.809   1.595  0.00  0.00    -0.269 OA
ATOM      4  N   UNL     1     -36.369  25.404   3.329  0.00  0.00    -0.214 N 
ATOM      5  C   UNL     1     -36.041  25.375   4.674  0.00  0.00    +0.256 C 
ATOM      6  C   UNL     1     -36.260  24.155   2.744  0.00  0.00    +0.256 C 
ATOM      7  C   UNL     1     -35.703  23.986   4.977  0.00  0.00    +0.058 C 
ATOM      8  C   UNL     1     -35.836  23.248   3.810  0.00  0.00    +0.058 C 
ATOM      9  C   UNL     1     -35.312  23.408   6.166  0.00  0.00    +0.005 C 
ATOM     10  C   UNL     1     -35.583  21.891   3.771  0.00  0.00    +0.005 C 
ATOM     11  C   UNL     1     -35.050  22.034   6.151  0.00  0.00    +0.000 C 
ATOM     12  C   UNL     1     -35.186  21.284   4.965  0.00  0.00    +0.000 C 
ENDBRANCH   1   4
BRANCH   1  14
ATOM     13  O   UNL     1     -39.185  26.344   2.888  0.00  0.00    -0.248 OA
ATOM     14  C   UNL     1     -38.198  26.354   2.162  0.00  0.00    +0.332 C 
BRANCH  14  15
ATOM     15  O   UNL     1     -38.263  26.096   0.829  0.00  0.00    -0.479 OA
ATOM     16  H   UNL     1     -39.073  25.827   0.443  0.00  0.00    +0.295 HD
ENDBRANCH  14  15
ENDBRANCH   1  14
BRANCH   1  17
ATOM     17  C   UNL     1     -35.874  26.895   1.424  0.00  0.00    +0.032 C 
BRANCH  17  18
ATOM     18  C   UNL     1     -35.341  28.331   1.369  0.00  0.00    +0.000 C 
BRANCH  18  19
ATOM     19  C   UNL     1     -34.809  28.831   2.718  0.00  0.00    -0.024 C 
BRANCH  19  20
ATOM     20  C   UNL     1     -33.497  28.156   3.128  0.00  0.00    -0.086 C 
BRANCH  20  21
ATOM     21  N   UNL     1     -33.494  27.784   4.538  0.00  0.00    +0.380 N 
ATOM     22  H   UNL     1     -33.887  28.546   5.090  0.00  0.00    -0.089 HD
ATOM     23  H   UNL     1     -32.537  27.604   4.840  0.00  0.00    -0.089 HD
ATOM     24  H   UNL     1     -34.056  26.944   4.670  0.00  0.00    -0.089 HD
ENDBRANCH  20  21
ENDBRANCH  19  20
ENDBRANCH  18  19
ENDBRANCH  17  18
ENDBRANCH   1  17
TORSDOF 8
ENDMDL
MODEL 9
REMARK VINA RESULT:      -5.3      2.637      6.072
REMARK  Name = 191813
REMARK  8 active torsions:
REMARK  status: ('A' for Active; 'I' for Inactive)
REMARK    1  A    between atoms: C_1  and  N_4
REMARK    2  A    between atoms: C_1  and  C_14
REMARK    3  A    between atoms: C_1  and  C_17
REMARK    4  A    between atoms: C_14  and  O_15
REMARK    5  A    between atoms: C_17  and  C_18
REMARK    6  A    between atoms: C_18  and  C_19
REMARK    7  A    between atoms: C_19  and  C_20
REMARK    8  A    between atoms: C_20  and  N_21
REMARK                            x       y       z     vdW  Elec       q    Type
REMARK                         _______ _______ _______ _____ _____    ______ ____
ROOT
ATOM      1  C   UNL     1     -36.711  24.926   4.433  0.00  0.00    +0.181 C 
ENDROOT
BRANCH   1   4
ATOM      2  O   UNL     1     -35.797  25.011   1.597  0.00  0.00    -0.269 OA
ATOM      3  O   UNL     1     -36.183  22.081   5.165  0.00  0.00    -0.269 OA
ATOM      4  N   UNL     1     -36.154  23.869   3.628  0.00  0.00    -0.214 N 
ATOM      5  C   UNL     1     -35.760  24.025   2.310  0.00  0.00    +0.256 C 
ATOM      6  C   UNL     1     -35.952  22.576   4.078  0.00  0.00    +0.256 C 
ATOM      7  C   UNL     1     -35.251  22.722   1.884  0.00  0.00    +0.058 C 
ATOM      8  C   UNL     1     -35.367  21.846   2.953  0.00  0.00    +0.058 C 
ATOM      9  C   UNL     1     -34.732  22.327   0.669  0.00  0.00    +0.005 C 
ATOM     10  C   UNL     1     -34.970  20.527   2.863  0.00  0.00    +0.005 C 
ATOM     11  C   UNL     1     -34.322  20.995   0.555  0.00  0.00    +0.000 C 
ATOM     12  C   UNL     1     -34.439  20.105   1.642  0.00  0.00    +0.000 C 
ENDBRANCH   1   4
BRANCH   1  14
ATOM     13  O   UNL     1     -38.998  24.746   3.608  0.00  0.00    -0.248 OA
ATOM     14  C   UNL     1     -37.964  25.394   3.720  0.00  0.00    +0.332 C 
BRANCH  14  15
ATOM     15  O   UNL     1     -37.801  26.621   3.160  0.00  0.00    -0.479 OA
ATOM     16  H   UNL     1     -37.088  26.777   2.573  0.00  0.00    +0.295 HD
ENDBRANCH  14  15
ENDBRANCH   1  14
BRANCH   1  17
ATOM     17  C   UNL     1     -35.740  26.094   4.615  0.00  0.00    +0.032 C 
BRANCH  17  18
ATOM     18  C   UNL     1     -34.643  25.858   5.660  0.00  0.00    +0.000 C 
BRANCH  18  19
ATOM     19  C   UNL     1     -33.434  26.786   5.488  0.00  0.00    -0.024 C 
BRANCH  19  20
ATOM     20  C   UNL     1     -33.323  27.365   4.076  0.00  0.00    -0.086 C 
BRANCH  20  21
ATOM     21  N   UNL     1     -33.299  28.823   4.087  0.00  0.00    +0.380 N 
ATOM     22  H   UNL     1     -34.153  29.173   4.521  0.00  0.00    -0.089 HD
ATOM     23  H   UNL     1     -33.238  29.169   3.129  0.00  0.00    -0.089 HD
ATOM     24  H   UNL     1     -32.491  29.146   4.617  0.00  0.00    -0.089 HD
ENDBRANCH  20  21
ENDBRANCH  19  20
ENDBRANCH  18  19
ENDBRANCH  17  18
ENDBRANCH   1  17
TORSDOF 8
ENDMDL
