MODEL 1
REMARK VINA RESULT:      -6.8      0.000      0.000
REMARK  Name = 53801
REMARK  7 active torsions:
REMARK  status: ('A' for Active; 'I' for Inactive)
REMARK    1  A    between atoms: C_3  and  C_22
REMARK    2  A    between atoms: C_9  and  O_36
REMARK    3  A    between atoms: C_10  and  O_34
REMARK    4  A    between atoms: C_16  and  O_38
REMARK    5  A    between atoms: C_23  and  O_28
REMARK    6  A    between atoms: C_24  and  O_30
REMARK    7  A    between atoms: C_25  and  O_32
REMARK                            x       y       z     vdW  Elec       q    Type
REMARK                         _______ _______ _______ _____ _____    ______ ____
ROOT
ATOM      1  O   UNL     1     -38.268  24.509   2.262  0.00  0.00    -0.421 OA
ATOM      2  O   UNL     1     -38.973  26.625   2.736  0.00  0.00    -0.244 OA
ATOM      3  C   UNL     1     -36.197  22.581   2.510  0.00  0.00    +0.010 C 
ATOM      4  C   UNL     1     -37.400  22.296   1.827  0.00  0.00    +0.039 C 
ATOM      5  C   UNL     1     -37.562  21.016   1.258  0.00  0.00    +0.070 C 
ATOM      6  C   UNL     1     -35.188  21.624   2.624  0.00  0.00    +0.001 C 
ATOM      7  C   UNL     1     -38.457  23.228   1.680  0.00  0.00    +0.149 A 
ATOM      8  C   UNL     1     -39.650  22.949   1.003  0.00  0.00    +0.041 A 
ATOM      9  C   UNL     1     -36.537  20.063   1.381  0.00  0.00    +0.137 C 
ATOM     10  C   UNL     1     -38.748  20.717   0.576  0.00  0.00    +0.142 C 
ATOM     11  C   UNL     1     -35.358  20.365   2.060  0.00  0.00    +0.036 C 
ATOM     12  C   UNL     1     -39.771  21.666   0.452  0.00  0.00    +0.040 C 
ATOM     13  C   UNL     1     -40.682  23.992   0.908  0.00  0.00    +0.043 A 
ATOM     14  C   UNL     1     -40.456  25.247   1.499  0.00  0.00    +0.079 A 
ATOM     15  C   UNL     1     -39.195  25.540   2.214  0.00  0.00    +0.346 A 
ATOM     16  C   UNL     1     -41.912  23.804   0.248  0.00  0.00    +0.139 C 
ATOM     17  C   UNL     1     -41.418  26.268   1.429  0.00  0.00    +0.002 C 
ATOM     18  C   UNL     1     -42.623  26.051   0.769  0.00  0.00    -0.019 C 
ATOM     19  C   UNL     1     -42.870  24.820   0.179  0.00  0.00    +0.033 C 
ATOM     20  C   UNL     1     -43.643  27.136   0.696  0.00  0.00    +0.031 C 
ENDROOT
BRANCH   3  22
ATOM     21  O   UNL     1     -35.040  23.716   4.300  0.00  0.00    -0.349 OA
ATOM     22  C   UNL     1     -35.895  23.915   3.168  0.00  0.00    +0.167 C 
ATOM     23  C   UNL     1     -35.280  24.921   2.175  0.00  0.00    +0.171 C 
ATOM     24  C   UNL     1     -34.962  26.244   2.879  0.00  0.00    +0.169 C 
ATOM     25  C   UNL     1     -34.141  25.985   4.146  0.00  0.00    +0.167 C 
ATOM     26  C   UNL     1     -34.743  24.900   5.050  0.00  0.00    +0.145 C 
ATOM     27  C   UNL     1     -35.937  25.331   5.902  0.00  0.00    +0.035 C 
BRANCH  23  28
ATOM     28  O   UNL     1     -34.069  24.387   1.639  0.00  0.00    -0.379 OA
ATOM     29  H   UNL     1     -33.673  25.031   1.033  0.00  0.00    +0.211 HD
ENDBRANCH  23  28
BRANCH  24  30
ATOM     30  O   UNL     1     -36.175  26.914   3.211  0.00  0.00    -0.379 OA
ATOM     31  H   UNL     1     -36.912  26.284   3.178  0.00  0.00    +0.211 HD
ENDBRANCH  24  30
BRANCH  25  32
ATOM     32  O   UNL     1     -33.941  27.189   4.875  0.00  0.00    -0.379 OA
ATOM     33  H   UNL     1     -34.372  27.924   4.410  0.00  0.00    +0.211 HD
ENDBRANCH  25  32
ENDBRANCH   3  22
BRANCH  10  34
ATOM     34  O   UNL     1     -38.978  19.499  -0.000  0.00  0.00    -0.471 OA
ATOM     35  C   UNL     1     -39.380  19.500  -1.366  0.00  0.00    +0.252 C 
ENDBRANCH  10  34
BRANCH   9  36
ATOM     36  O   UNL     1     -36.629  18.806   0.852  0.00  0.00    -0.505 OA
ATOM     37  H   UNL     1     -36.023  18.529   0.194  0.00  0.00    +0.292 HD
ENDBRANCH   9  36
BRANCH  16  38
ATOM     38  O   UNL     1     -42.292  22.651  -0.375  0.00  0.00    -0.471 OA
ATOM     39  C   UNL     1     -43.503  22.691  -1.125  0.00  0.00    +0.252 C 
ENDBRANCH  16  38
TORSDOF 7
ENDMDL
MODEL 2
REMARK VINA RESULT:      -6.6      4.352      8.551
REMARK  Name = 53801
REMARK  7 active torsions:
REMARK  status: ('A' for Active; 'I' for Inactive)
REMARK    1  A    between atoms: C_3  and  C_22
REMARK    2  A    between atoms: C_9  and  O_36
REMARK    3  A    between atoms: C_10  and  O_34
REMARK    4  A    between atoms: C_16  and  O_38
REMARK    5  A    between atoms: C_23  and  O_28
REMARK    6  A    between atoms: C_24  and  O_30
REMARK    7  A    between atoms: C_25  and  O_32
REMARK                            x       y       z     vdW  Elec       q    Type
REMARK                         _______ _______ _______ _____ _____    ______ ____
ROOT
ATOM      1  O   UNL     1     -33.381  28.060   3.906  0.00  0.00    -0.421 OA
ATOM      2  O   UNL     1     -33.117  25.994   4.833  0.00  0.00    -0.244 OA
ATOM      3  C   UNL     1     -32.345  30.690   3.624  0.00  0.00    +0.010 C 
ATOM      4  C   UNL     1     -33.542  30.290   2.989  0.00  0.00    +0.039 C 
ATOM      5  C   UNL     1     -34.229  31.234   2.199  0.00  0.00    +0.070 C 
ATOM      6  C   UNL     1     -31.848  31.986   3.477  0.00  0.00    +0.001 C 
ATOM      7  C   UNL     1     -34.093  28.990   3.104  0.00  0.00    +0.149 A 
ATOM      8  C   UNL     1     -35.279  28.592   2.477  0.00  0.00    +0.041 A 
ATOM      9  C   UNL     1     -33.716  32.534   2.059  0.00  0.00    +0.137 C 
ATOM     10  C   UNL     1     -35.418  30.855   1.562  0.00  0.00    +0.142 C 
ATOM     11  C   UNL     1     -32.533  32.907   2.694  0.00  0.00    +0.036 C 
ATOM     12  C   UNL     1     -35.932  29.559   1.700  0.00  0.00    +0.040 C 
ATOM     13  C   UNL     1     -35.763  27.216   2.664  0.00  0.00    +0.043 A 
ATOM     14  C   UNL     1     -35.028  26.326   3.467  0.00  0.00    +0.079 A 
ATOM     15  C   UNL     1     -33.775  26.749   4.129  0.00  0.00    +0.346 A 
ATOM     16  C   UNL     1     -36.944  26.725   2.075  0.00  0.00    +0.139 C 
ATOM     17  C   UNL     1     -35.459  25.004   3.670  0.00  0.00    +0.002 C 
ATOM     18  C   UNL     1     -36.631  24.550   3.074  0.00  0.00    -0.019 C 
ATOM     19  C   UNL     1     -37.373  25.409   2.277  0.00  0.00    +0.033 C 
ATOM     20  C   UNL     1     -37.086  23.147   3.291  0.00  0.00    +0.031 C 
ENDROOT
BRANCH   3  22
ATOM     21  O   UNL     1     -30.131  30.164   4.432  0.00  0.00    -0.349 OA
ATOM     22  C   UNL     1     -31.508  29.776   4.501  0.00  0.00    +0.167 C 
ATOM     23  C   UNL     1     -32.010  29.757   5.958  0.00  0.00    +0.171 C 
ATOM     24  C   UNL     1     -31.126  28.848   6.818  0.00  0.00    +0.169 C 
ATOM     25  C   UNL     1     -29.651  29.218   6.635  0.00  0.00    +0.167 C 
ATOM     26  C   UNL     1     -29.228  29.325   5.163  0.00  0.00    +0.145 C 
ATOM     27  C   UNL     1     -28.994  27.999   4.440  0.00  0.00    +0.035 C 
BRANCH  23  28
ATOM     28  O   UNL     1     -31.967  31.078   6.497  0.00  0.00    -0.379 OA
ATOM     29  H   UNL     1     -31.489  31.067   7.341  0.00  0.00    +0.211 HD
ENDBRANCH  23  28
BRANCH  24  30
ATOM     30  O   UNL     1     -31.337  27.488   6.452  0.00  0.00    -0.379 OA
ATOM     31  H   UNL     1     -30.594  27.179   5.910  0.00  0.00    +0.211 HD
ENDBRANCH  24  30
BRANCH  25  32
ATOM     32  O   UNL     1     -28.810  28.308   7.332  0.00  0.00    -0.379 OA
ATOM     33  H   UNL     1     -27.881  28.529   7.160  0.00  0.00    +0.211 HD
ENDBRANCH  25  32
ENDBRANCH   3  22
BRANCH  10  34
ATOM     34  O   UNL     1     -36.139  31.712   0.779  0.00  0.00    -0.471 OA
ATOM     35  C   UNL     1     -37.483  31.968   1.174  0.00  0.00    +0.252 C 
ENDBRANCH  10  34
BRANCH   9  36
ATOM     36  O   UNL     1     -34.333  33.496   1.310  0.00  0.00    -0.505 OA
ATOM     37  H   UNL     1     -34.050  33.659   0.432  0.00  0.00    +0.292 HD
ENDBRANCH   9  36
BRANCH  16  38
ATOM     38  O   UNL     1     -37.772  27.452   1.271  0.00  0.00    -0.471 OA
ATOM     39  C   UNL     1     -38.903  26.776   0.728  0.00  0.00    +0.252 C 
ENDBRANCH  16  38
TORSDOF 7
ENDMDL
MODEL 3
REMARK VINA RESULT:      -6.2      4.107      9.644
REMARK  Name = 53801
REMARK  7 active torsions:
REMARK  status: ('A' for Active; 'I' for Inactive)
REMARK    1  A    between atoms: C_3  and  C_22
REMARK    2  A    between atoms: C_9  and  O_36
REMARK    3  A    between atoms: C_10  and  O_34
REMARK    4  A    between atoms: C_16  and  O_38
REMARK    5  A    between atoms: C_23  and  O_28
REMARK    6  A    between atoms: C_24  and  O_30
REMARK    7  A    between atoms: C_25  and  O_32
REMARK                            x       y       z     vdW  Elec       q    Type
REMARK                         _______ _______ _______ _____ _____    ______ ____
ROOT
ATOM      1  O   UNL     1     -34.079  27.654   3.721  0.00  0.00    -0.421 OA
ATOM      2  O   UNL     1     -32.949  26.421   5.270  0.00  0.00    -0.244 OA
ATOM      3  C   UNL     1     -36.198  27.734   1.830  0.00  0.00    +0.010 C 
ATOM      4  C   UNL     1     -35.360  28.849   2.056  0.00  0.00    +0.039 C 
ATOM      5  C   UNL     1     -35.594  30.025   1.314  0.00  0.00    +0.070 C 
ATOM      6  C   UNL     1     -37.235  27.787   0.897  0.00  0.00    +0.001 C 
ATOM      7  C   UNL     1     -34.293  28.851   2.988  0.00  0.00    +0.149 A 
ATOM      8  C   UNL     1     -33.461  29.954   3.213  0.00  0.00    +0.041 A 
ATOM      9  C   UNL     1     -36.642  30.064   0.379  0.00  0.00    +0.137 C 
ATOM     10  C   UNL     1     -34.773  31.140   1.525  0.00  0.00    +0.142 C 
ATOM     11  C   UNL     1     -37.457  28.952   0.173  0.00  0.00    +0.036 C 
ATOM     12  C   UNL     1     -33.727  31.103   2.456  0.00  0.00    +0.040 C 
ATOM     13  C   UNL     1     -32.381  29.847   4.205  0.00  0.00    +0.043 A 
ATOM     14  C   UNL     1     -32.203  28.644   4.910  0.00  0.00    +0.079 A 
ATOM     15  C   UNL     1     -33.084  27.480   4.671  0.00  0.00    +0.346 A 
ATOM     16  C   UNL     1     -31.495  30.901   4.499  0.00  0.00    +0.139 C 
ATOM     17  C   UNL     1     -31.182  28.504   5.864  0.00  0.00    +0.002 C 
ATOM     18  C   UNL     1     -30.323  29.565   6.132  0.00  0.00    -0.019 C 
ATOM     19  C   UNL     1     -30.479  30.762   5.449  0.00  0.00    +0.033 C 
ATOM     20  C   UNL     1     -29.240  29.414   7.145  0.00  0.00    +0.031 C 
ENDROOT
BRANCH   3  22
ATOM     21  O   UNL     1     -37.237  26.149   3.327  0.00  0.00    -0.349 OA
ATOM     22  C   UNL     1     -36.056  26.410   2.559  0.00  0.00    +0.167 C 
ATOM     23  C   UNL     1     -35.753  25.249   1.591  0.00  0.00    +0.171 C 
ATOM     24  C   UNL     1     -35.645  23.926   2.357  0.00  0.00    +0.169 C 
ATOM     25  C   UNL     1     -36.873  23.732   3.253  0.00  0.00    +0.167 C 
ATOM     26  C   UNL     1     -37.192  24.958   4.121  0.00  0.00    +0.145 C 
ATOM     27  C   UNL     1     -36.310  25.147   5.356  0.00  0.00    +0.035 C 
BRANCH  23  28
ATOM     28  O   UNL     1     -36.805  25.137   0.633  0.00  0.00    -0.379 OA
ATOM     29  H   UNL     1     -36.529  24.541  -0.081  0.00  0.00    +0.211 HD
ENDBRANCH  23  28
BRANCH  24  30
ATOM     30  O   UNL     1     -34.459  23.924   3.146  0.00  0.00    -0.379 OA
ATOM     31  H   UNL     1     -33.930  23.139   2.933  0.00  0.00    +0.211 HD
ENDBRANCH  24  30
BRANCH  25  32
ATOM     32  O   UNL     1     -36.732  22.571   4.060  0.00  0.00    -0.379 OA
ATOM     33  H   UNL     1     -36.479  21.818   3.503  0.00  0.00    +0.211 HD
ENDBRANCH  25  32
ENDBRANCH   3  22
BRANCH  10  34
ATOM     34  O   UNL     1     -34.939  32.314   0.846  0.00  0.00    -0.471 OA
ATOM     35  C   UNL     1     -34.304  33.467   1.390  0.00  0.00    +0.252 C 
ENDBRANCH  10  34
BRANCH   9  36
ATOM     36  O   UNL     1     -36.922  31.170  -0.373  0.00  0.00    -0.505 OA
ATOM     37  H   UNL     1     -37.456  31.094  -1.138  0.00  0.00    +0.292 HD
ENDBRANCH   9  36
BRANCH  16  38
ATOM     38  O   UNL     1     -31.528  32.132   3.910  0.00  0.00    -0.471 OA
ATOM     39  C   UNL     1     -30.322  32.590   3.303  0.00  0.00    +0.252 C 
ENDBRANCH  16  38
TORSDOF 7
ENDMDL
MODEL 4
REMARK VINA RESULT:      -6.2      3.530      7.363
REMARK  Name = 53801
REMARK  7 active torsions:
REMARK  status: ('A' for Active; 'I' for Inactive)
REMARK    1  A    between atoms: C_3  and  C_22
REMARK    2  A    between atoms: C_9  and  O_36
REMARK    3  A    between atoms: C_10  and  O_34
REMARK    4  A    between atoms: C_16  and  O_38
REMARK    5  A    between atoms: C_23  and  O_28
REMARK    6  A    between atoms: C_24  and  O_30
REMARK    7  A    between atoms: C_25  and  O_32
REMARK                            x       y       z     vdW  Elec       q    Type
REMARK                         _______ _______ _______ _____ _____    ______ ____
ROOT
ATOM      1  O   UNL     1     -34.160  27.502   3.694  0.00  0.00    -0.421 OA
ATOM      2  O   UNL     1     -32.965  26.541   5.382  0.00  0.00    -0.244 OA
ATOM      3  C   UNL     1     -34.445  29.727   1.951  0.00  0.00    +0.010 C 
ATOM      4  C   UNL     1     -35.336  28.631   1.911  0.00  0.00    +0.039 C 
ATOM      5  C   UNL     1     -36.390  28.658   0.976  0.00  0.00    +0.070 C 
ATOM      6  C   UNL     1     -34.598  30.813   1.088  0.00  0.00    +0.001 C 
ATOM      7  C   UNL     1     -35.230  27.504   2.762  0.00  0.00    +0.149 A 
ATOM      8  C   UNL     1     -36.112  26.417   2.725  0.00  0.00    +0.041 A 
ATOM      9  C   UNL     1     -36.532  29.759   0.113  0.00  0.00    +0.137 C 
ATOM     10  C   UNL     1     -37.284  27.581   0.922  0.00  0.00    +0.142 C 
ATOM     11  C   UNL     1     -35.640  30.829   0.170  0.00  0.00    +0.036 C 
ATOM     12  C   UNL     1     -37.146  26.483   1.782  0.00  0.00    +0.040 C 
ATOM     13  C   UNL     1     -35.910  25.297   3.656  0.00  0.00    +0.043 A 
ATOM     14  C   UNL     1     -34.837  25.335   4.564  0.00  0.00    +0.079 A 
ATOM     15  C   UNL     1     -33.906  26.484   4.601  0.00  0.00    +0.346 A 
ATOM     16  C   UNL     1     -36.744  24.163   3.693  0.00  0.00    +0.139 C 
ATOM     17  C   UNL     1     -34.612  24.284   5.469  0.00  0.00    +0.002 C 
ATOM     18  C   UNL     1     -35.455  23.177   5.481  0.00  0.00    -0.019 C 
ATOM     19  C   UNL     1     -36.520  23.117   4.594  0.00  0.00    +0.033 C 
ATOM     20  C   UNL     1     -35.215  22.064   6.442  0.00  0.00    +0.031 C 
ENDROOT
BRANCH   3  22
ATOM     21  O   UNL     1     -32.044  29.871   2.167  0.00  0.00    -0.349 OA
ATOM     22  C   UNL     1     -33.270  29.825   2.906  0.00  0.00    +0.167 C 
ATOM     23  C   UNL     1     -33.395  31.035   3.852  0.00  0.00    +0.171 C 
ATOM     24  C   UNL     1     -32.180  31.119   4.782  0.00  0.00    +0.169 C 
ATOM     25  C   UNL     1     -30.885  31.053   3.965  0.00  0.00    +0.167 C 
ATOM     26  C   UNL     1     -30.855  29.889   2.965  0.00  0.00    +0.145 C 
ATOM     27  C   UNL     1     -30.562  28.511   3.557  0.00  0.00    +0.035 C 
BRANCH  23  28
ATOM     28  O   UNL     1     -33.467  32.237   3.085  0.00  0.00    -0.379 OA
ATOM     29  H   UNL     1     -32.974  32.939   3.538  0.00  0.00    +0.211 HD
ENDBRANCH  23  28
BRANCH  24  30
ATOM     30  O   UNL     1     -32.220  30.050   5.721  0.00  0.00    -0.379 OA
ATOM     31  H   UNL     1     -33.086  29.613   5.678  0.00  0.00    +0.211 HD
ENDBRANCH  24  30
BRANCH  25  32
ATOM     32  O   UNL     1     -29.750  31.008   4.820  0.00  0.00    -0.379 OA
ATOM     33  H   UNL     1     -28.978  31.364   4.352  0.00  0.00    +0.211 HD
ENDBRANCH  25  32
ENDBRANCH   3  22
BRANCH  10  34
ATOM     34  O   UNL     1     -38.329  27.534   0.043  0.00  0.00    -0.471 OA
ATOM     35  C   UNL     1     -39.454  26.748   0.422  0.00  0.00    +0.252 C 
ENDBRANCH  10  34
BRANCH   9  36
ATOM     36  O   UNL     1     -37.531  29.848  -0.814  0.00  0.00    -0.505 OA
ATOM     37  H   UNL     1     -38.011  29.083  -1.061  0.00  0.00    +0.292 HD
ENDBRANCH   9  36
BRANCH  16  38
ATOM     38  O   UNL     1     -37.825  23.966   2.884  0.00  0.00    -0.471 OA
ATOM     39  C   UNL     1     -38.077  22.630   2.458  0.00  0.00    +0.252 C 
ENDBRANCH  16  38
TORSDOF 7
ENDMDL
MODEL 5
REMARK VINA RESULT:      -6.2      4.047      8.940
REMARK  Name = 53801
REMARK  7 active torsions:
REMARK  status: ('A' for Active; 'I' for Inactive)
REMARK    1  A    between atoms: C_3  and  C_22
REMARK    2  A    between atoms: C_9  and  O_36
REMARK    3  A    between atoms: C_10  and  O_34
REMARK    4  A    between atoms: C_16  and  O_38
REMARK    5  A    between atoms: C_23  and  O_28
REMARK    6  A    between atoms: C_24  and  O_30
REMARK    7  A    between atoms: C_25  and  O_32
REMARK                            x       y       z     vdW  Elec       q    Type
REMARK                         _______ _______ _______ _____ _____    ______ ____
ROOT
ATOM      1  O   UNL     1     -34.125  26.993   2.008  0.00  0.00    -0.421 OA
ATOM      2  O   UNL     1     -35.137  26.404   0.051  0.00  0.00    -0.244 OA
ATOM      3  C   UNL     1     -33.852  26.487   4.790  0.00  0.00    +0.010 C 
ATOM      4  C   UNL     1     -33.127  27.515   4.146  0.00  0.00    +0.039 C 
ATOM      5  C   UNL     1     -32.249  28.302   4.919  0.00  0.00    +0.070 C 
ATOM      6  C   UNL     1     -33.708  26.251   6.157  0.00  0.00    +0.001 C 
ATOM      7  C   UNL     1     -33.234  27.801   2.763  0.00  0.00    +0.149 A 
ATOM      8  C   UNL     1     -32.518  28.818   2.122  0.00  0.00    +0.041 A 
ATOM      9  C   UNL     1     -32.114  28.052   6.295  0.00  0.00    +0.137 C 
ATOM     10  C   UNL     1     -31.523  29.326   4.297  0.00  0.00    +0.142 C 
ATOM     11  C   UNL     1     -32.839  27.032   6.910  0.00  0.00    +0.036 C 
ATOM     12  C   UNL     1     -31.657  29.578   2.925  0.00  0.00    +0.040 C 
ATOM     13  C   UNL     1     -32.706  29.029   0.679  0.00  0.00    +0.043 A 
ATOM     14  C   UNL     1     -33.598  28.208  -0.032  0.00  0.00    +0.079 A 
ATOM     15  C   UNL     1     -34.354  27.132   0.647  0.00  0.00    +0.346 A 
ATOM     16  C   UNL     1     -32.031  30.027  -0.050  0.00  0.00    +0.139 C 
ATOM     17  C   UNL     1     -33.805  28.379  -1.411  0.00  0.00    +0.002 C 
ATOM     18  C   UNL     1     -33.122  29.375  -2.103  0.00  0.00    -0.019 C 
ATOM     19  C   UNL     1     -32.236  30.198  -1.423  0.00  0.00    +0.033 C 
ATOM     20  C   UNL     1     -33.343  29.555  -3.565  0.00  0.00    +0.031 C 
ENDROOT
BRANCH   3  22
ATOM     21  O   UNL     1     -34.727  24.243   4.613  0.00  0.00    -0.349 OA
ATOM     22  C   UNL     1     -34.828  25.568   4.078  0.00  0.00    +0.167 C 
ATOM     23  C   UNL     1     -36.275  26.092   4.156  0.00  0.00    +0.171 C 
ATOM     24  C   UNL     1     -37.235  25.127   3.453  0.00  0.00    +0.169 C 
ATOM     25  C   UNL     1     -37.022  23.700   3.969  0.00  0.00    +0.167 C 
ATOM     26  C   UNL     1     -35.550  23.265   3.967  0.00  0.00    +0.145 C 
ATOM     27  C   UNL     1     -34.976  22.867   2.607  0.00  0.00    +0.035 C 
BRANCH  23  28
ATOM     28  O   UNL     1     -36.668  26.210   5.524  0.00  0.00    -0.379 OA
ATOM     29  H   UNL     1     -35.989  25.813   6.090  0.00  0.00    +0.211 HD
ENDBRANCH  23  28
BRANCH  24  30
ATOM     30  O   UNL     1     -37.017  25.174   2.046  0.00  0.00    -0.379 OA
ATOM     31  H   UNL     1     -37.022  26.098   1.748  0.00  0.00    +0.211 HD
ENDBRANCH  24  30
BRANCH  25  32
ATOM     32  O   UNL     1     -37.818  22.774   3.242  0.00  0.00    -0.379 OA
ATOM     33  H   UNL     1     -38.686  23.168   3.057  0.00  0.00    +0.211 HD
ENDBRANCH  25  32
ENDBRANCH   3  22
BRANCH  10  34
ATOM     34  O   UNL     1     -30.653  30.129   4.978  0.00  0.00    -0.471 OA
ATOM     35  C   UNL     1     -30.847  31.535   4.858  0.00  0.00    +0.252 C 
ENDBRANCH  10  34
BRANCH   9  36
ATOM     36  O   UNL     1     -31.283  28.778   7.100  0.00  0.00    -0.505 OA
ATOM     37  H   UNL     1     -30.519  29.183   6.741  0.00  0.00    +0.292 HD
ENDBRANCH   9  36
BRANCH  16  38
ATOM     38  O   UNL     1     -31.134  30.906   0.482  0.00  0.00    -0.471 OA
ATOM     39  C   UNL     1     -31.451  32.292   0.383  0.00  0.00    +0.252 C 
ENDBRANCH  16  38
TORSDOF 7
ENDMDL
MODEL 6
REMARK VINA RESULT:      -6.1      3.609      7.838
REMARK  Name = 53801
REMARK  7 active torsions:
REMARK  status: ('A' for Active; 'I' for Inactive)
REMARK    1  A    between atoms: C_3  and  C_22
REMARK    2  A    between atoms: C_9  and  O_36
REMARK    3  A    between atoms: C_10  and  O_34
REMARK    4  A    between atoms: C_16  and  O_38
REMARK    5  A    between atoms: C_23  and  O_28
REMARK    6  A    between atoms: C_24  and  O_30
REMARK    7  A    between atoms: C_25  and  O_32
REMARK                            x       y       z     vdW  Elec       q    Type
REMARK                         _______ _______ _______ _____ _____    ______ ____
ROOT
ATOM      1  O   UNL     1     -34.519  24.302   0.718  0.00  0.00    -0.421 OA
ATOM      2  O   UNL     1     -34.679  23.549  -1.428  0.00  0.00    -0.244 OA
ATOM      3  C   UNL     1     -34.935  23.740   3.472  0.00  0.00    +0.010 C 
ATOM      4  C   UNL     1     -34.404  24.975   3.036  0.00  0.00    +0.039 C 
ATOM      5  C   UNL     1     -34.077  25.944   4.007  0.00  0.00    +0.070 C 
ATOM      6  C   UNL     1     -35.135  23.479   4.828  0.00  0.00    +0.001 C 
ATOM      7  C   UNL     1     -34.181  25.295   1.675  0.00  0.00    +0.149 A 
ATOM      8  C   UNL     1     -33.656  26.518   1.240  0.00  0.00    +0.041 A 
ATOM      9  C   UNL     1     -34.284  25.667   5.368  0.00  0.00    +0.137 C 
ATOM     10  C   UNL     1     -33.550  27.174   3.593  0.00  0.00    +0.142 C 
ATOM     11  C   UNL     1     -34.809  24.441   5.776  0.00  0.00    +0.036 C 
ATOM     12  C   UNL     1     -33.344  27.454   2.235  0.00  0.00    +0.040 C 
ATOM     13  C   UNL     1     -33.466  26.746  -0.200  0.00  0.00    +0.043 A 
ATOM     14  C   UNL     1     -33.813  25.736  -1.114  0.00  0.00    +0.079 A 
ATOM     15  C   UNL     1     -34.368  24.444  -0.653  0.00  0.00    +0.346 A 
ATOM     16  C   UNL     1     -32.946  27.942  -0.731  0.00  0.00    +0.139 C 
ATOM     17  C   UNL     1     -33.647  25.917  -2.497  0.00  0.00    +0.002 C 
ATOM     18  C   UNL     1     -33.130  27.111  -2.990  0.00  0.00    -0.019 C 
ATOM     19  C   UNL     1     -32.780  28.123  -2.107  0.00  0.00    +0.033 C 
ATOM     20  C   UNL     1     -32.955  27.302  -4.457  0.00  0.00    +0.031 C 
ENDROOT
BRANCH   3  22
ATOM     21  O   UNL     1     -34.973  21.352   3.116  0.00  0.00    -0.349 OA
ATOM     22  C   UNL     1     -35.327  22.613   2.535  0.00  0.00    +0.167 C 
ATOM     23  C   UNL     1     -36.825  22.658   2.174  0.00  0.00    +0.171 C 
ATOM     24  C   UNL     1     -37.191  21.491   1.251  0.00  0.00    +0.169 C 
ATOM     25  C   UNL     1     -36.698  20.169   1.851  0.00  0.00    +0.167 C 
ATOM     26  C   UNL     1     -35.227  20.210   2.289  0.00  0.00    +0.145 C 
ATOM     27  C   UNL     1     -34.195  20.097   1.167  0.00  0.00    +0.035 C 
BRANCH  23  28
ATOM     28  O   UNL     1     -37.608  22.562   3.364  0.00  0.00    -0.379 OA
ATOM     29  H   UNL     1     -37.575  23.405   3.841  0.00  0.00    +0.211 HD
ENDBRANCH  23  28
BRANCH  24  30
ATOM     30  O   UNL     1     -36.607  21.692  -0.032  0.00  0.00    -0.379 OA
ATOM     31  H   UNL     1     -35.948  22.402   0.020  0.00  0.00    +0.211 HD
ENDBRANCH  24  30
BRANCH  25  32
ATOM     32  O   UNL     1     -36.921  19.091   0.951  0.00  0.00    -0.379 OA
ATOM     33  H   UNL     1     -37.824  18.754   1.068  0.00  0.00    +0.211 HD
ENDBRANCH  25  32
ENDBRANCH   3  22
BRANCH  10  34
ATOM     34  O   UNL     1     -33.209  28.162   4.473  0.00  0.00    -0.471 OA
ATOM     35  C   UNL     1     -31.877  28.661   4.396  0.00  0.00    +0.252 C 
ENDBRANCH  10  34
BRANCH   9  36
ATOM     36  O   UNL     1     -33.990  26.562   6.358  0.00  0.00    -0.505 OA
ATOM     37  H   UNL     1     -33.851  26.262   7.234  0.00  0.00    +0.292 HD
ENDBRANCH   9  36
BRANCH  16  38
ATOM     38  O   UNL     1     -32.559  29.019   0.012  0.00  0.00    -0.471 OA
ATOM     39  C   UNL     1     -33.198  30.261  -0.270  0.00  0.00    +0.252 C 
ENDBRANCH  16  38
TORSDOF 7
ENDMDL
MODEL 7
REMARK VINA RESULT:      -6.1      1.727      5.651
REMARK  Name = 53801
REMARK  7 active torsions:
REMARK  status: ('A' for Active; 'I' for Inactive)
REMARK    1  A    between atoms: C_3  and  C_22
REMARK    2  A    between atoms: C_9  and  O_36
REMARK    3  A    between atoms: C_10  and  O_34
REMARK    4  A    between atoms: C_16  and  O_38
REMARK    5  A    between atoms: C_23  and  O_28
REMARK    6  A    between atoms: C_24  and  O_30
REMARK    7  A    between atoms: C_25  and  O_32
REMARK                            x       y       z     vdW  Elec       q    Type
REMARK                         _______ _______ _______ _____ _____    ______ ____
ROOT
ATOM      1  O   UNL     1     -36.659  22.587   1.367  0.00  0.00    -0.421 OA
ATOM      2  O   UNL     1     -34.493  21.913   1.600  0.00  0.00    -0.244 OA
ATOM      3  C   UNL     1     -38.555  24.669   1.745  0.00  0.00    +0.010 C 
ATOM      4  C   UNL     1     -38.918  23.426   1.180  0.00  0.00    +0.039 C 
ATOM      5  C   UNL     1     -40.261  23.229   0.798  0.00  0.00    +0.070 C 
ATOM      6  C   UNL     1     -39.498  25.682   1.924  0.00  0.00    +0.001 C 
ATOM      7  C   UNL     1     -38.005  22.362   0.974  0.00  0.00    +0.149 A 
ATOM      8  C   UNL     1     -38.361  21.130   0.416  0.00  0.00    +0.041 A 
ATOM      9  C   UNL     1     -41.198  24.258   0.985  0.00  0.00    +0.137 C 
ATOM     10  C   UNL     1     -40.638  22.002   0.237  0.00  0.00    +0.142 C 
ATOM     11  C   UNL     1     -40.818  25.477   1.544  0.00  0.00    +0.036 C 
ATOM     12  C   UNL     1     -39.705  20.974   0.050  0.00  0.00    +0.040 C 
ATOM     13  C   UNL     1     -37.332  20.093   0.249  0.00  0.00    +0.043 A 
ATOM     14  C   UNL     1     -36.011  20.356   0.650  0.00  0.00    +0.079 A 
ATOM     15  C   UNL     1     -35.636  21.659   1.241  0.00  0.00    +0.346 A 
ATOM     16  C   UNL     1     -37.596  18.824  -0.302  0.00  0.00    +0.139 C 
ATOM     17  C   UNL     1     -35.001  19.390   0.508  0.00  0.00    +0.002 C 
ATOM     18  C   UNL     1     -35.294  18.146  -0.041  0.00  0.00    -0.019 C 
ATOM     19  C   UNL     1     -36.590  17.863  -0.446  0.00  0.00    +0.033 C 
ATOM     20  C   UNL     1     -34.220  17.123  -0.191  0.00  0.00    +0.031 C 
ENDROOT
BRANCH   3  22
ATOM     21  O   UNL     1     -36.922  26.420   2.058  0.00  0.00    -0.349 OA
ATOM     22  C   UNL     1     -37.147  25.012   2.197  0.00  0.00    +0.167 C 
ATOM     23  C   UNL     1     -36.875  24.544   3.640  0.00  0.00    +0.171 C 
ATOM     24  C   UNL     1     -35.457  24.932   4.071  0.00  0.00    +0.169 C 
ATOM     25  C   UNL     1     -35.212  26.421   3.805  0.00  0.00    +0.167 C 
ATOM     26  C   UNL     1     -35.597  26.857   2.384  0.00  0.00    +0.145 C 
ATOM     27  C   UNL     1     -34.604  26.488   1.283  0.00  0.00    +0.035 C 
BRANCH  23  28
ATOM     28  O   UNL     1     -37.807  25.161   4.528  0.00  0.00    -0.379 OA
ATOM     29  H   UNL     1     -38.446  25.681   4.015  0.00  0.00    +0.211 HD
ENDBRANCH  23  28
BRANCH  24  30
ATOM     30  O   UNL     1     -34.507  24.146   3.359  0.00  0.00    -0.379 OA
ATOM     31  H   UNL     1     -34.169  23.444   3.937  0.00  0.00    +0.211 HD
ENDBRANCH  24  30
BRANCH  25  32
ATOM     32  O   UNL     1     -33.864  26.771   4.087  0.00  0.00    -0.379 OA
ATOM     33  H   UNL     1     -33.772  26.973   5.032  0.00  0.00    +0.211 HD
ENDBRANCH  25  32
ENDBRANCH   3  22
BRANCH  10  34
ATOM     34  O   UNL     1     -41.919  21.737  -0.158  0.00  0.00    -0.471 OA
ATOM     35  C   UNL     1     -42.102  20.653  -1.064  0.00  0.00    +0.252 C 
ENDBRANCH  10  34
BRANCH   9  36
ATOM     36  O   UNL     1     -42.514  24.132   0.639  0.00  0.00    -0.505 OA
ATOM     37  H   UNL     1     -43.181  24.469   1.203  0.00  0.00    +0.292 HD
ENDBRANCH   9  36
BRANCH  16  38
ATOM     38  O   UNL     1     -38.818  18.406  -0.743  0.00  0.00    -0.471 OA
ATOM     39  C   UNL     1     -38.935  17.036  -1.117  0.00  0.00    +0.252 C 
ENDBRANCH  16  38
TORSDOF 7
ENDMDL
MODEL 8
REMARK VINA RESULT:      -6.1      1.943      6.565
REMARK  Name = 53801
REMARK  7 active torsions:
REMARK  status: ('A' for Active; 'I' for Inactive)
REMARK    1  A    between atoms: C_3  and  C_22
REMARK    2  A    between atoms: C_9  and  O_36
REMARK    3  A    between atoms: C_10  and  O_34
REMARK    4  A    between atoms: C_16  and  O_38
REMARK    5  A    between atoms: C_23  and  O_28
REMARK    6  A    between atoms: C_24  and  O_30
REMARK    7  A    between atoms: C_25  and  O_32
REMARK                            x       y       z     vdW  Elec       q    Type
REMARK                         _______ _______ _______ _____ _____    ______ ____
ROOT
ATOM      1  O   UNL     1     -39.739  24.787   1.853  0.00  0.00    -0.421 OA
ATOM      2  O   UNL     1     -38.878  26.365   3.256  0.00  0.00    -0.244 OA
ATOM      3  C   UNL     1     -41.754  24.133  -0.040  0.00  0.00    +0.010 C 
ATOM      4  C   UNL     1     -40.752  23.208   0.330  0.00  0.00    +0.039 C 
ATOM      5  C   UNL     1     -40.767  21.930  -0.265  0.00  0.00    +0.070 C 
ATOM      6  C   UNL     1     -42.737  23.797  -0.971  0.00  0.00    +0.001 C 
ATOM      7  C   UNL     1     -39.730  23.493   1.269  0.00  0.00    +0.149 A 
ATOM      8  C   UNL     1     -38.737  22.579   1.638  0.00  0.00    +0.041 A 
ATOM      9  C   UNL     1     -41.763  21.606  -1.200  0.00  0.00    +0.137 C 
ATOM     10  C   UNL     1     -39.781  21.000   0.091  0.00  0.00    +0.142 C 
ATOM     11  C   UNL     1     -42.742  22.535  -1.551  0.00  0.00    +0.036 C 
ATOM     12  C   UNL     1     -38.787  21.320   1.024  0.00  0.00    +0.040 C 
ATOM     13  C   UNL     1     -37.723  22.979   2.625  0.00  0.00    +0.043 A 
ATOM     14  C   UNL     1     -37.767  24.270   3.179  0.00  0.00    +0.079 A 
ATOM     15  C   UNL     1     -38.817  25.236   2.788  0.00  0.00    +0.346 A 
ATOM     16  C   UNL     1     -36.688  22.129   3.058  0.00  0.00    +0.139 C 
ATOM     17  C   UNL     1     -36.817  24.689   4.125  0.00  0.00    +0.002 C 
ATOM     18  C   UNL     1     -35.805  23.825   4.532  0.00  0.00    -0.019 C 
ATOM     19  C   UNL     1     -35.741  22.546   3.999  0.00  0.00    +0.033 C 
ATOM     20  C   UNL     1     -34.798  24.271   5.536  0.00  0.00    +0.031 C 
ENDROOT
BRANCH   3  22
ATOM     21  O   UNL     1     -42.354  26.430  -0.482  0.00  0.00    -0.349 OA
ATOM     22  C   UNL     1     -41.853  25.539   0.522  0.00  0.00    +0.167 C 
ATOM     23  C   UNL     1     -42.720  25.591   1.796  0.00  0.00    +0.171 C 
ATOM     24  C   UNL     1     -42.821  27.028   2.318  0.00  0.00    +0.169 C 
ATOM     25  C   UNL     1     -43.252  27.972   1.190  0.00  0.00    +0.167 C 
ATOM     26  C   UNL     1     -42.422  27.807  -0.091  0.00  0.00    +0.145 C 
ATOM     27  C   UNL     1     -41.035  28.448  -0.072  0.00  0.00    +0.035 C 
BRANCH  23  28
ATOM     28  O   UNL     1     -44.035  25.120   1.500  0.00  0.00    -0.379 OA
ATOM     29  H   UNL     1     -44.659  25.861   1.534  0.00  0.00    +0.211 HD
ENDBRANCH  23  28
BRANCH  24  30
ATOM     30  O   UNL     1     -41.563  27.438   2.843  0.00  0.00    -0.379 OA
ATOM     31  H   UNL     1     -40.928  26.707   2.770  0.00  0.00    +0.211 HD
ENDBRANCH  24  30
BRANCH  25  32
ATOM     32  O   UNL     1     -43.234  29.324   1.626  0.00  0.00    -0.379 OA
ATOM     33  H   UNL     1     -42.853  29.372   2.518  0.00  0.00    +0.211 HD
ENDBRANCH  25  32
ENDBRANCH   3  22
BRANCH  10  34
ATOM     34  O   UNL     1     -39.729  19.743  -0.443  0.00  0.00    -0.471 OA
ATOM     35  C   UNL     1     -38.438  19.227  -0.750  0.00  0.00    +0.252 C 
ENDBRANCH  10  34
BRANCH   9  36
ATOM     36  O   UNL     1     -41.836  20.386  -1.812  0.00  0.00    -0.505 OA
ATOM     37  H   UNL     1     -42.094  19.632  -1.322  0.00  0.00    +0.292 HD
ENDBRANCH   9  36
BRANCH  16  38
ATOM     38  O   UNL     1     -36.499  20.850   2.622  0.00  0.00    -0.471 OA
ATOM     39  C   UNL     1     -35.173  20.484   2.249  0.00  0.00    +0.252 C 
ENDBRANCH  16  38
TORSDOF 7
ENDMDL
MODEL 9
REMARK VINA RESULT:      -6.1      5.173      8.453
REMARK  Name = 53801
REMARK  7 active torsions:
REMARK  status: ('A' for Active; 'I' for Inactive)
REMARK    1  A    between atoms: C_3  and  C_22
REMARK    2  A    between atoms: C_9  and  O_36
REMARK    3  A    between atoms: C_10  and  O_34
REMARK    4  A    between atoms: C_16  and  O_38
REMARK    5  A    between atoms: C_23  and  O_28
REMARK    6  A    between atoms: C_24  and  O_30
REMARK    7  A    between atoms: C_25  and  O_32
REMARK                            x       y       z     vdW  Elec       q    Type
REMARK                         _______ _______ _______ _____ _____    ______ ____
ROOT
ATOM      1  O   UNL     1     -33.008  30.543   3.254  0.00  0.00    -0.421 OA
ATOM      2  O   UNL     1     -31.727  32.400   3.585  0.00  0.00    -0.244 OA
ATOM      3  C   UNL     1     -33.345  27.767   3.755  0.00  0.00    +0.010 C 
ATOM      4  C   UNL     1     -34.270  28.500   2.979  0.00  0.00    +0.039 C 
ATOM      5  C   UNL     1     -35.385  27.822   2.446  0.00  0.00    +0.070 C 
ATOM      6  C   UNL     1     -33.524  26.403   3.992  0.00  0.00    +0.001 C 
ATOM      7  C   UNL     1     -34.140  29.884   2.705  0.00  0.00    +0.149 A 
ATOM      8  C   UNL     1     -35.054  30.613   1.936  0.00  0.00    +0.041 A 
ATOM      9  C   UNL     1     -35.552  26.450   2.693  0.00  0.00    +0.137 C 
ATOM     10  C   UNL     1     -36.313  28.534   1.674  0.00  0.00    +0.142 C 
ATOM     11  C   UNL     1     -34.627  25.745   3.462  0.00  0.00    +0.036 C 
ATOM     12  C   UNL     1     -36.148  29.903   1.425  0.00  0.00    +0.040 C 
ATOM     13  C   UNL     1     -34.820  32.048   1.713  0.00  0.00    +0.043 A 
ATOM     14  C   UNL     1     -33.687  32.662   2.274  0.00  0.00    +0.079 A 
ATOM     15  C   UNL     1     -32.722  31.890   3.087  0.00  0.00    +0.346 A 
ATOM     16  C   UNL     1     -35.683  32.862   0.954  0.00  0.00    +0.139 C 
ATOM     17  C   UNL     1     -33.430  34.030   2.082  0.00  0.00    +0.002 C 
ATOM     18  C   UNL     1     -34.302  34.807   1.327  0.00  0.00    -0.019 C 
ATOM     19  C   UNL     1     -35.428  34.224   0.764  0.00  0.00    +0.033 C 
ATOM     20  C   UNL     1     -34.028  36.258   1.125  0.00  0.00    +0.031 C 
ENDROOT
BRANCH   3  22
ATOM     21  O   UNL     1     -31.843  27.741   5.645  0.00  0.00    -0.349 OA
ATOM     22  C   UNL     1     -32.105  28.373   4.387  0.00  0.00    +0.167 C 
ATOM     23  C   UNL     1     -30.881  28.285   3.454  0.00  0.00    +0.171 C 
ATOM     24  C   UNL     1     -29.644  28.879   4.134  0.00  0.00    +0.169 C 
ATOM     25  C   UNL     1     -29.457  28.262   5.524  0.00  0.00    +0.167 C 
ATOM     26  C   UNL     1     -30.735  28.281   6.375  0.00  0.00    +0.145 C 
ATOM     27  C   UNL     1     -31.090  29.625   7.010  0.00  0.00    +0.035 C 
BRANCH  23  28
ATOM     28  O   UNL     1     -30.616  26.918   3.138  0.00  0.00    -0.379 OA
ATOM     29  H   UNL     1     -30.501  26.825   2.179  0.00  0.00    +0.211 HD
ENDBRANCH  23  28
BRANCH  24  30
ATOM     30  O   UNL     1     -29.788  30.292   4.243  0.00  0.00    -0.379 OA
ATOM     31  H   UNL     1     -30.574  30.497   4.773  0.00  0.00    +0.211 HD
ENDBRANCH  24  30
BRANCH  25  32
ATOM     32  O   UNL     1     -28.386  28.888   6.217  0.00  0.00    -0.379 OA
ATOM     33  H   UNL     1     -28.687  29.736   6.579  0.00  0.00    +0.211 HD
ENDBRANCH  25  32
ENDBRANCH   3  22
BRANCH  10  34
ATOM     34  O   UNL     1     -37.418  27.947   1.125  0.00  0.00    -0.471 OA
ATOM     35  C   UNL     1     -37.821  28.410  -0.160  0.00  0.00    +0.252 C 
ENDBRANCH  10  34
BRANCH   9  36
ATOM     36  O   UNL     1     -36.608  25.733   2.206  0.00  0.00    -0.505 OA
ATOM     37  H   UNL     1     -37.420  25.719   2.672  0.00  0.00    +0.292 HD
ENDBRANCH   9  36
BRANCH  16  38
ATOM     38  O   UNL     1     -36.823  32.429   0.343  0.00  0.00    -0.471 OA
ATOM     39  C   UNL     1     -38.056  32.952   0.831  0.00  0.00    +0.252 C 
ENDBRANCH  16  38
TORSDOF 7
ENDMDL
