MODEL 1
REMARK VINA RESULT:      -5.7      0.000      0.000
REMARK  Name = 195249
REMARK  8 active torsions:
REMARK  status: ('A' for Active; 'I' for Inactive)
REMARK    1  A    between atoms: C_2  and  C_13
REMARK    2  A    between atoms: CA_5  and  C_10
REMARK    3  A    between atoms: C_10  and  O_11
REMARK    4  A    between atoms: C_13  and  C_14
REMARK    5  A    between atoms: C_14  and  C_15
REMARK    6  A    between atoms: C_15  and  P_16
REMARK    7  A    between atoms: P_16  and  O_18
REMARK    8  A    between atoms: P_16  and  O_20
REMARK                            x       y       z     vdW  Elec       q    Type
REMARK                         _______ _______ _______ _____ _____    ______ ____
ROOT
ATOM      1  N   UNL     1     -36.931  22.918   3.922  0.00  0.00    +0.392 N 
ATOM      2  C   UNL     1     -35.084  24.971   4.907  0.00  0.00    -0.004 C 
ATOM      3  C   UNL     1     -34.795  23.472   5.049  0.00  0.00    -0.011 C 
ATOM      4  C   UNL     1     -36.597  25.201   4.817  0.00  0.00    -0.023 C 
ATOM      5  CA  UNL     1     -35.488  22.671   3.945  0.00  0.00    +0.040 C 
ATOM      6  C   UNL     1     -37.225  24.338   3.724  0.00  0.00    -0.081 C 
ATOM      7  H1  UNL     1     -37.333  22.616   4.809  0.00  0.00    -0.084 HD
ATOM      8  H2  UNL     1     -37.334  22.394   3.145  0.00  0.00    -0.084 HD
ENDROOT
BRANCH   5  10
ATOM      9  OXT UNL     1     -35.226  20.351   3.327  0.00  0.00    -0.253 OA
ATOM     10  C   UNL     1     -35.317  21.206   4.196  0.00  0.00    +0.293 C 
BRANCH  10  11
ATOM     11  O   UNL     1     -35.279  20.950   5.526  0.00  0.00    -0.482 OA
ATOM     12  H   UNL     1     -34.465  20.995   5.988  0.00  0.00    +0.295 HD
ENDBRANCH  10  11
ENDBRANCH   5  10
BRANCH   2  13
ATOM     13  C   UNL     1     -34.476  25.760   6.064  0.00  0.00    +0.001 C 
BRANCH  13  14
ATOM     14  C   UNL     1     -33.446  26.769   5.564  0.00  0.00    +0.013 C 
BRANCH  14  15
ATOM     15  C   UNL     1     -32.613  27.345   6.702  0.00  0.00    +0.116 C 
BRANCH  15  16
ATOM     16  P   UNL     1     -31.619  28.774   6.221  0.00  0.00    +0.337 P 
ATOM     17  O   UNL     1     -32.378  29.800   5.455  0.00  0.00    -0.258 OA
BRANCH  16  18
ATOM     18  O   UNL     1     -30.376  28.092   5.458  0.00  0.00    -0.324 OA
ATOM     19  H   UNL     1     -29.588  28.132   6.022  0.00  0.00    +0.220 HD
ENDBRANCH  16  18
BRANCH  16  20
ATOM     20  O   UNL     1     -30.997  29.253   7.626  0.00  0.00    -0.324 OA
ATOM     21  H   UNL     1     -31.707  29.578   8.201  0.00  0.00    +0.220 HD
ENDBRANCH  16  20
ENDBRANCH  15  16
ENDBRANCH  14  15
ENDBRANCH  13  14
ENDBRANCH   2  13
TORSDOF 8
ENDMDL
MODEL 2
REMARK VINA RESULT:      -5.4      1.592      1.981
REMARK  Name = 195249
REMARK  8 active torsions:
REMARK  status: ('A' for Active; 'I' for Inactive)
REMARK    1  A    between atoms: C_2  and  C_13
REMARK    2  A    between atoms: CA_5  and  C_10
REMARK    3  A    between atoms: C_10  and  O_11
REMARK    4  A    between atoms: C_13  and  C_14
REMARK    5  A    between atoms: C_14  and  C_15
REMARK    6  A    between atoms: C_15  and  P_16
REMARK    7  A    between atoms: P_16  and  O_18
REMARK    8  A    between atoms: P_16  and  O_20
REMARK                            x       y       z     vdW  Elec       q    Type
REMARK                         _______ _______ _______ _____ _____    ______ ____
ROOT
ATOM      1  N   UNL     1     -35.284  21.405   4.953  0.00  0.00    +0.392 N 
ATOM      2  C   UNL     1     -35.431  24.285   4.424  0.00  0.00    -0.004 C 
ATOM      3  C   UNL     1     -35.310  23.251   3.299  0.00  0.00    -0.011 C 
ATOM      4  C   UNL     1     -34.838  23.716   5.718  0.00  0.00    -0.023 C 
ATOM      5  CA  UNL     1     -35.902  21.905   3.724  0.00  0.00    +0.040 C 
ATOM      6  C   UNL     1     -35.446  22.355   6.055  0.00  0.00    -0.081 C 
ATOM      7  H1  UNL     1     -34.290  21.255   4.787  0.00  0.00    -0.084 HD
ATOM      8  H2  UNL     1     -35.744  20.532   5.211  0.00  0.00    -0.084 HD
ENDROOT
BRANCH   5  10
ATOM      9  OXT UNL     1     -34.699  20.905   1.884  0.00  0.00    -0.253 OA
ATOM     10  C   UNL     1     -35.634  20.877   2.671  0.00  0.00    +0.293 C 
BRANCH  10  11
ATOM     11  O   UNL     1     -36.574  19.901   2.705  0.00  0.00    -0.482 OA
ATOM     12  H   UNL     1     -37.312  19.941   2.130  0.00  0.00    +0.295 HD
ENDBRANCH  10  11
ENDBRANCH   5  10
BRANCH   2  13
ATOM     13  C   UNL     1     -34.750  25.597   4.039  0.00  0.00    +0.001 C 
BRANCH  13  14
ATOM     14  C   UNL     1     -33.900  26.135   5.187  0.00  0.00    +0.013 C 
BRANCH  14  15
ATOM     15  C   UNL     1     -32.906  27.189   4.715  0.00  0.00    +0.116 C 
BRANCH  15  16
ATOM     16  P   UNL     1     -32.105  28.086   6.063  0.00  0.00    +0.337 P 
ATOM     17  O   UNL     1     -32.377  29.550   6.051  0.00  0.00    -0.258 OA
BRANCH  16  18
ATOM     18  O   UNL     1     -30.564  27.648   5.903  0.00  0.00    -0.324 OA
ATOM     19  H   UNL     1     -30.152  28.169   5.196  0.00  0.00    +0.220 HD
ENDBRANCH  16  18
BRANCH  16  20
ATOM     20  O   UNL     1     -32.607  27.280   7.363  0.00  0.00    -0.324 OA
ATOM     21  H   UNL     1     -33.393  26.759   7.137  0.00  0.00    +0.220 HD
ENDBRANCH  16  20
ENDBRANCH  15  16
ENDBRANCH  14  15
ENDBRANCH  13  14
ENDBRANCH   2  13
TORSDOF 8
ENDMDL
MODEL 3
REMARK VINA RESULT:      -5.4      1.770      2.328
REMARK  Name = 195249
REMARK  8 active torsions:
REMARK  status: ('A' for Active; 'I' for Inactive)
REMARK    1  A    between atoms: C_2  and  C_13
REMARK    2  A    between atoms: CA_5  and  C_10
REMARK    3  A    between atoms: C_10  and  O_11
REMARK    4  A    between atoms: C_13  and  C_14
REMARK    5  A    between atoms: C_14  and  C_15
REMARK    6  A    between atoms: C_15  and  P_16
REMARK    7  A    between atoms: P_16  and  O_18
REMARK    8  A    between atoms: P_16  and  O_20
REMARK                            x       y       z     vdW  Elec       q    Type
REMARK                         _______ _______ _______ _____ _____    ______ ____
ROOT
ATOM      1  N   UNL     1     -37.008  22.775   3.686  0.00  0.00    +0.392 N 
ATOM      2  C   UNL     1     -35.310  24.947   4.686  0.00  0.00    -0.004 C 
ATOM      3  C   UNL     1     -34.953  23.470   4.885  0.00  0.00    -0.011 C 
ATOM      4  C   UNL     1     -36.827  25.097   4.525  0.00  0.00    -0.023 C 
ATOM      5  CA  UNL     1     -35.557  22.603   3.778  0.00  0.00    +0.040 C 
ATOM      6  C   UNL     1     -37.364  24.173   3.433  0.00  0.00    -0.081 C 
ATOM      7  H1  UNL     1     -37.433  22.479   4.564  0.00  0.00    -0.084 HD
ATOM      8  H2  UNL     1     -37.350  22.211   2.909  0.00  0.00    -0.084 HD
ENDROOT
BRANCH   5  10
ATOM      9  OXT UNL     1     -35.208  20.275   3.242  0.00  0.00    -0.253 OA
ATOM     10  C   UNL     1     -35.325  21.157   4.080  0.00  0.00    +0.293 C 
BRANCH  10  11
ATOM     11  O   UNL     1     -35.261  20.952   5.418  0.00  0.00    -0.482 OA
ATOM     12  H   UNL     1     -35.554  20.140   5.782  0.00  0.00    +0.295 HD
ENDBRANCH  10  11
ENDBRANCH   5  10
BRANCH   2  13
ATOM     13  C   UNL     1     -34.794  25.798   5.843  0.00  0.00    +0.001 C 
BRANCH  13  14
ATOM     14  C   UNL     1     -33.544  26.577   5.442  0.00  0.00    +0.013 C 
BRANCH  14  15
ATOM     15  C   UNL     1     -33.370  26.635   3.930  0.00  0.00    +0.116 C 
BRANCH  15  16
ATOM     16  P   UNL     1     -33.739  28.254   3.219  0.00  0.00    +0.337 P 
ATOM     17  O   UNL     1     -33.240  28.424   1.826  0.00  0.00    -0.258 OA
BRANCH  16  18
ATOM     18  O   UNL     1     -33.133  29.262   4.319  0.00  0.00    -0.324 OA
ATOM     19  H   UNL     1     -33.032  28.796   5.163  0.00  0.00    +0.220 HD
ENDBRANCH  16  18
BRANCH  16  20
ATOM     20  O   UNL     1     -35.332  28.368   3.421  0.00  0.00    -0.324 OA
ATOM     21  H   UNL     1     -35.546  28.267   4.362  0.00  0.00    +0.220 HD
ENDBRANCH  16  20
ENDBRANCH  15  16
ENDBRANCH  14  15
ENDBRANCH  13  14
ENDBRANCH   2  13
TORSDOF 8
ENDMDL
MODEL 4
REMARK VINA RESULT:      -5.3      4.067      5.934
REMARK  Name = 195249
REMARK  8 active torsions:
REMARK  status: ('A' for Active; 'I' for Inactive)
REMARK    1  A    between atoms: C_2  and  C_13
REMARK    2  A    between atoms: CA_5  and  C_10
REMARK    3  A    between atoms: C_10  and  O_11
REMARK    4  A    between atoms: C_13  and  C_14
REMARK    5  A    between atoms: C_14  and  C_15
REMARK    6  A    between atoms: C_15  and  P_16
REMARK    7  A    between atoms: P_16  and  O_18
REMARK    8  A    between atoms: P_16  and  O_20
REMARK                            x       y       z     vdW  Elec       q    Type
REMARK                         _______ _______ _______ _____ _____    ______ ____
ROOT
ATOM      1  N   UNL     1     -35.360  23.800   5.760  0.00  0.00    +0.392 N 
ATOM      2  C   UNL     1     -35.135  23.338   2.873  0.00  0.00    -0.004 C 
ATOM      3  C   UNL     1     -35.065  24.741   3.487  0.00  0.00    -0.011 C 
ATOM      4  C   UNL     1     -35.933  22.408   3.795  0.00  0.00    -0.023 C 
ATOM      5  CA  UNL     1     -34.548  24.687   4.926  0.00  0.00    +0.040 C 
ATOM      6  C   UNL     1     -35.387  22.438   5.221  0.00  0.00    -0.081 C 
ATOM      7  H1  UNL     1     -36.313  24.160   5.798  0.00  0.00    -0.084 HD
ATOM      8  H2  UNL     1     -34.948  23.768   6.693  0.00  0.00    -0.084 HD
ENDROOT
BRANCH   5  10
ATOM      9  OXT UNL     1     -33.777  26.546   6.260  0.00  0.00    -0.253 OA
ATOM     10  C   UNL     1     -34.635  26.044   5.550  0.00  0.00    +0.293 C 
BRANCH  10  11
ATOM     11  O   UNL     1     -35.803  26.648   5.219  0.00  0.00    -0.482 OA
ATOM     12  H   UNL     1     -36.068  27.428   5.663  0.00  0.00    +0.295 HD
ENDBRANCH  10  11
ENDBRANCH   5  10
BRANCH   2  13
ATOM     13  C   UNL     1     -35.745  23.380   1.475  0.00  0.00    +0.001 C 
BRANCH  13  14
ATOM     14  C   UNL     1     -36.476  24.697   1.230  0.00  0.00    +0.013 C 
BRANCH  14  15
ATOM     15  C   UNL     1     -37.966  24.587   1.529  0.00  0.00    +0.116 C 
BRANCH  15  16
ATOM     16  P   UNL     1     -38.564  25.827   2.699  0.00  0.00    +0.337 P 
ATOM     17  O   UNL     1     -39.949  26.297   2.415  0.00  0.00    -0.258 OA
BRANCH  16  18
ATOM     18  O   UNL     1     -37.408  26.946   2.640  0.00  0.00    -0.324 OA
ATOM     19  H   UNL     1     -36.591  26.549   2.298  0.00  0.00    +0.220 HD
ENDBRANCH  16  18
BRANCH  16  20
ATOM     20  O   UNL     1     -38.336  25.105   4.119  0.00  0.00    -0.324 OA
ATOM     21  H   UNL     1     -37.641  25.570   4.611  0.00  0.00    +0.220 HD
ENDBRANCH  16  20
ENDBRANCH  15  16
ENDBRANCH  14  15
ENDBRANCH  13  14
ENDBRANCH   2  13
TORSDOF 8
ENDMDL
MODEL 5
REMARK VINA RESULT:      -5.2      4.401      4.926
REMARK  Name = 195249
REMARK  8 active torsions:
REMARK  status: ('A' for Active; 'I' for Inactive)
REMARK    1  A    between atoms: C_2  and  C_13
REMARK    2  A    between atoms: CA_5  and  C_10
REMARK    3  A    between atoms: C_10  and  O_11
REMARK    4  A    between atoms: C_13  and  C_14
REMARK    5  A    between atoms: C_14  and  C_15
REMARK    6  A    between atoms: C_15  and  P_16
REMARK    7  A    between atoms: P_16  and  O_18
REMARK    8  A    between atoms: P_16  and  O_20
REMARK                            x       y       z     vdW  Elec       q    Type
REMARK                         _______ _______ _______ _____ _____    ______ ____
ROOT
ATOM      1  N   UNL     1     -35.392  21.319   4.906  0.00  0.00    +0.392 N 
ATOM      2  C   UNL     1     -35.269  24.163   4.202  0.00  0.00    -0.004 C 
ATOM      3  C   UNL     1     -35.195  23.053   3.147  0.00  0.00    -0.011 C 
ATOM      4  C   UNL     1     -34.778  23.628   5.552  0.00  0.00    -0.023 C 
ATOM      5  CA  UNL     1     -35.916  21.791   3.624  0.00  0.00    +0.040 C 
ATOM      6  C   UNL     1     -35.513  22.347   5.942  0.00  0.00    -0.081 C 
ATOM      7  H1  UNL     1     -34.408  21.077   4.793  0.00  0.00    -0.084 HD
ATOM      8  H2  UNL     1     -35.934  20.506   5.196  0.00  0.00    -0.084 HD
ENDROOT
BRANCH   5  10
ATOM      9  OXT UNL     1     -34.717  20.561   1.927  0.00  0.00    -0.253 OA
ATOM     10  C   UNL     1     -35.697  20.680   2.647  0.00  0.00    +0.293 C 
BRANCH  10  11
ATOM     11  O   UNL     1     -36.741  19.816   2.664  0.00  0.00    -0.482 OA
ATOM     12  H   UNL     1     -37.589  20.100   2.386  0.00  0.00    +0.295 HD
ENDBRANCH  10  11
ENDBRANCH   5  10
BRANCH   2  13
ATOM     13  C   UNL     1     -34.464  25.386   3.771  0.00  0.00    +0.001 C 
BRANCH  13  14
ATOM     14  C   UNL     1     -35.378  26.573   3.477  0.00  0.00    +0.013 C 
BRANCH  14  15
ATOM     15  C   UNL     1     -36.002  26.483   2.089  0.00  0.00    +0.116 C 
BRANCH  15  16
ATOM     16  P   UNL     1     -37.793  26.245   2.114  0.00  0.00    +0.337 P 
ATOM     17  O   UNL     1     -38.541  27.263   1.325  0.00  0.00    -0.258 OA
BRANCH  16  18
ATOM     18  O   UNL     1     -38.114  26.192   3.690  0.00  0.00    -0.324 OA
ATOM     19  H   UNL     1     -38.214  27.095   4.031  0.00  0.00    +0.220 HD
ENDBRANCH  16  18
BRANCH  16  20
ATOM     20  O   UNL     1     -37.948  24.717   1.632  0.00  0.00    -0.324 OA
ATOM     21  H   UNL     1     -37.119  24.240   1.798  0.00  0.00    +0.220 HD
ENDBRANCH  16  20
ENDBRANCH  15  16
ENDBRANCH  14  15
ENDBRANCH  13  14
ENDBRANCH   2  13
TORSDOF 8
ENDMDL
MODEL 6
REMARK VINA RESULT:      -5.2      2.534      3.348
REMARK  Name = 195249
REMARK  8 active torsions:
REMARK  status: ('A' for Active; 'I' for Inactive)
REMARK    1  A    between atoms: C_2  and  C_13
REMARK    2  A    between atoms: CA_5  and  C_10
REMARK    3  A    between atoms: C_10  and  O_11
REMARK    4  A    between atoms: C_13  and  C_14
REMARK    5  A    between atoms: C_14  and  C_15
REMARK    6  A    between atoms: C_15  and  P_16
REMARK    7  A    between atoms: P_16  and  O_18
REMARK    8  A    between atoms: P_16  and  O_20
REMARK                            x       y       z     vdW  Elec       q    Type
REMARK                         _______ _______ _______ _____ _____    ______ ____
ROOT
ATOM      1  N   UNL     1     -38.427  21.308   2.216  0.00  0.00    +0.392 N 
ATOM      2  C   UNL     1     -37.471  24.043   2.665  0.00  0.00    -0.004 C 
ATOM      3  C   UNL     1     -36.582  22.816   2.896  0.00  0.00    -0.011 C 
ATOM      4  C   UNL     1     -38.946  23.651   2.819  0.00  0.00    -0.023 C 
ATOM      5  CA  UNL     1     -37.018  21.646   2.011  0.00  0.00    +0.040 C 
ATOM      6  C   UNL     1     -39.296  22.453   1.939  0.00  0.00    -0.081 C 
ATOM      7  H1  UNL     1     -38.561  21.017   3.184  0.00  0.00    -0.084 HD
ATOM      8  H2  UNL     1     -38.673  20.554   1.574  0.00  0.00    -0.084 HD
ENDROOT
BRANCH   5  10
ATOM      9  OXT UNL     1     -35.274  20.396   3.118  0.00  0.00    -0.253 OA
ATOM     10  C   UNL     1     -36.236  20.421   2.365  0.00  0.00    +0.293 C 
BRANCH  10  11
ATOM     11  O   UNL     1     -36.740  19.333   1.734  0.00  0.00    -0.482 OA
ATOM     12  H   UNL     1     -36.165  18.737   1.298  0.00  0.00    +0.295 HD
ENDBRANCH  10  11
ENDBRANCH   5  10
BRANCH   2  13
ATOM     13  C   UNL     1     -37.102  25.177   3.619  0.00  0.00    +0.001 C 
BRANCH  13  14
ATOM     14  C   UNL     1     -36.314  24.655   4.818  0.00  0.00    +0.013 C 
BRANCH  14  15
ATOM     15  C   UNL     1     -35.691  25.786   5.626  0.00  0.00    +0.116 C 
BRANCH  15  16
ATOM     16  P   UNL     1     -34.137  26.399   4.938  0.00  0.00    +0.337 P 
ATOM     17  O   UNL     1     -34.311  27.525   3.980  0.00  0.00    -0.258 OA
BRANCH  16  18
ATOM     18  O   UNL     1     -33.468  25.059   4.346  0.00  0.00    -0.324 OA
ATOM     19  H   UNL     1     -34.134  24.354   4.310  0.00  0.00    +0.220 HD
ENDBRANCH  16  18
BRANCH  16  20
ATOM     20  O   UNL     1     -33.273  26.716   6.258  0.00  0.00    -0.324 OA
ATOM     21  H   UNL     1     -32.375  26.979   6.002  0.00  0.00    +0.220 HD
ENDBRANCH  16  20
ENDBRANCH  15  16
ENDBRANCH  14  15
ENDBRANCH  13  14
ENDBRANCH   2  13
TORSDOF 8
ENDMDL
MODEL 7
REMARK VINA RESULT:      -5.2      2.238      2.954
REMARK  Name = 195249
REMARK  8 active torsions:
REMARK  status: ('A' for Active; 'I' for Inactive)
REMARK    1  A    between atoms: C_2  and  C_13
REMARK    2  A    between atoms: CA_5  and  C_10
REMARK    3  A    between atoms: C_10  and  O_11
REMARK    4  A    between atoms: C_13  and  C_14
REMARK    5  A    between atoms: C_14  and  C_15
REMARK    6  A    between atoms: C_15  and  P_16
REMARK    7  A    between atoms: P_16  and  O_18
REMARK    8  A    between atoms: P_16  and  O_20
REMARK                            x       y       z     vdW  Elec       q    Type
REMARK                         _______ _______ _______ _____ _____    ______ ____
ROOT
ATOM      1  N   UNL     1     -36.176  22.429   1.332  0.00  0.00    +0.392 N 
ATOM      2  C   UNL     1     -35.306  23.452   3.938  0.00  0.00    -0.004 C 
ATOM      3  C   UNL     1     -35.539  21.959   3.680  0.00  0.00    -0.011 C 
ATOM      4  C   UNL     1     -36.155  24.284   2.970  0.00  0.00    -0.023 C 
ATOM      5  CA  UNL     1     -35.327  21.616   2.204  0.00  0.00    +0.040 C 
ATOM      6  C   UNL     1     -35.921  23.858   1.522  0.00  0.00    -0.081 C 
ATOM      7  H1  UNL     1     -37.154  22.235   1.546  0.00  0.00    -0.084 HD
ATOM      8  H2  UNL     1     -35.964  22.190   0.363  0.00  0.00    -0.084 HD
ENDROOT
BRANCH   5  10
ATOM      9  OXT UNL     1     -35.147  19.443   1.166  0.00  0.00    -0.253 OA
ATOM     10  C   UNL     1     -35.709  20.192   1.952  0.00  0.00    +0.293 C 
BRANCH  10  11
ATOM     11  O   UNL     1     -36.770  19.839   2.717  0.00  0.00    -0.482 OA
ATOM     12  H   UNL     1     -36.633  19.459   3.562  0.00  0.00    +0.295 HD
ENDBRANCH  10  11
ENDBRANCH   5  10
BRANCH   2  13
ATOM     13  C   UNL     1     -35.615  23.813   5.389  0.00  0.00    +0.001 C 
BRANCH  13  14
ATOM     14  C   UNL     1     -35.704  25.325   5.574  0.00  0.00    +0.013 C 
BRANCH  14  15
ATOM     15  C   UNL     1     -34.342  25.946   5.858  0.00  0.00    +0.116 C 
BRANCH  15  16
ATOM     16  P   UNL     1     -33.684  26.912   4.480  0.00  0.00    +0.337 P 
ATOM     17  O   UNL     1     -32.903  26.104   3.503  0.00  0.00    -0.258 OA
BRANCH  16  18
ATOM     18  O   UNL     1     -32.881  28.087   5.233  0.00  0.00    -0.324 OA
ATOM     19  H   UNL     1     -33.495  28.802   5.463  0.00  0.00    +0.220 HD
ENDBRANCH  16  18
BRANCH  16  20
ATOM     20  O   UNL     1     -34.999  27.642   3.909  0.00  0.00    -0.324 OA
ATOM     21  H   UNL     1     -34.915  27.755   2.949  0.00  0.00    +0.220 HD
ENDBRANCH  16  20
ENDBRANCH  15  16
ENDBRANCH  14  15
ENDBRANCH  13  14
ENDBRANCH   2  13
TORSDOF 8
ENDMDL
MODEL 8
REMARK VINA RESULT:      -5.1      3.320      6.971
REMARK  Name = 195249
REMARK  8 active torsions:
REMARK  status: ('A' for Active; 'I' for Inactive)
REMARK    1  A    between atoms: C_2  and  C_13
REMARK    2  A    between atoms: CA_5  and  C_10
REMARK    3  A    between atoms: C_10  and  O_11
REMARK    4  A    between atoms: C_13  and  C_14
REMARK    5  A    between atoms: C_14  and  C_15
REMARK    6  A    between atoms: C_15  and  P_16
REMARK    7  A    between atoms: P_16  and  O_18
REMARK    8  A    between atoms: P_16  and  O_20
REMARK                            x       y       z     vdW  Elec       q    Type
REMARK                         _______ _______ _______ _____ _____    ______ ____
ROOT
ATOM      1  N   UNL     1     -35.338  26.892   4.600  0.00  0.00    +0.392 N 
ATOM      2  C   UNL     1     -35.107  24.056   5.308  0.00  0.00    -0.004 C 
ATOM      3  C   UNL     1     -33.947  24.843   4.688  0.00  0.00    -0.011 C 
ATOM      4  C   UNL     1     -36.441  24.697   4.908  0.00  0.00    -0.023 C 
ATOM      5  CA  UNL     1     -34.053  26.333   5.022  0.00  0.00    +0.040 C 
ATOM      6  C   UNL     1     -36.457  26.190   5.232  0.00  0.00    -0.081 C 
ATOM      7  H1  UNL     1     -35.422  26.805   3.588  0.00  0.00    -0.084 HD
ATOM      8  H2  UNL     1     -35.372  27.871   4.884  0.00  0.00    -0.084 HD
ENDROOT
BRANCH   5  10
ATOM      9  OXT UNL     1     -32.269  26.629   3.422  0.00  0.00    -0.253 OA
ATOM     10  C   UNL     1     -33.001  27.096   4.281  0.00  0.00    +0.293 C 
BRANCH  10  11
ATOM     11  O   UNL     1     -32.966  28.386   4.695  0.00  0.00    -0.482 OA
ATOM     12  H   UNL     1     -32.615  29.049   4.133  0.00  0.00    +0.295 HD
ENDBRANCH  10  11
ENDBRANCH   5  10
BRANCH   2  13
ATOM     13  C   UNL     1     -35.058  22.587   4.892  0.00  0.00    +0.001 C 
BRANCH  13  14
ATOM     14  C   UNL     1     -36.022  22.307   3.742  0.00  0.00    +0.013 C 
BRANCH  14  15
ATOM     15  C   UNL     1     -35.288  22.055   2.431  0.00  0.00    +0.116 C 
BRANCH  15  16
ATOM     16  P   UNL     1     -35.474  20.370   1.807  0.00  0.00    +0.337 P 
ATOM     17  O   UNL     1     -34.220  19.569   1.866  0.00  0.00    -0.258 OA
BRANCH  16  18
ATOM     18  O   UNL     1     -36.097  20.610   0.342  0.00  0.00    -0.324 OA
ATOM     19  H   UNL     1     -36.890  21.164   0.415  0.00  0.00    +0.220 HD
ENDBRANCH  16  18
BRANCH  16  20
ATOM     20  O   UNL     1     -36.713  19.815   2.671  0.00  0.00    -0.324 OA
ATOM     21  H   UNL     1     -37.479  19.682   2.090  0.00  0.00    +0.220 HD
ENDBRANCH  16  20
ENDBRANCH  15  16
ENDBRANCH  14  15
ENDBRANCH  13  14
ENDBRANCH   2  13
TORSDOF 8
ENDMDL
MODEL 9
REMARK VINA RESULT:      -5.0      3.129      4.010
REMARK  Name = 195249
REMARK  8 active torsions:
REMARK  status: ('A' for Active; 'I' for Inactive)
REMARK    1  A    between atoms: C_2  and  C_13
REMARK    2  A    between atoms: CA_5  and  C_10
REMARK    3  A    between atoms: C_10  and  O_11
REMARK    4  A    between atoms: C_13  and  C_14
REMARK    5  A    between atoms: C_14  and  C_15
REMARK    6  A    between atoms: C_15  and  P_16
REMARK    7  A    between atoms: P_16  and  O_18
REMARK    8  A    between atoms: P_16  and  O_20
REMARK                            x       y       z     vdW  Elec       q    Type
REMARK                         _______ _______ _______ _____ _____    ______ ____
ROOT
ATOM      1  N   UNL     1     -37.129  21.386   1.190  0.00  0.00    +0.392 N 
ATOM      2  C   UNL     1     -35.636  22.322   3.533  0.00  0.00    -0.004 C 
ATOM      3  C   UNL     1     -35.439  20.922   2.942  0.00  0.00    -0.011 C 
ATOM      4  C   UNL     1     -37.040  22.835   3.195  0.00  0.00    -0.023 C 
ATOM      5  CA  UNL     1     -35.771  20.904   1.448  0.00  0.00    +0.040 C 
ATOM      6  C   UNL     1     -37.315  22.748   1.694  0.00  0.00    -0.081 C 
ATOM      7  H1  UNL     1     -37.794  20.767   1.652  0.00  0.00    -0.084 HD
ATOM      8  H2  UNL     1     -37.281  21.393   0.182  0.00  0.00    -0.084 HD
ENDROOT
BRANCH   5  10
ATOM      9  OXT UNL     1     -34.742  18.978   0.417  0.00  0.00    -0.253 OA
ATOM     10  C   UNL     1     -35.720  19.501   0.932  0.00  0.00    +0.293 C 
BRANCH  10  11
ATOM     11  O   UNL     1     -36.911  18.881   1.113  0.00  0.00    -0.482 OA
ATOM     12  H   UNL     1     -37.443  19.095   1.853  0.00  0.00    +0.295 HD
ENDBRANCH  10  11
ENDBRANCH   5  10
BRANCH   2  13
ATOM     13  C   UNL     1     -35.402  22.319   5.042  0.00  0.00    +0.001 C 
BRANCH  13  14
ATOM     14  C   UNL     1     -35.546  23.722   5.626  0.00  0.00    +0.013 C 
BRANCH  14  15
ATOM     15  C   UNL     1     -34.512  24.685   5.057  0.00  0.00    +0.116 C 
BRANCH  15  16
ATOM     16  P   UNL     1     -35.228  26.194   4.369  0.00  0.00    +0.337 P 
ATOM     17  O   UNL     1     -35.616  26.072   2.936  0.00  0.00    -0.258 OA
BRANCH  16  18
ATOM     18  O   UNL     1     -34.106  27.297   4.709  0.00  0.00    -0.324 OA
ATOM     19  H   UNL     1     -33.583  27.482   3.913  0.00  0.00    +0.220 HD
ENDBRANCH  16  18
BRANCH  16  20
ATOM     20  O   UNL     1     -36.419  26.517   5.403  0.00  0.00    -0.324 OA
ATOM     21  H   UNL     1     -36.045  26.859   6.230  0.00  0.00    +0.220 HD
ENDBRANCH  16  20
ENDBRANCH  15  16
ENDBRANCH  14  15
ENDBRANCH  13  14
ENDBRANCH   2  13
TORSDOF 8
ENDMDL
