MODEL 1
REMARK VINA RESULT:      -5.7      0.000      0.000
REMARK  Name = 192447
REMARK  4 active torsions:
REMARK  status: ('A' for Active; 'I' for Inactive)
REMARK    1  A    between atoms: C_1  and  C_16
REMARK    2  A    between atoms: C_2  and  N_11
REMARK    3  A    between atoms: C_3  and  N_14
REMARK    4  A    between atoms: C_16  and  O_17
REMARK                            x       y       z     vdW  Elec       q    Type
REMARK                         _______ _______ _______ _____ _____    ______ ____
ROOT
ATOM      1  C   UNL     1     -35.975  23.974   3.880  0.00  0.00    +0.117 C 
ATOM      2  C   UNL     1     -35.280  23.724   5.225  0.00  0.00    +0.153 C 
ATOM      3  C   UNL     1     -35.324  26.044   3.926  0.00  0.00    +0.144 C 
ATOM      4  C   UNL     1     -36.561  25.284   4.424  0.00  0.00    +0.040 C 
ATOM      5  C   UNL     1     -34.739  24.734   3.381  0.00  0.00    +0.040 C 
ATOM      6  C   UNL     1     -35.866  25.034   5.771  0.00  0.00    +0.031 C 
ATOM      7  C   UNL     1     -34.043  24.485   4.727  0.00  0.00    +0.031 C 
ATOM      8  C   UNL     1     -34.629  25.795   5.273  0.00  0.00    +0.030 C 
ENDROOT
BRANCH   2  11
ATOM      9  O   UNL     1     -36.241  22.144   6.639  0.00  0.00    -0.131 OA
ATOM     10  O   UNL     1     -34.232  21.739   5.831  0.00  0.00    -0.131 OA
ATOM     11  N   UNL     1     -35.248  22.481   5.937  0.00  0.00    +0.031 N 
ENDBRANCH   2  11
BRANCH   3  14
ATOM     12  O   UNL     1     -34.644  28.254   3.648  0.00  0.00    -0.131 OA
ATOM     13  O   UNL     1     -36.060  27.404   2.189  0.00  0.00    -0.131 OA
ATOM     14  N   UNL     1     -35.348  27.294   3.227  0.00  0.00    +0.030 N 
ENDBRANCH   3  14
BRANCH   1  16
ATOM     15  O   UNL     1     -37.958  22.830   3.112  0.00  0.00    -0.250 OA
ATOM     16  C   UNL     1     -36.741  22.954   3.079  0.00  0.00    +0.318 C 
BRANCH  16  17
ATOM     17  O   UNL     1     -35.872  22.214   2.335  0.00  0.00    -0.444 OA
ATOM     18  C   UNL     1     -35.796  20.827   2.678  0.00  0.00    +0.256 C 
ENDBRANCH  16  17
ENDBRANCH   1  16
TORSDOF 4
ENDMDL
MODEL 2
REMARK VINA RESULT:      -5.7      1.044      1.712
REMARK  Name = 192447
REMARK  4 active torsions:
REMARK  status: ('A' for Active; 'I' for Inactive)
REMARK    1  A    between atoms: C_1  and  C_16
REMARK    2  A    between atoms: C_2  and  N_11
REMARK    3  A    between atoms: C_3  and  N_14
REMARK    4  A    between atoms: C_16  and  O_17
REMARK                            x       y       z     vdW  Elec       q    Type
REMARK                         _______ _______ _______ _____ _____    ______ ____
ROOT
ATOM      1  C   UNL     1     -36.360  24.196   3.870  0.00  0.00    +0.117 C 
ATOM      2  C   UNL     1     -35.456  23.575   4.944  0.00  0.00    +0.153 C 
ATOM      3  C   UNL     1     -35.199  26.029   3.951  0.00  0.00    +0.144 C 
ATOM      4  C   UNL     1     -36.437  25.495   4.685  0.00  0.00    +0.040 C 
ATOM      5  C   UNL     1     -35.123  24.730   3.135  0.00  0.00    +0.040 C 
ATOM      6  C   UNL     1     -35.533  24.874   5.760  0.00  0.00    +0.031 C 
ATOM      7  C   UNL     1     -34.217  24.110   4.209  0.00  0.00    +0.031 C 
ATOM      8  C   UNL     1     -34.294  25.408   5.025  0.00  0.00    +0.030 C 
ENDROOT
BRANCH   2  11
ATOM      9  O   UNL     1     -35.184  21.267   4.812  0.00  0.00    -0.131 OA
ATOM     10  O   UNL     1     -36.071  22.112   6.643  0.00  0.00    -0.131 OA
ATOM     11  N   UNL     1     -35.582  22.255   5.488  0.00  0.00    +0.031 N 
ENDBRANCH   2  11
BRANCH   3  14
ATOM     12  O   UNL     1     -34.218  28.140   3.926  0.00  0.00    -0.131 OA
ATOM     13  O   UNL     1     -35.774  27.693   2.433  0.00  0.00    -0.131 OA
ATOM     14  N   UNL     1     -35.061  27.350   3.417  0.00  0.00    +0.030 N 
ENDBRANCH   3  14
BRANCH   1  16
ATOM     15  O   UNL     1     -37.446  22.518   2.515  0.00  0.00    -0.250 OA
ATOM     16  C   UNL     1     -37.532  23.524   3.207  0.00  0.00    +0.318 C 
BRANCH  16  17
ATOM     17  O   UNL     1     -38.674  24.209   3.499  0.00  0.00    -0.444 OA
ATOM     18  C   UNL     1     -39.749  24.037   2.570  0.00  0.00    +0.256 C 
ENDBRANCH  16  17
ENDBRANCH   1  16
TORSDOF 4
ENDMDL
MODEL 3
REMARK VINA RESULT:      -5.3      1.884      3.160
REMARK  Name = 192447
REMARK  4 active torsions:
REMARK  status: ('A' for Active; 'I' for Inactive)
REMARK    1  A    between atoms: C_1  and  C_16
REMARK    2  A    between atoms: C_2  and  N_11
REMARK    3  A    between atoms: C_3  and  N_14
REMARK    4  A    between atoms: C_16  and  O_17
REMARK                            x       y       z     vdW  Elec       q    Type
REMARK                         _______ _______ _______ _____ _____    ______ ____
ROOT
ATOM      1  C   UNL     1     -35.356  24.256   4.788  0.00  0.00    +0.117 C 
ATOM      2  C   UNL     1     -36.204  24.844   3.651  0.00  0.00    +0.153 C 
ATOM      3  C   UNL     1     -34.337  26.160   5.014  0.00  0.00    +0.144 C 
ATOM      4  C   UNL     1     -34.098  24.893   4.180  0.00  0.00    +0.040 C 
ATOM      5  C   UNL     1     -35.594  25.522   5.622  0.00  0.00    +0.040 C 
ATOM      6  C   UNL     1     -34.947  25.481   3.042  0.00  0.00    +0.031 C 
ATOM      7  C   UNL     1     -36.442  26.112   4.485  0.00  0.00    +0.031 C 
ATOM      8  C   UNL     1     -35.185  26.748   3.876  0.00  0.00    +0.030 C 
ENDROOT
BRANCH   2  11
ATOM      9  O   UNL     1     -38.326  23.908   3.452  0.00  0.00    -0.131 OA
ATOM     10  O   UNL     1     -36.972  23.807   1.717  0.00  0.00    -0.131 OA
ATOM     11  N   UNL     1     -37.213  24.148   2.909  0.00  0.00    +0.031 N 
ENDBRANCH   2  11
BRANCH   3  14
ATOM     12  O   UNL     1     -32.882  27.956   5.289  0.00  0.00    -0.131 OA
ATOM     13  O   UNL     1     -32.928  26.399   6.847  0.00  0.00    -0.131 OA
ATOM     14  N   UNL     1     -33.331  26.868   5.746  0.00  0.00    +0.030 N 
ENDBRANCH   3  14
BRANCH   1  16
ATOM     15  O   UNL     1     -36.064  22.527   6.317  0.00  0.00    -0.250 OA
ATOM     16  C   UNL     1     -35.440  22.849   5.314  0.00  0.00    +0.318 C 
BRANCH  16  17
ATOM     17  O   UNL     1     -34.722  22.017   4.507  0.00  0.00    -0.444 OA
ATOM     18  C   UNL     1     -35.495  21.201   3.622  0.00  0.00    +0.256 C 
ENDBRANCH  16  17
ENDBRANCH   1  16
TORSDOF 4
ENDMDL
MODEL 4
REMARK VINA RESULT:      -5.2      2.073      2.957
REMARK  Name = 192447
REMARK  4 active torsions:
REMARK  status: ('A' for Active; 'I' for Inactive)
REMARK    1  A    between atoms: C_1  and  C_16
REMARK    2  A    between atoms: C_2  and  N_11
REMARK    3  A    between atoms: C_3  and  N_14
REMARK    4  A    between atoms: C_16  and  O_17
REMARK                            x       y       z     vdW  Elec       q    Type
REMARK                         _______ _______ _______ _____ _____    ______ ____
ROOT
ATOM      1  C   UNL     1     -35.011  25.376   3.302  0.00  0.00    +0.117 C 
ATOM      2  C   UNL     1     -36.025  24.752   4.270  0.00  0.00    +0.153 C 
ATOM      3  C   UNL     1     -33.987  26.310   4.973  0.00  0.00    +0.144 C 
ATOM      4  C   UNL     1     -35.133  26.719   4.036  0.00  0.00    +0.040 C 
ATOM      5  C   UNL     1     -33.864  24.969   4.237  0.00  0.00    +0.040 C 
ATOM      6  C   UNL     1     -36.148  26.095   5.006  0.00  0.00    +0.031 C 
ATOM      7  C   UNL     1     -34.878  24.345   5.207  0.00  0.00    +0.031 C 
ATOM      8  C   UNL     1     -35.002  25.687   5.942  0.00  0.00    +0.030 C 
ENDROOT
BRANCH   2  11
ATOM      9  O   UNL     1     -36.937  22.673   3.757  0.00  0.00    -0.131 OA
ATOM     10  O   UNL     1     -38.271  24.427   3.764  0.00  0.00    -0.131 OA
ATOM     11  N   UNL     1     -37.127  23.912   3.907  0.00  0.00    +0.031 N 
ENDBRANCH   2  11
BRANCH   3  14
ATOM     12  O   UNL     1     -32.060  27.518   4.473  0.00  0.00    -0.131 OA
ATOM     13  O   UNL     1     -32.788  27.523   6.552  0.00  0.00    -0.131 OA
ATOM     14  N   UNL     1     -32.891  27.150   5.351  0.00  0.00    +0.030 N 
ENDBRANCH   3  14
BRANCH   1  16
ATOM     15  O   UNL     1     -35.722  25.841   1.042  0.00  0.00    -0.250 OA
ATOM     16  C   UNL     1     -35.003  25.211   1.805  0.00  0.00    +0.318 C 
BRANCH  16  17
ATOM     17  O   UNL     1     -34.085  24.266   1.457  0.00  0.00    -0.444 OA
ATOM     18  C   UNL     1     -34.621  22.986   1.108  0.00  0.00    +0.256 C 
ENDBRANCH  16  17
ENDBRANCH   1  16
TORSDOF 4
ENDMDL
MODEL 5
REMARK VINA RESULT:      -5.2      1.371      4.388
REMARK  Name = 192447
REMARK  4 active torsions:
REMARK  status: ('A' for Active; 'I' for Inactive)
REMARK    1  A    between atoms: C_1  and  C_16
REMARK    2  A    between atoms: C_2  and  N_11
REMARK    3  A    between atoms: C_3  and  N_14
REMARK    4  A    between atoms: C_16  and  O_17
REMARK                            x       y       z     vdW  Elec       q    Type
REMARK                         _______ _______ _______ _____ _____    ______ ____
ROOT
ATOM      1  C   UNL     1     -34.870  24.630   3.157  0.00  0.00    +0.117 C 
ATOM      2  C   UNL     1     -35.360  25.924   3.822  0.00  0.00    +0.153 C 
ATOM      3  C   UNL     1     -35.497  23.496   4.898  0.00  0.00    +0.144 C 
ATOM      4  C   UNL     1     -34.204  24.205   4.473  0.00  0.00    +0.040 C 
ATOM      5  C   UNL     1     -36.163  23.920   3.582  0.00  0.00    +0.040 C 
ATOM      6  C   UNL     1     -34.694  25.499   5.139  0.00  0.00    +0.031 C 
ATOM      7  C   UNL     1     -36.654  25.214   4.248  0.00  0.00    +0.031 C 
ATOM      8  C   UNL     1     -35.987  24.790   5.564  0.00  0.00    +0.030 C 
ENDROOT
BRANCH   2  11
ATOM      9  O   UNL     1     -36.030  27.527   2.273  0.00  0.00    -0.131 OA
ATOM     10  O   UNL     1     -34.509  28.087   3.764  0.00  0.00    -0.131 OA
ATOM     11  N   UNL     1     -35.293  27.238   3.255  0.00  0.00    +0.031 N 
ENDBRANCH   2  11
BRANCH   3  14
ATOM     12  O   UNL     1     -35.161  21.193   4.818  0.00  0.00    -0.131 OA
ATOM     13  O   UNL     1     -36.024  22.060   6.649  0.00  0.00    -0.131 OA
ATOM     14  N   UNL     1     -35.570  22.189   5.478  0.00  0.00    +0.030 N 
ENDBRANCH   3  14
BRANCH   1  16
ATOM     15  O   UNL     1     -33.230  25.132   1.459  0.00  0.00    -0.250 OA
ATOM     16  C   UNL     1     -34.236  24.523   1.796  0.00  0.00    +0.318 C 
BRANCH  16  17
ATOM     17  O   UNL     1     -34.953  23.657   1.026  0.00  0.00    -0.444 OA
ATOM     18  C   UNL     1     -34.270  22.456   0.652  0.00  0.00    +0.256 C 
ENDBRANCH  16  17
ENDBRANCH   1  16
TORSDOF 4
ENDMDL
MODEL 6
REMARK VINA RESULT:      -5.1      2.026      3.247
REMARK  Name = 192447
REMARK  4 active torsions:
REMARK  status: ('A' for Active; 'I' for Inactive)
REMARK    1  A    between atoms: C_1  and  C_16
REMARK    2  A    between atoms: C_2  and  N_11
REMARK    3  A    between atoms: C_3  and  N_14
REMARK    4  A    between atoms: C_16  and  O_17
REMARK                            x       y       z     vdW  Elec       q    Type
REMARK                         _______ _______ _______ _____ _____    ______ ____
ROOT
ATOM      1  C   UNL     1     -35.469  25.427   3.258  0.00  0.00    +0.117 C 
ATOM      2  C   UNL     1     -36.058  24.208   3.981  0.00  0.00    +0.153 C 
ATOM      3  C   UNL     1     -34.322  25.927   5.033  0.00  0.00    +0.144 C 
ATOM      4  C   UNL     1     -35.718  26.288   4.505  0.00  0.00    +0.040 C 
ATOM      5  C   UNL     1     -34.073  25.068   3.786  0.00  0.00    +0.040 C 
ATOM      6  C   UNL     1     -36.308  25.068   5.229  0.00  0.00    +0.031 C 
ATOM      7  C   UNL     1     -34.661  23.848   4.510  0.00  0.00    +0.031 C 
ATOM      8  C   UNL     1     -34.911  24.707   5.756  0.00  0.00    +0.030 C 
ENDROOT
BRANCH   2  11
ATOM      9  O   UNL     1     -38.215  23.580   3.375  0.00  0.00    -0.131 OA
ATOM     10  O   UNL     1     -36.569  22.168   2.989  0.00  0.00    -0.131 OA
ATOM     11  N   UNL     1     -36.992  23.273   3.429  0.00  0.00    +0.031 N 
ENDBRANCH   2  11
BRANCH   3  14
ATOM     12  O   UNL     1     -33.063  27.884   4.945  0.00  0.00    -0.131 OA
ATOM     13  O   UNL     1     -32.925  26.632   6.752  0.00  0.00    -0.131 OA
ATOM     14  N   UNL     1     -33.389  26.854   5.599  0.00  0.00    +0.030 N 
ENDBRANCH   3  14
BRANCH   1  16
ATOM     15  O   UNL     1     -35.320  25.297   0.852  0.00  0.00    -0.250 OA
ATOM     16  C   UNL     1     -35.775  25.848   1.846  0.00  0.00    +0.318 C 
BRANCH  16  17
ATOM     17  O   UNL     1     -36.619  26.918   1.862  0.00  0.00    -0.444 OA
ATOM     18  C   UNL     1     -37.986  26.627   1.554  0.00  0.00    +0.256 C 
ENDBRANCH  16  17
ENDBRANCH   1  16
TORSDOF 4
ENDMDL
MODEL 7
REMARK VINA RESULT:      -5.1      1.701      5.013
REMARK  Name = 192447
REMARK  4 active torsions:
REMARK  status: ('A' for Active; 'I' for Inactive)
REMARK    1  A    between atoms: C_1  and  C_16
REMARK    2  A    between atoms: C_2  and  N_11
REMARK    3  A    between atoms: C_3  and  N_14
REMARK    4  A    between atoms: C_16  and  O_17
REMARK                            x       y       z     vdW  Elec       q    Type
REMARK                         _______ _______ _______ _____ _____    ______ ____
ROOT
ATOM      1  C   UNL     1     -34.974  25.182   4.162  0.00  0.00    +0.117 C 
ATOM      2  C   UNL     1     -35.993  25.339   3.024  0.00  0.00    +0.153 C 
ATOM      3  C   UNL     1     -35.746  23.196   4.581  0.00  0.00    +0.144 C 
ATOM      4  C   UNL     1     -36.075  24.614   5.070  0.00  0.00    +0.040 C 
ATOM      5  C   UNL     1     -34.645  23.765   3.674  0.00  0.00    +0.040 C 
ATOM      6  C   UNL     1     -37.094  24.771   3.931  0.00  0.00    +0.031 C 
ATOM      7  C   UNL     1     -35.664  23.920   2.536  0.00  0.00    +0.031 C 
ATOM      8  C   UNL     1     -36.765  23.353   3.442  0.00  0.00    +0.030 C 
ENDROOT
BRANCH   2  11
ATOM      9  O   UNL     1     -35.218  26.774   1.364  0.00  0.00    -0.131 OA
ATOM     10  O   UNL     1     -37.193  27.174   2.252  0.00  0.00    -0.131 OA
ATOM     11  N   UNL     1     -36.137  26.486   2.178  0.00  0.00    +0.031 N 
ENDBRANCH   2  11
BRANCH   3  14
ATOM     12  O   UNL     1     -35.980  22.109   6.626  0.00  0.00    -0.131 OA
ATOM     13  O   UNL     1     -35.151  20.976   4.929  0.00  0.00    -0.131 OA
ATOM     14  N   UNL     1     -35.614  22.043   5.419  0.00  0.00    +0.030 N 
ENDBRANCH   3  14
BRANCH   1  16
ATOM     15  O   UNL     1     -34.073  26.929   5.564  0.00  0.00    -0.250 OA
ATOM     16  C   UNL     1     -33.956  26.208   4.582  0.00  0.00    +0.318 C 
BRANCH  16  17
ATOM     17  O   UNL     1     -32.911  26.197   3.707  0.00  0.00    -0.444 OA
ATOM     18  C   UNL     1     -32.359  27.479   3.393  0.00  0.00    +0.256 C 
ENDBRANCH  16  17
ENDBRANCH   1  16
TORSDOF 4
ENDMDL
MODEL 8
REMARK VINA RESULT:      -5.1      2.107      4.484
REMARK  Name = 192447
REMARK  4 active torsions:
REMARK  status: ('A' for Active; 'I' for Inactive)
REMARK    1  A    between atoms: C_1  and  C_16
REMARK    2  A    between atoms: C_2  and  N_11
REMARK    3  A    between atoms: C_3  and  N_14
REMARK    4  A    between atoms: C_16  and  O_17
REMARK                            x       y       z     vdW  Elec       q    Type
REMARK                         _______ _______ _______ _____ _____    ______ ____
ROOT
ATOM      1  C   UNL     1     -35.012  26.364   3.921  0.00  0.00    +0.117 C 
ATOM      2  C   UNL     1     -34.209  26.021   5.184  0.00  0.00    +0.153 C 
ATOM      3  C   UNL     1     -36.235  24.595   4.216  0.00  0.00    +0.144 C 
ATOM      4  C   UNL     1     -34.929  24.899   3.469  0.00  0.00    +0.040 C 
ATOM      5  C   UNL     1     -36.318  26.059   4.668  0.00  0.00    +0.040 C 
ATOM      6  C   UNL     1     -34.126  24.555   4.732  0.00  0.00    +0.031 C 
ATOM      7  C   UNL     1     -35.516  25.715   5.931  0.00  0.00    +0.031 C 
ATOM      8  C   UNL     1     -35.432  24.251   5.479  0.00  0.00    +0.030 C 
ENDROOT
BRANCH   2  11
ATOM      9  O   UNL     1     -32.261  27.269   4.929  0.00  0.00    -0.131 OA
ATOM     10  O   UNL     1     -33.043  26.956   6.964  0.00  0.00    -0.131 OA
ATOM     11  N   UNL     1     -33.116  26.778   5.717  0.00  0.00    +0.031 N 
ENDBRANCH   2  11
BRANCH   3  14
ATOM     12  O   UNL     1     -38.433  24.391   3.475  0.00  0.00    -0.131 OA
ATOM     13  O   UNL     1     -37.150  22.601   3.445  0.00  0.00    -0.131 OA
ATOM     14  N   UNL     1     -37.325  23.826   3.695  0.00  0.00    +0.030 N 
ENDBRANCH   3  14
BRANCH   1  16
ATOM     15  O   UNL     1     -34.987  28.714   3.368  0.00  0.00    -0.250 OA
ATOM     16  C   UNL     1     -34.787  27.555   3.029  0.00  0.00    +0.318 C 
BRANCH  16  17
ATOM     17  O   UNL     1     -34.337  27.135   1.813  0.00  0.00    -0.444 OA
ATOM     18  C   UNL     1     -33.335  27.959   1.210  0.00  0.00    +0.256 C 
ENDBRANCH  16  17
ENDBRANCH   1  16
TORSDOF 4
ENDMDL
MODEL 9
REMARK VINA RESULT:      -4.9      2.057      4.489
REMARK  Name = 192447
REMARK  4 active torsions:
REMARK  status: ('A' for Active; 'I' for Inactive)
REMARK    1  A    between atoms: C_1  and  C_16
REMARK    2  A    between atoms: C_2  and  N_11
REMARK    3  A    between atoms: C_3  and  N_14
REMARK    4  A    between atoms: C_16  and  O_17
REMARK                            x       y       z     vdW  Elec       q    Type
REMARK                         _______ _______ _______ _____ _____    ______ ____
ROOT
ATOM      1  C   UNL     1     -34.878  26.068   3.627  0.00  0.00    +0.117 C 
ATOM      2  C   UNL     1     -34.286  25.931   5.037  0.00  0.00    +0.153 C 
ATOM      3  C   UNL     1     -36.193  24.385   4.014  0.00  0.00    +0.144 C 
ATOM      4  C   UNL     1     -34.779  24.548   3.437  0.00  0.00    +0.040 C 
ATOM      5  C   UNL     1     -36.291  25.905   4.203  0.00  0.00    +0.040 C 
ATOM      6  C   UNL     1     -34.187  24.410   4.848  0.00  0.00    +0.031 C 
ATOM      7  C   UNL     1     -35.701  25.767   5.614  0.00  0.00    +0.031 C 
ATOM      8  C   UNL     1     -35.601  24.247   5.425  0.00  0.00    +0.030 C 
ENDROOT
BRANCH   2  11
ATOM      9  O   UNL     1     -33.264  26.987   6.842  0.00  0.00    -0.131 OA
ATOM     10  O   UNL     1     -32.361  27.220   4.846  0.00  0.00    -0.131 OA
ATOM     11  N   UNL     1     -33.260  26.756   5.601  0.00  0.00    +0.031 N 
ENDBRANCH   2  11
BRANCH   3  14
ATOM     12  O   UNL     1     -38.399  23.992   3.382  0.00  0.00    -0.131 OA
ATOM     13  O   UNL     1     -36.917  22.397   3.049  0.00  0.00    -0.131 OA
ATOM     14  N   UNL     1     -37.219  23.551   3.463  0.00  0.00    +0.030 N 
ENDBRANCH   3  14
BRANCH   1  16
ATOM     15  O   UNL     1     -33.657  26.892   1.714  0.00  0.00    -0.250 OA
ATOM     16  C   UNL     1     -34.479  27.092   2.598  0.00  0.00    +0.318 C 
BRANCH  16  17
ATOM     17  O   UNL     1     -35.169  28.248   2.815  0.00  0.00    -0.444 OA
ATOM     18  C   UNL     1     -35.900  28.747   1.691  0.00  0.00    +0.256 C 
ENDBRANCH  16  17
ENDBRANCH   1  16
TORSDOF 4
ENDMDL
