MODEL 1
REMARK VINA RESULT:      -6.4      0.000      0.000
REMARK  Name = 5271991
REMARK  7 active torsions:
REMARK  status: ('A' for Active; 'I' for Inactive)
REMARK    1  A    between atoms: C_5  and  C_12
REMARK    2  A    between atoms: C_6  and  O_24
REMARK    3  A    between atoms: C_9  and  O_26
REMARK    4  A    between atoms: C_10  and  O_28
REMARK    5  A    between atoms: C_13  and  O_18
REMARK    6  A    between atoms: C_14  and  O_20
REMARK    7  A    between atoms: C_15  and  O_22
REMARK                            x       y       z     vdW  Elec       q    Type
REMARK                         _______ _______ _______ _____ _____    ______ ____
ROOT
ATOM      1  O   UNL     1     -36.351  21.483   1.715  0.00  0.00    -0.450 OA
ATOM      2  O   UNL     1     -40.365  21.139   1.103  0.00  0.00    -0.286 OA
ATOM      3  C   UNL     1     -38.181  20.533   0.431  0.00  0.00    +0.110 C 
ATOM      4  C   UNL     1     -36.822  20.693   0.697  0.00  0.00    +0.188 C 
ATOM      5  C   UNL     1     -37.268  22.154   2.509  0.00  0.00    +0.155 C 
ATOM      6  C   UNL     1     -35.877  20.035  -0.089  0.00  0.00    +0.207 C 
ATOM      7  C   UNL     1     -39.158  21.237   1.276  0.00  0.00    +0.205 C 
ATOM      8  C   UNL     1     -38.600  22.075   2.357  0.00  0.00    +0.080 C 
ATOM      9  C   UNL     1     -38.604  19.716  -0.620  0.00  0.00    +0.143 C 
ATOM     10  C   UNL     1     -36.295  19.218  -1.140  0.00  0.00    +0.174 C 
ATOM     11  C   UNL     1     -37.656  19.059  -1.404  0.00  0.00    +0.077 C 
ENDROOT
BRANCH   5  12
ATOM     12  C   UNL     1     -36.656  22.969   3.577  0.00  0.00    +0.105 C 
ATOM     13  C   UNL     1     -36.946  24.335   3.681  0.00  0.00    +0.178 C 
ATOM     14  C   UNL     1     -35.776  22.383   4.495  0.00  0.00    +0.140 C 
ATOM     15  C   UNL     1     -36.366  25.103   4.690  0.00  0.00    +0.168 C 
ATOM     16  C   UNL     1     -35.196  23.152   5.503  0.00  0.00    +0.040 C 
ATOM     17  C   UNL     1     -35.491  24.511   5.601  0.00  0.00    +0.043 C 
BRANCH  13  18
ATOM     18  O   UNL     1     -37.800  24.929   2.797  0.00  0.00    -0.468 OA
ATOM     19  C   UNL     1     -37.217  25.545   1.652  0.00  0.00    +0.253 C 
ENDBRANCH  13  18
BRANCH  14  20
ATOM     20  O   UNL     1     -35.469  21.056   4.424  0.00  0.00    -0.505 OA
ATOM     21  H   UNL     1     -34.842  20.753   3.797  0.00  0.00    +0.292 HD
ENDBRANCH  14  20
BRANCH  15  22
ATOM     22  O   UNL     1     -36.643  26.432   4.798  0.00  0.00    -0.503 OA
ATOM     23  H   UNL     1     -36.038  27.066   4.467  0.00  0.00    +0.292 HD
ENDBRANCH  15  22
ENDBRANCH   5  12
BRANCH   6  24
ATOM     24  O   UNL     1     -34.545  20.186   0.164  0.00  0.00    -0.465 OA
ATOM     25  C   UNL     1     -33.963  19.300   1.118  0.00  0.00    +0.253 C 
ENDBRANCH   6  24
BRANCH   9  26
ATOM     26  O   UNL     1     -39.919  19.526  -0.919  0.00  0.00    -0.505 OA
ATOM     27  H   UNL     1     -40.520  19.268  -0.247  0.00  0.00    +0.292 HD
ENDBRANCH   9  26
BRANCH  10  28
ATOM     28  O   UNL     1     -35.383  18.568  -1.917  0.00  0.00    -0.503 OA
ATOM     29  H   UNL     1     -34.523  18.396  -1.585  0.00  0.00    +0.292 HD
ENDBRANCH  10  28
TORSDOF 7
ENDMDL
MODEL 2
REMARK VINA RESULT:      -6.1      2.012      6.633
REMARK  Name = 5271991
REMARK  7 active torsions:
REMARK  status: ('A' for Active; 'I' for Inactive)
REMARK    1  A    between atoms: C_5  and  C_12
REMARK    2  A    between atoms: C_6  and  O_24
REMARK    3  A    between atoms: C_9  and  O_26
REMARK    4  A    between atoms: C_10  and  O_28
REMARK    5  A    between atoms: C_13  and  O_18
REMARK    6  A    between atoms: C_14  and  O_20
REMARK    7  A    between atoms: C_15  and  O_22
REMARK                            x       y       z     vdW  Elec       q    Type
REMARK                         _______ _______ _______ _____ _____    ______ ____
ROOT
ATOM      1  O   UNL     1     -37.713  23.299   2.184  0.00  0.00    -0.450 OA
ATOM      2  O   UNL     1     -35.187  20.568   3.847  0.00  0.00    -0.286 OA
ATOM      3  C   UNL     1     -36.085  22.754   3.903  0.00  0.00    +0.110 C 
ATOM      4  C   UNL     1     -36.969  23.638   3.286  0.00  0.00    +0.188 C 
ATOM      5  C   UNL     1     -37.573  22.023   1.659  0.00  0.00    +0.155 C 
ATOM      6  C   UNL     1     -37.125  24.930   3.787  0.00  0.00    +0.207 C 
ATOM      7  C   UNL     1     -35.940  21.396   3.354  0.00  0.00    +0.205 C 
ATOM      8  C   UNL     1     -36.761  21.082   2.167  0.00  0.00    +0.080 C 
ATOM      9  C   UNL     1     -35.353  23.153   5.023  0.00  0.00    +0.143 C 
ATOM     10  C   UNL     1     -36.396  25.333   4.906  0.00  0.00    +0.174 C 
ATOM     11  C   UNL     1     -35.512  24.446   5.522  0.00  0.00    +0.077 C 
ENDROOT
BRANCH   5  12
ATOM     12  C   UNL     1     -38.423  21.762   0.480  0.00  0.00    +0.105 C 
ATOM     13  C   UNL     1     -37.941  22.012  -0.810  0.00  0.00    +0.178 C 
ATOM     14  C   UNL     1     -39.720  21.263   0.643  0.00  0.00    +0.140 C 
ATOM     15  C   UNL     1     -38.745  21.765  -1.922  0.00  0.00    +0.168 C 
ATOM     16  C   UNL     1     -40.525  21.017  -0.470  0.00  0.00    +0.040 C 
ATOM     17  C   UNL     1     -40.037  21.268  -1.752  0.00  0.00    +0.043 C 
BRANCH  13  18
ATOM     18  O   UNL     1     -36.678  22.500  -0.993  0.00  0.00    -0.468 OA
ATOM     19  C   UNL     1     -36.543  23.914  -1.100  0.00  0.00    +0.253 C 
ENDBRANCH  13  18
BRANCH  14  20
ATOM     20  O   UNL     1     -40.225  21.008   1.884  0.00  0.00    -0.505 OA
ATOM     21  H   UNL     1     -41.150  21.034   2.029  0.00  0.00    +0.292 HD
ENDBRANCH  14  20
BRANCH  15  22
ATOM     22  O   UNL     1     -38.282  22.006  -3.181  0.00  0.00    -0.503 OA
ATOM     23  H   UNL     1     -38.869  21.973  -3.910  0.00  0.00    +0.292 HD
ENDBRANCH  15  22
ENDBRANCH   5  12
BRANCH   6  24
ATOM     24  O   UNL     1     -37.988  25.801   3.190  0.00  0.00    -0.465 OA
ATOM     25  C   UNL     1     -37.484  26.564   2.096  0.00  0.00    +0.253 C 
ENDBRANCH   6  24
BRANCH   9  26
ATOM     26  O   UNL     1     -34.478  22.327   5.661  0.00  0.00    -0.505 OA
ATOM     27  H   UNL     1     -34.777  21.511   6.015  0.00  0.00    +0.292 HD
ENDBRANCH   9  26
BRANCH  10  28
ATOM     28  O   UNL     1     -36.538  26.592   5.409  0.00  0.00    -0.503 OA
ATOM     29  H   UNL     1     -36.609  26.721   6.335  0.00  0.00    +0.292 HD
ENDBRANCH  10  28
TORSDOF 7
ENDMDL
MODEL 3
REMARK VINA RESULT:      -5.9      1.525      3.426
REMARK  Name = 5271991
REMARK  7 active torsions:
REMARK  status: ('A' for Active; 'I' for Inactive)
REMARK    1  A    between atoms: C_5  and  C_12
REMARK    2  A    between atoms: C_6  and  O_24
REMARK    3  A    between atoms: C_9  and  O_26
REMARK    4  A    between atoms: C_10  and  O_28
REMARK    5  A    between atoms: C_13  and  O_18
REMARK    6  A    between atoms: C_14  and  O_20
REMARK    7  A    between atoms: C_15  and  O_22
REMARK                            x       y       z     vdW  Elec       q    Type
REMARK                         _______ _______ _______ _____ _____    ______ ____
ROOT
ATOM      1  O   UNL     1     -37.742  22.800   2.386  0.00  0.00    -0.450 OA
ATOM      2  O   UNL     1     -35.043  20.337   0.583  0.00  0.00    -0.286 OA
ATOM      3  C   UNL     1     -37.300  20.998   0.818  0.00  0.00    +0.110 C 
ATOM      4  C   UNL     1     -38.169  21.873   1.470  0.00  0.00    +0.188 C 
ATOM      5  C   UNL     1     -36.388  22.865   2.679  0.00  0.00    +0.155 C 
ATOM      6  C   UNL     1     -39.536  21.826   1.201  0.00  0.00    +0.207 C 
ATOM      7  C   UNL     1     -35.862  21.070   1.120  0.00  0.00    +0.205 C 
ATOM      8  C   UNL     1     -35.454  22.084   2.114  0.00  0.00    +0.080 C 
ATOM      9  C   UNL     1     -37.790  20.073  -0.105  0.00  0.00    +0.143 C 
ATOM     10  C   UNL     1     -40.030  20.903   0.278  0.00  0.00    +0.174 C 
ATOM     11  C   UNL     1     -39.159  20.029  -0.373  0.00  0.00    +0.077 C 
ENDROOT
BRANCH   5  12
ATOM     12  C   UNL     1     -36.037  23.901   3.672  0.00  0.00    +0.105 C 
ATOM     13  C   UNL     1     -35.870  25.233   3.276  0.00  0.00    +0.178 C 
ATOM     14  C   UNL     1     -35.867  23.559   5.018  0.00  0.00    +0.140 C 
ATOM     15  C   UNL     1     -35.538  26.210   4.214  0.00  0.00    +0.168 C 
ATOM     16  C   UNL     1     -35.534  24.536   5.956  0.00  0.00    +0.040 C 
ATOM     17  C   UNL     1     -35.370  25.861   5.554  0.00  0.00    +0.043 C 
BRANCH  13  18
ATOM     18  O   UNL     1     -36.031  25.591   1.968  0.00  0.00    -0.468 OA
ATOM     19  C   UNL     1     -34.857  25.633   1.163  0.00  0.00    +0.253 C 
ENDBRANCH  13  18
BRANCH  14  20
ATOM     20  O   UNL     1     -36.020  22.271   5.440  0.00  0.00    -0.505 OA
ATOM     21  H   UNL     1     -36.451  22.092   6.253  0.00  0.00    +0.292 HD
ENDBRANCH  14  20
BRANCH  15  22
ATOM     22  O   UNL     1     -35.374  27.509   3.837  0.00  0.00    -0.503 OA
ATOM     23  H   UNL     1     -35.587  27.774   2.964  0.00  0.00    +0.292 HD
ENDBRANCH  15  22
ENDBRANCH   5  12
BRANCH   6  24
ATOM     24  O   UNL     1     -40.393  22.678   1.834  0.00  0.00    -0.465 OA
ATOM     25  C   UNL     1     -40.652  23.927   1.197  0.00  0.00    +0.253 C 
ENDBRANCH   6  24
BRANCH   9  26
ATOM     26  O   UNL     1     -36.983  19.199  -0.769  0.00  0.00    -0.505 OA
ATOM     27  H   UNL     1     -36.065  19.375  -0.845  0.00  0.00    +0.292 HD
ENDBRANCH   9  26
BRANCH  10  28
ATOM     28  O   UNL     1     -41.364  20.845   0.003  0.00  0.00    -0.503 OA
ATOM     29  H   UNL     1     -41.931  21.534   0.290  0.00  0.00    +0.292 HD
ENDBRANCH  10  28
TORSDOF 7
ENDMDL
MODEL 4
REMARK VINA RESULT:      -5.9      3.150      7.533
REMARK  Name = 5271991
REMARK  7 active torsions:
REMARK  status: ('A' for Active; 'I' for Inactive)
REMARK    1  A    between atoms: C_5  and  C_12
REMARK    2  A    between atoms: C_6  and  O_24
REMARK    3  A    between atoms: C_9  and  O_26
REMARK    4  A    between atoms: C_10  and  O_28
REMARK    5  A    between atoms: C_13  and  O_18
REMARK    6  A    between atoms: C_14  and  O_20
REMARK    7  A    between atoms: C_15  and  O_22
REMARK                            x       y       z     vdW  Elec       q    Type
REMARK                         _______ _______ _______ _____ _____    ______ ____
ROOT
ATOM      1  O   UNL     1     -35.753  26.122   2.662  0.00  0.00    -0.450 OA
ATOM      2  O   UNL     1     -34.049  25.849   6.353  0.00  0.00    -0.286 OA
ATOM      3  C   UNL     1     -34.022  26.841   4.207  0.00  0.00    +0.110 C 
ATOM      4  C   UNL     1     -34.655  26.886   2.966  0.00  0.00    +0.188 C 
ATOM      5  C   UNL     1     -36.249  25.263   3.631  0.00  0.00    +0.155 C 
ATOM      6  C   UNL     1     -34.174  27.734   1.969  0.00  0.00    +0.207 C 
ATOM      7  C   UNL     1     -34.551  25.937   5.241  0.00  0.00    +0.205 C 
ATOM      8  C   UNL     1     -35.733  25.135   4.863  0.00  0.00    +0.080 C 
ATOM      9  C   UNL     1     -32.907  27.641   4.461  0.00  0.00    +0.143 C 
ATOM     10  C   UNL     1     -33.060  28.536   2.219  0.00  0.00    +0.174 C 
ATOM     11  C   UNL     1     -32.428  28.490   3.462  0.00  0.00    +0.077 C 
ENDROOT
BRANCH   5  12
ATOM     12  C   UNL     1     -37.434  24.494   3.202  0.00  0.00    +0.105 C 
ATOM     13  C   UNL     1     -37.325  23.130   2.908  0.00  0.00    +0.178 C 
ATOM     14  C   UNL     1     -38.679  25.124   3.083  0.00  0.00    +0.140 C 
ATOM     15  C   UNL     1     -38.446  22.405   2.503  0.00  0.00    +0.168 C 
ATOM     16  C   UNL     1     -39.799  24.398   2.677  0.00  0.00    +0.040 C 
ATOM     17  C   UNL     1     -39.682  23.039   2.387  0.00  0.00    +0.043 C 
BRANCH  13  18
ATOM     18  O   UNL     1     -36.122  22.494   3.016  0.00  0.00    -0.468 OA
ATOM     19  C   UNL     1     -35.310  22.449   1.846  0.00  0.00    +0.253 C 
ENDBRANCH  13  18
BRANCH  14  20
ATOM     20  O   UNL     1     -38.824  26.451   3.359  0.00  0.00    -0.505 OA
ATOM     21  H   UNL     1     -38.120  26.927   3.753  0.00  0.00    +0.292 HD
ENDBRANCH  14  20
BRANCH  15  22
ATOM     22  O   UNL     1     -38.347  21.077   2.215  0.00  0.00    -0.503 OA
ATOM     23  H   UNL     1     -38.642  20.753   1.387  0.00  0.00    +0.292 HD
ENDBRANCH  15  22
ENDBRANCH   5  12
BRANCH   6  24
ATOM     24  O   UNL     1     -34.787  27.785   0.752  0.00  0.00    -0.465 OA
ATOM     25  C   UNL     1     -35.828  28.746   0.591  0.00  0.00    +0.253 C 
ENDBRANCH   6  24
BRANCH   9  26
ATOM     26  O   UNL     1     -32.255  27.634   5.657  0.00  0.00    -0.505 OA
ATOM     27  H   UNL     1     -32.062  28.444   6.090  0.00  0.00    +0.292 HD
ENDBRANCH   9  26
BRANCH  10  28
ATOM     28  O   UNL     1     -32.578  29.372   1.256  0.00  0.00    -0.503 OA
ATOM     29  H   UNL     1     -31.693  29.283   0.959  0.00  0.00    +0.292 HD
ENDBRANCH  10  28
TORSDOF 7
ENDMDL
MODEL 5
REMARK VINA RESULT:      -5.9      3.323      6.791
REMARK  Name = 5271991
REMARK  7 active torsions:
REMARK  status: ('A' for Active; 'I' for Inactive)
REMARK    1  A    between atoms: C_5  and  C_12
REMARK    2  A    between atoms: C_6  and  O_24
REMARK    3  A    between atoms: C_9  and  O_26
REMARK    4  A    between atoms: C_10  and  O_28
REMARK    5  A    between atoms: C_13  and  O_18
REMARK    6  A    between atoms: C_14  and  O_20
REMARK    7  A    between atoms: C_15  and  O_22
REMARK                            x       y       z     vdW  Elec       q    Type
REMARK                         _______ _______ _______ _____ _____    ______ ____
ROOT
ATOM      1  O   UNL     1     -34.948  26.104   3.086  0.00  0.00    -0.450 OA
ATOM      2  O   UNL     1     -38.567  27.052   1.471  0.00  0.00    -0.286 OA
ATOM      3  C   UNL     1     -36.305  27.656   1.801  0.00  0.00    +0.110 C 
ATOM      4  C   UNL     1     -35.096  27.270   2.378  0.00  0.00    +0.188 C 
ATOM      5  C   UNL     1     -36.051  25.279   3.239  0.00  0.00    +0.155 C 
ATOM      6  C   UNL     1     -33.971  28.083   2.247  0.00  0.00    +0.207 C 
ATOM      7  C   UNL     1     -37.477  26.778   1.954  0.00  0.00    +0.205 C 
ATOM      8  C   UNL     1     -37.265  25.537   2.726  0.00  0.00    +0.080 C 
ATOM      9  C   UNL     1     -36.399  28.854   1.092  0.00  0.00    +0.143 C 
ATOM     10  C   UNL     1     -34.060  29.281   1.539  0.00  0.00    +0.174 C 
ATOM     11  C   UNL     1     -35.271  29.666   0.962  0.00  0.00    +0.077 C 
ENDROOT
BRANCH   5  12
ATOM     12  C   UNL     1     -35.780  24.049   4.010  0.00  0.00    +0.105 C 
ATOM     13  C   UNL     1     -35.755  22.803   3.373  0.00  0.00    +0.178 C 
ATOM     14  C   UNL     1     -35.547  24.119   5.389  0.00  0.00    +0.140 C 
ATOM     15  C   UNL     1     -35.499  21.644   4.104  0.00  0.00    +0.168 C 
ATOM     16  C   UNL     1     -35.293  22.959   6.120  0.00  0.00    +0.040 C 
ATOM     17  C   UNL     1     -35.268  21.721   5.477  0.00  0.00    +0.043 C 
BRANCH  13  18
ATOM     18  O   UNL     1     -35.979  22.711   2.029  0.00  0.00    -0.468 OA
ATOM     19  C   UNL     1     -34.834  22.736   1.182  0.00  0.00    +0.253 C 
ENDBRANCH  13  18
BRANCH  14  20
ATOM     20  O   UNL     1     -35.566  25.315   6.045  0.00  0.00    -0.505 OA
ATOM     21  H   UNL     1     -36.370  25.649   6.388  0.00  0.00    +0.292 HD
ENDBRANCH  14  20
BRANCH  15  22
ATOM     22  O   UNL     1     -35.473  20.428   3.490  0.00  0.00    -0.503 OA
ATOM     23  H   UNL     1     -36.151  19.803   3.656  0.00  0.00    +0.292 HD
ENDBRANCH  15  22
ENDBRANCH   5  12
BRANCH   6  24
ATOM     24  O   UNL     1     -32.784  27.713   2.808  0.00  0.00    -0.465 OA
ATOM     25  C   UNL     1     -32.532  28.153   4.140  0.00  0.00    +0.253 C 
ENDBRANCH   6  24
BRANCH   9  26
ATOM     26  O   UNL     1     -37.556  29.275   0.509  0.00  0.00    -0.505 OA
ATOM     27  H   UNL     1     -38.235  28.657   0.317  0.00  0.00    +0.292 HD
ENDBRANCH   9  26
BRANCH  10  28
ATOM     28  O   UNL     1     -32.970  30.087   1.401  0.00  0.00    -0.503 OA
ATOM     29  H   UNL     1     -32.180  29.747   1.029  0.00  0.00    +0.292 HD
ENDBRANCH  10  28
TORSDOF 7
ENDMDL
MODEL 6
REMARK VINA RESULT:      -5.8      1.787      2.691
REMARK  Name = 5271991
REMARK  7 active torsions:
REMARK  status: ('A' for Active; 'I' for Inactive)
REMARK    1  A    between atoms: C_5  and  C_12
REMARK    2  A    between atoms: C_6  and  O_24
REMARK    3  A    between atoms: C_9  and  O_26
REMARK    4  A    between atoms: C_10  and  O_28
REMARK    5  A    between atoms: C_13  and  O_18
REMARK    6  A    between atoms: C_14  and  O_20
REMARK    7  A    between atoms: C_15  and  O_22
REMARK                            x       y       z     vdW  Elec       q    Type
REMARK                         _______ _______ _______ _____ _____    ______ ____
ROOT
ATOM      1  O   UNL     1     -37.287  22.920   2.521  0.00  0.00    -0.450 OA
ATOM      2  O   UNL     1     -40.780  24.931   1.928  0.00  0.00    -0.286 OA
ATOM      3  C   UNL     1     -39.479  23.009   1.479  0.00  0.00    +0.110 C 
ATOM      4  C   UNL     1     -38.262  22.375   1.725  0.00  0.00    +0.188 C 
ATOM      5  C   UNL     1     -37.520  24.158   3.099  0.00  0.00    +0.155 C 
ATOM      6  C   UNL     1     -37.997  21.132   1.152  0.00  0.00    +0.207 C 
ATOM      7  C   UNL     1     -39.734  24.320   2.098  0.00  0.00    +0.205 C 
ATOM      8  C   UNL     1     -38.652  24.863   2.943  0.00  0.00    +0.080 C 
ATOM      9  C   UNL     1     -40.437  22.408   0.660  0.00  0.00    +0.143 C 
ATOM     10  C   UNL     1     -38.951  20.528   0.333  0.00  0.00    +0.174 C 
ATOM     11  C   UNL     1     -40.168  21.164   0.088  0.00  0.00    +0.077 C 
ENDROOT
BRANCH   5  12
ATOM     12  C   UNL     1     -36.409  24.648   3.940  0.00  0.00    +0.105 C 
ATOM     13  C   UNL     1     -35.859  25.916   3.718  0.00  0.00    +0.178 C 
ATOM     14  C   UNL     1     -35.895  23.847   4.966  0.00  0.00    +0.140 C 
ATOM     15  C   UNL     1     -34.810  26.377   4.513  0.00  0.00    +0.168 C 
ATOM     16  C   UNL     1     -34.845  24.307   5.759  0.00  0.00    +0.040 C 
ATOM     17  C   UNL     1     -34.303  25.572   5.533  0.00  0.00    +0.043 C 
BRANCH  13  18
ATOM     18  O   UNL     1     -36.344  26.715   2.723  0.00  0.00    -0.468 OA
ATOM     19  C   UNL     1     -35.679  26.654   1.465  0.00  0.00    +0.253 C 
ENDBRANCH  13  18
BRANCH  14  20
ATOM     20  O   UNL     1     -36.404  22.605   5.210  0.00  0.00    -0.505 OA
ATOM     21  H   UNL     1     -36.357  22.240   6.071  0.00  0.00    +0.292 HD
ENDBRANCH  14  20
BRANCH  15  22
ATOM     22  O   UNL     1     -34.270  27.610   4.303  0.00  0.00    -0.503 OA
ATOM     23  H   UNL     1     -33.428  27.819   4.657  0.00  0.00    +0.292 HD
ENDBRANCH  15  22
ENDBRANCH   5  12
BRANCH   6  24
ATOM     24  O   UNL     1     -36.809  20.504   1.388  0.00  0.00    -0.465 OA
ATOM     25  C   UNL     1     -35.751  20.752   0.464  0.00  0.00    +0.253 C 
ENDBRANCH   6  24
BRANCH   9  26
ATOM     26  O   UNL     1     -41.640  22.986   0.390  0.00  0.00    -0.505 OA
ATOM     27  H   UNL     1     -41.677  23.780  -0.108  0.00  0.00    +0.292 HD
ENDBRANCH   9  26
BRANCH  10  28
ATOM     28  O   UNL     1     -38.706  19.313  -0.235  0.00  0.00    -0.503 OA
ATOM     29  H   UNL     1     -37.900  18.867  -0.059  0.00  0.00    +0.292 HD
ENDBRANCH  10  28
TORSDOF 7
ENDMDL
MODEL 7
REMARK VINA RESULT:      -5.7      2.808      5.963
REMARK  Name = 5271991
REMARK  7 active torsions:
REMARK  status: ('A' for Active; 'I' for Inactive)
REMARK    1  A    between atoms: C_5  and  C_12
REMARK    2  A    between atoms: C_6  and  O_24
REMARK    3  A    between atoms: C_9  and  O_26
REMARK    4  A    between atoms: C_10  and  O_28
REMARK    5  A    between atoms: C_13  and  O_18
REMARK    6  A    between atoms: C_14  and  O_20
REMARK    7  A    between atoms: C_15  and  O_22
REMARK                            x       y       z     vdW  Elec       q    Type
REMARK                         _______ _______ _______ _____ _____    ______ ____
ROOT
ATOM      1  O   UNL     1     -37.343  25.961   2.171  0.00  0.00    -0.450 OA
ATOM      2  O   UNL     1     -41.323  25.105   1.999  0.00  0.00    -0.286 OA
ATOM      3  C   UNL     1     -39.525  26.422   1.209  0.00  0.00    +0.110 C 
ATOM      4  C   UNL     1     -38.156  26.661   1.317  0.00  0.00    +0.188 C 
ATOM      5  C   UNL     1     -37.910  24.976   2.965  0.00  0.00    +0.155 C 
ATOM      6  C   UNL     1     -37.559  27.650   0.535  0.00  0.00    +0.207 C 
ATOM      7  C   UNL     1     -40.130  25.371   2.044  0.00  0.00    +0.205 C 
ATOM      8  C   UNL     1     -39.212  24.648   2.947  0.00  0.00    +0.080 C 
ATOM      9  C   UNL     1     -40.306  27.165   0.323  0.00  0.00    +0.143 C 
ATOM     10  C   UNL     1     -38.335  28.396  -0.352  0.00  0.00    +0.174 C 
ATOM     11  C   UNL     1     -39.705  28.154  -0.458  0.00  0.00    +0.077 C 
ENDROOT
BRANCH   5  12
ATOM     12  C   UNL     1     -36.946  24.281   3.841  0.00  0.00    +0.105 C 
ATOM     13  C   UNL     1     -36.637  22.933   3.626  0.00  0.00    +0.178 C 
ATOM     14  C   UNL     1     -36.332  24.965   4.897  0.00  0.00    +0.140 C 
ATOM     15  C   UNL     1     -35.726  22.278   4.454  0.00  0.00    +0.168 C 
ATOM     16  C   UNL     1     -35.422  24.309   5.726  0.00  0.00    +0.040 C 
ATOM     17  C   UNL     1     -35.119  22.966   5.505  0.00  0.00    +0.043 C 
BRANCH  13  18
ATOM     18  O   UNL     1     -37.223  22.245   2.602  0.00  0.00    -0.468 OA
ATOM     19  C   UNL     1     -36.524  22.218   1.361  0.00  0.00    +0.253 C 
ENDBRANCH  13  18
BRANCH  14  20
ATOM     20  O   UNL     1     -36.609  26.278   5.139  0.00  0.00    -0.505 OA
ATOM     21  H   UNL     1     -36.299  26.686   5.923  0.00  0.00    +0.292 HD
ENDBRANCH  14  20
BRANCH  15  22
ATOM     22  O   UNL     1     -35.421  20.966   4.250  0.00  0.00    -0.503 OA
ATOM     23  H   UNL     1     -35.835  20.302   4.766  0.00  0.00    +0.292 HD
ENDBRANCH  15  22
ENDBRANCH   5  12
BRANCH   6  24
ATOM     24  O   UNL     1     -36.220  27.891   0.634  0.00  0.00    -0.465 OA
ATOM     25  C   UNL     1     -35.806  28.864   1.590  0.00  0.00    +0.253 C 
ENDBRANCH   6  24
BRANCH   9  26
ATOM     26  O   UNL     1     -41.646  26.969   0.180  0.00  0.00    -0.505 OA
ATOM     27  H   UNL     1     -41.962  26.208  -0.267  0.00  0.00    +0.292 HD
ENDBRANCH   9  26
BRANCH  10  28
ATOM     28  O   UNL     1     -37.767  29.365  -1.123  0.00  0.00    -0.503 OA
ATOM     29  H   UNL     1     -36.841  29.361  -1.274  0.00  0.00    +0.292 HD
ENDBRANCH  10  28
TORSDOF 7
ENDMDL
MODEL 8
REMARK VINA RESULT:      -5.6      2.839      5.189
REMARK  Name = 5271991
REMARK  7 active torsions:
REMARK  status: ('A' for Active; 'I' for Inactive)
REMARK    1  A    between atoms: C_5  and  C_12
REMARK    2  A    between atoms: C_6  and  O_24
REMARK    3  A    between atoms: C_9  and  O_26
REMARK    4  A    between atoms: C_10  and  O_28
REMARK    5  A    between atoms: C_13  and  O_18
REMARK    6  A    between atoms: C_14  and  O_20
REMARK    7  A    between atoms: C_15  and  O_22
REMARK                            x       y       z     vdW  Elec       q    Type
REMARK                         _______ _______ _______ _____ _____    ______ ____
ROOT
ATOM      1  O   UNL     1     -35.315  18.776   0.214  0.00  0.00    -0.450 OA
ATOM      2  O   UNL     1     -31.711  17.364   1.488  0.00  0.00    -0.286 OA
ATOM      3  C   UNL     1     -33.667  16.991   0.214  0.00  0.00    +0.110 C 
ATOM      4  C   UNL     1     -34.887  17.535  -0.185  0.00  0.00    +0.188 C 
ATOM      5  C   UNL     1     -34.500  19.517   1.056  0.00  0.00    +0.155 C 
ATOM      6  C   UNL     1     -35.730  16.810  -1.026  0.00  0.00    +0.207 C 
ATOM      7  C   UNL     1     -32.795  17.778   1.101  0.00  0.00    +0.205 C 
ATOM      8  C   UNL     1     -33.303  19.105   1.503  0.00  0.00    +0.080 C 
ATOM      9  C   UNL     1     -33.282  15.722  -0.223  0.00  0.00    +0.143 C 
ATOM     10  C   UNL     1     -35.349  15.542  -1.466  0.00  0.00    +0.174 C 
ATOM     11  C   UNL     1     -34.128  15.000  -1.065  0.00  0.00    +0.077 C 
ENDROOT
BRANCH   5  12
ATOM     12  C   UNL     1     -35.052  20.837   1.418  0.00  0.00    +0.105 C 
ATOM     13  C   UNL     1     -34.459  22.010   0.936  0.00  0.00    +0.178 C 
ATOM     14  C   UNL     1     -36.175  20.928   2.250  0.00  0.00    +0.140 C 
ATOM     15  C   UNL     1     -34.982  23.256   1.280  0.00  0.00    +0.168 C 
ATOM     16  C   UNL     1     -36.697  22.175   2.594  0.00  0.00    +0.040 C 
ATOM     17  C   UNL     1     -36.101  23.339   2.108  0.00  0.00    +0.043 C 
BRANCH  13  18
ATOM     18  O   UNL     1     -33.363  21.946   0.124  0.00  0.00    -0.468 OA
ATOM     19  C   UNL     1     -33.603  21.926  -1.280  0.00  0.00    +0.253 C 
ENDBRANCH  13  18
BRANCH  14  20
ATOM     20  O   UNL     1     -36.779  19.808   2.740  0.00  0.00    -0.505 OA
ATOM     21  H   UNL     1     -37.245  19.236   2.163  0.00  0.00    +0.292 HD
ENDBRANCH  14  20
BRANCH  15  22
ATOM     22  O   UNL     1     -34.410  24.401   0.814  0.00  0.00    -0.503 OA
ATOM     23  H   UNL     1     -34.758  24.825   0.054  0.00  0.00    +0.292 HD
ENDBRANCH  15  22
ENDBRANCH   5  12
BRANCH   6  24
ATOM     24  O   UNL     1     -36.925  17.335  -1.423  0.00  0.00    -0.465 OA
ATOM     25  C   UNL     1     -38.059  17.053  -0.606  0.00  0.00    +0.253 C 
ENDBRANCH   6  24
BRANCH   9  26
ATOM     26  O   UNL     1     -32.101  15.148   0.138  0.00  0.00    -0.505 OA
ATOM     27  H   UNL     1     -32.098  14.394   0.697  0.00  0.00    +0.292 HD
ENDBRANCH   9  26
BRANCH  10  28
ATOM     28  O   UNL     1     -36.162  14.821  -2.289  0.00  0.00    -0.503 OA
ATOM     29  H   UNL     1     -35.924  14.691  -3.186  0.00  0.00    +0.292 HD
ENDBRANCH  10  28
TORSDOF 7
ENDMDL
MODEL 9
REMARK VINA RESULT:      -5.5      2.621      6.114
REMARK  Name = 5271991
REMARK  7 active torsions:
REMARK  status: ('A' for Active; 'I' for Inactive)
REMARK    1  A    between atoms: C_5  and  C_12
REMARK    2  A    between atoms: C_6  and  O_24
REMARK    3  A    between atoms: C_9  and  O_26
REMARK    4  A    between atoms: C_10  and  O_28
REMARK    5  A    between atoms: C_13  and  O_18
REMARK    6  A    between atoms: C_14  and  O_20
REMARK    7  A    between atoms: C_15  and  O_22
REMARK                            x       y       z     vdW  Elec       q    Type
REMARK                         _______ _______ _______ _____ _____    ______ ____
ROOT
ATOM      1  O   UNL     1     -35.115  22.864   2.259  0.00  0.00    -0.450 OA
ATOM      2  O   UNL     1     -37.830  23.819  -0.625  0.00  0.00    -0.286 OA
ATOM      3  C   UNL     1     -36.968  24.257   1.533  0.00  0.00    +0.110 C 
ATOM      4  C   UNL     1     -36.012  23.879   2.474  0.00  0.00    +0.188 C 
ATOM      5  C   UNL     1     -35.168  22.180   1.054  0.00  0.00    +0.155 C 
ATOM      6  C   UNL     1     -35.940  24.544   3.698  0.00  0.00    +0.207 C 
ATOM      7  C   UNL     1     -37.021  23.539   0.249  0.00  0.00    +0.205 C 
ATOM      8  C   UNL     1     -36.036  22.454   0.068  0.00  0.00    +0.080 C 
ATOM      9  C   UNL     1     -37.856  25.298   1.805  0.00  0.00    +0.143 C 
ATOM     10  C   UNL     1     -36.826  25.586   3.975  0.00  0.00    +0.174 C 
ATOM     11  C   UNL     1     -37.781  25.962   3.030  0.00  0.00    +0.077 C 
ENDROOT
BRANCH   5  12
ATOM     12  C   UNL     1     -34.155  21.112   0.924  0.00  0.00    +0.105 C 
ATOM     13  C   UNL     1     -32.977  21.338   0.204  0.00  0.00    +0.178 C 
ATOM     14  C   UNL     1     -34.368  19.863   1.520  0.00  0.00    +0.140 C 
ATOM     15  C   UNL     1     -32.022  20.328   0.083  0.00  0.00    +0.168 C 
ATOM     16  C   UNL     1     -33.413  18.854   1.397  0.00  0.00    +0.040 C 
ATOM     17  C   UNL     1     -32.241  19.086   0.679  0.00  0.00    +0.043 C 
BRANCH  13  18
ATOM     18  O   UNL     1     -32.748  22.548  -0.385  0.00  0.00    -0.468 OA
ATOM     19  C   UNL     1     -32.979  22.635  -1.788  0.00  0.00    +0.253 C 
ENDBRANCH  13  18
BRANCH  14  20
ATOM     20  O   UNL     1     -35.505  19.606   2.228  0.00  0.00    -0.505 OA
ATOM     21  H   UNL     1     -35.491  18.986   2.929  0.00  0.00    +0.292 HD
ENDBRANCH  14  20
BRANCH  15  22
ATOM     22  O   UNL     1     -30.872  20.540  -0.617  0.00  0.00    -0.503 OA
ATOM     23  H   UNL     1     -30.384  21.330  -0.489  0.00  0.00    +0.292 HD
ENDBRANCH  15  22
ENDBRANCH   5  12
BRANCH   6  24
ATOM     24  O   UNL     1     -35.008  24.182   4.626  0.00  0.00    -0.465 OA
ATOM     25  C   UNL     1     -35.407  23.227   5.606  0.00  0.00    +0.253 C 
ENDBRANCH   6  24
BRANCH   9  26
ATOM     26  O   UNL     1     -38.806  25.705   0.918  0.00  0.00    -0.505 OA
ATOM     27  H   UNL     1     -39.713  25.548   1.099  0.00  0.00    +0.292 HD
ENDBRANCH   9  26
BRANCH  10  28
ATOM     28  O   UNL     1     -36.768  26.246   5.166  0.00  0.00    -0.503 OA
ATOM     29  H   UNL     1     -36.036  26.118   5.737  0.00  0.00    +0.292 HD
ENDBRANCH  10  28
TORSDOF 7
ENDMDL
