MODEL 1
REMARK VINA RESULT:      -5.8      0.000      0.000
REMARK  Name = 192221
REMARK  6 active torsions:
REMARK  status: ('A' for Active; 'I' for Inactive)
REMARK    1  A    between atoms: S_1  and  N_6
REMARK    2  A    between atoms: S_1  and  C_14
REMARK    3  A    between atoms: N_5  and  C_10
REMARK    4  A    between atoms: C_10  and  C_11
REMARK    5  A    between atoms: C_11  and  C_12
REMARK    6  A    between atoms: C_19  and  C_21
REMARK                            x       y       z     vdW  Elec       q    Type
REMARK                         _______ _______ _______ _____ _____    ______ ____
ROOT
ATOM      1  S   UNL     1     -36.096  23.323   4.119  0.00  0.00    +0.077 S 
ATOM      2  O   UNL     1     -37.396  23.832   3.725  0.00  0.00    -0.150 OA
ATOM      3  O   UNL     1     -35.959  22.485   5.294  0.00  0.00    -0.150 OA
ENDROOT
BRANCH   1   6
ATOM      4  O   UNL     1     -35.907  20.333   3.299  0.00  0.00    -0.251 OA
ATOM      5  N   UNL     1     -34.691  20.786   1.385  0.00  0.00    -0.288 N 
ATOM      6  N   UNL     1     -35.363  22.546   2.784  0.00  0.00    -0.169 N 
ATOM      7  C   UNL     1     -35.362  21.135   2.546  0.00  0.00    +0.319 C 
ATOM      8  H   UNL     1     -34.286  21.502   0.845  0.00  0.00    +0.151 HD
ATOM      9  H   UNL     1     -34.904  23.115   2.126  0.00  0.00    +0.178 HD
BRANCH   5  10
ATOM     10  C   UNL     1     -34.559  19.429   0.930  0.00  0.00    +0.091 C 
BRANCH  10  11
ATOM     11  C   UNL     1     -33.196  18.832   1.267  0.00  0.00    +0.021 C 
BRANCH  11  12
ATOM     12  C   UNL     1     -32.046  19.552   0.558  0.00  0.00    +0.002 C 
ATOM     13  C   UNL     1     -30.841  18.640   0.390  0.00  0.00    +0.000 C 
ENDBRANCH  11  12
ENDBRANCH  10  11
ENDBRANCH   5  10
ENDBRANCH   1   6
BRANCH   1  14
ATOM     14  C   UNL     1     -35.012  24.701   4.346  0.00  0.00    +0.125 C 
ATOM     15  C   UNL     1     -34.797  25.190   5.622  0.00  0.00    +0.020 C 
ATOM     16  C   UNL     1     -34.398  25.266   3.241  0.00  0.00    +0.020 C 
ATOM     17  C   UNL     1     -33.942  26.278   5.800  0.00  0.00    +0.005 C 
ATOM     18  C   UNL     1     -33.543  26.353   3.419  0.00  0.00    +0.005 C 
ATOM     19  C   UNL     1     -33.315  26.859   4.699  0.00  0.00    +0.042 C 
BRANCH  19  21
ATOM     20  O   UNL     1     -32.490  28.749   5.858  0.00  0.00    -0.283 OA
ATOM     21  C   UNL     1     -32.424  27.993   4.885  0.00  0.00    +0.234 C 
ENDBRANCH  19  21
ENDBRANCH   1  14
TORSDOF 6
ENDMDL
MODEL 2
REMARK VINA RESULT:      -5.7      4.653      7.025
REMARK  Name = 192221
REMARK  6 active torsions:
REMARK  status: ('A' for Active; 'I' for Inactive)
REMARK    1  A    between atoms: S_1  and  N_6
REMARK    2  A    between atoms: S_1  and  C_14
REMARK    3  A    between atoms: N_5  and  C_10
REMARK    4  A    between atoms: C_10  and  C_11
REMARK    5  A    between atoms: C_11  and  C_12
REMARK    6  A    between atoms: C_19  and  C_21
REMARK                            x       y       z     vdW  Elec       q    Type
REMARK                         _______ _______ _______ _____ _____    ______ ____
ROOT
ATOM      1  S   UNL     1     -32.106  29.363   4.370  0.00  0.00    +0.077 S 
ATOM      2  O   UNL     1     -31.731  28.953   3.031  0.00  0.00    -0.150 OA
ATOM      3  O   UNL     1     -32.984  30.498   4.574  0.00  0.00    -0.150 OA
ENDROOT
BRANCH   1   6
ATOM      4  O   UNL     1     -34.565  27.532   3.874  0.00  0.00    -0.251 OA
ATOM      5  N   UNL     1     -34.150  26.226   5.736  0.00  0.00    -0.288 N 
ATOM      6  N   UNL     1     -32.721  28.015   5.224  0.00  0.00    -0.169 N 
ATOM      7  C   UNL     1     -33.886  27.267   4.862  0.00  0.00    +0.319 C 
ATOM      8  H   UNL     1     -33.545  26.092   6.502  0.00  0.00    +0.151 HD
ATOM      9  H   UNL     1     -32.234  27.731   6.030  0.00  0.00    +0.178 HD
BRANCH   5  10
ATOM     10  C   UNL     1     -35.262  25.329   5.581  0.00  0.00    +0.091 C 
BRANCH  10  11
ATOM     11  C   UNL     1     -34.823  23.914   5.217  0.00  0.00    +0.021 C 
BRANCH  11  12
ATOM     12  C   UNL     1     -35.502  22.848   6.079  0.00  0.00    +0.002 C 
ATOM     13  C   UNL     1     -35.005  21.453   5.731  0.00  0.00    +0.000 C 
ENDBRANCH  11  12
ENDBRANCH  10  11
ENDBRANCH   5  10
ENDBRANCH   1   6
BRANCH   1  14
ATOM     14  C   UNL     1     -30.626  29.693   5.279  0.00  0.00    +0.125 C 
ATOM     15  C   UNL     1     -29.817  30.747   4.895  0.00  0.00    +0.020 C 
ATOM     16  C   UNL     1     -30.304  28.889   6.360  0.00  0.00    +0.020 C 
ATOM     17  C   UNL     1     -28.648  31.007   5.612  0.00  0.00    +0.005 C 
ATOM     18  C   UNL     1     -29.136  29.149   7.077  0.00  0.00    +0.005 C 
ATOM     19  C   UNL     1     -28.308  30.207   6.703  0.00  0.00    +0.042 C 
BRANCH  19  21
ATOM     20  O   UNL     1     -27.044  30.481   8.684  0.00  0.00    -0.283 OA
ATOM     21  C   UNL     1     -27.091  30.478   7.451  0.00  0.00    +0.234 C 
ENDBRANCH  19  21
ENDBRANCH   1  14
TORSDOF 6
ENDMDL
MODEL 3
REMARK VINA RESULT:      -5.6      2.552      7.044
REMARK  Name = 192221
REMARK  6 active torsions:
REMARK  status: ('A' for Active; 'I' for Inactive)
REMARK    1  A    between atoms: S_1  and  N_6
REMARK    2  A    between atoms: S_1  and  C_14
REMARK    3  A    between atoms: N_5  and  C_10
REMARK    4  A    between atoms: C_10  and  C_11
REMARK    5  A    between atoms: C_11  and  C_12
REMARK    6  A    between atoms: C_19  and  C_21
REMARK                            x       y       z     vdW  Elec       q    Type
REMARK                         _______ _______ _______ _____ _____    ______ ____
ROOT
ATOM      1  S   UNL     1     -35.862  20.882   1.612  0.00  0.00    +0.077 S 
ATOM      2  O   UNL     1     -36.323  19.910   2.584  0.00  0.00    -0.150 OA
ATOM      3  O   UNL     1     -36.634  21.148   0.414  0.00  0.00    -0.150 OA
ENDROOT
BRANCH   1   6
ATOM      4  O   UNL     1     -37.673  22.863   3.175  0.00  0.00    -0.251 OA
ATOM      5  N   UNL     1     -35.933  24.314   3.639  0.00  0.00    -0.288 N 
ATOM      6  N   UNL     1     -35.526  22.361   2.404  0.00  0.00    -0.169 N 
ATOM      7  C   UNL     1     -36.488  23.170   3.090  0.00  0.00    +0.319 C 
ATOM      8  H   UNL     1     -34.969  24.473   3.516  0.00  0.00    +0.151 HD
ATOM      9  H   UNL     1     -34.596  22.681   2.388  0.00  0.00    +0.178 HD
BRANCH   5  10
ATOM     10  C   UNL     1     -36.696  25.281   4.379  0.00  0.00    +0.091 C 
BRANCH  10  11
ATOM     11  C   UNL     1     -35.947  25.800   5.602  0.00  0.00    +0.021 C 
BRANCH  11  12
ATOM     12  C   UNL     1     -34.470  25.398   5.602  0.00  0.00    +0.002 C 
ATOM     13  C   UNL     1     -33.584  26.539   6.079  0.00  0.00    +0.000 C 
ENDBRANCH  11  12
ENDBRANCH  10  11
ENDBRANCH   5  10
ENDBRANCH   1   6
BRANCH   1  14
ATOM     14  C   UNL     1     -34.244  20.407   1.083  0.00  0.00    +0.125 C 
ATOM     15  C   UNL     1     -33.724  19.196   1.502  0.00  0.00    +0.020 C 
ATOM     16  C   UNL     1     -33.526  21.258   0.259  0.00  0.00    +0.020 C 
ATOM     17  C   UNL     1     -32.446  18.821   1.085  0.00  0.00    +0.005 C 
ATOM     18  C   UNL     1     -32.248  20.883  -0.158  0.00  0.00    +0.005 C 
ATOM     19  C   UNL     1     -31.709  19.665   0.255  0.00  0.00    +0.042 C 
BRANCH  19  21
ATOM     20  O   UNL     1     -29.714  18.399   0.383  0.00  0.00    -0.283 OA
ATOM     21  C   UNL     1     -30.377  19.275  -0.180  0.00  0.00    +0.234 C 
ENDBRANCH  19  21
ENDBRANCH   1  14
TORSDOF 6
ENDMDL
MODEL 4
REMARK VINA RESULT:      -5.6      1.965      2.233
REMARK  Name = 192221
REMARK  6 active torsions:
REMARK  status: ('A' for Active; 'I' for Inactive)
REMARK    1  A    between atoms: S_1  and  N_6
REMARK    2  A    between atoms: S_1  and  C_14
REMARK    3  A    between atoms: N_5  and  C_10
REMARK    4  A    between atoms: C_10  and  C_11
REMARK    5  A    between atoms: C_11  and  C_12
REMARK    6  A    between atoms: C_19  and  C_21
REMARK                            x       y       z     vdW  Elec       q    Type
REMARK                         _______ _______ _______ _____ _____    ______ ____
ROOT
ATOM      1  S   UNL     1     -38.203  24.385   2.974  0.00  0.00    +0.077 S 
ATOM      2  O   UNL     1     -38.193  24.899   1.618  0.00  0.00    -0.150 OA
ATOM      3  O   UNL     1     -39.349  24.601   3.835  0.00  0.00    -0.150 OA
ENDROOT
BRANCH   1   6
ATOM      4  O   UNL     1     -36.195  22.731   1.276  0.00  0.00    -0.251 OA
ATOM      5  N   UNL     1     -36.762  20.732   2.289  0.00  0.00    -0.288 N 
ATOM      6  N   UNL     1     -37.825  22.716   2.949  0.00  0.00    -0.169 N 
ATOM      7  C   UNL     1     -36.860  22.099   2.091  0.00  0.00    +0.319 C 
ATOM      8  H   UNL     1     -37.339  20.314   2.969  0.00  0.00    +0.151 HD
ATOM      9  H   UNL     1     -38.311  22.134   3.576  0.00  0.00    +0.178 HD
BRANCH   5  10
ATOM     10  C   UNL     1     -35.859  19.892   1.551  0.00  0.00    +0.091 C 
BRANCH  10  11
ATOM     11  C   UNL     1     -34.453  19.887   2.144  0.00  0.00    +0.021 C 
BRANCH  11  12
ATOM     12  C   UNL     1     -33.444  19.153   1.257  0.00  0.00    +0.002 C 
ATOM     13  C   UNL     1     -32.644  20.125   0.404  0.00  0.00    +0.000 C 
ENDBRANCH  11  12
ENDBRANCH  10  11
ENDBRANCH   5  10
ENDBRANCH   1   6
BRANCH   1  14
ATOM     14  C   UNL     1     -36.796  25.038   3.821  0.00  0.00    +0.125 C 
ATOM     15  C   UNL     1     -36.317  24.383   4.942  0.00  0.00    +0.020 C 
ATOM     16  C   UNL     1     -36.198  26.193   3.347  0.00  0.00    +0.020 C 
ATOM     17  C   UNL     1     -35.207  24.898   5.611  0.00  0.00    +0.005 C 
ATOM     18  C   UNL     1     -35.088  26.709   4.017  0.00  0.00    +0.005 C 
ATOM     19  C   UNL     1     -34.593  26.062   5.148  0.00  0.00    +0.042 C 
BRANCH  19  21
ATOM     20  O   UNL     1     -32.964  27.714   5.608  0.00  0.00    -0.283 OA
ATOM     21  C   UNL     1     -33.436  26.599   5.846  0.00  0.00    +0.234 C 
ENDBRANCH  19  21
ENDBRANCH   1  14
TORSDOF 6
ENDMDL
MODEL 5
REMARK VINA RESULT:      -5.5      7.758      9.712
REMARK  Name = 192221
REMARK  6 active torsions:
REMARK  status: ('A' for Active; 'I' for Inactive)
REMARK    1  A    between atoms: S_1  and  N_6
REMARK    2  A    between atoms: S_1  and  C_14
REMARK    3  A    between atoms: N_5  and  C_10
REMARK    4  A    between atoms: C_10  and  C_11
REMARK    5  A    between atoms: C_11  and  C_12
REMARK    6  A    between atoms: C_19  and  C_21
REMARK                            x       y       z     vdW  Elec       q    Type
REMARK                         _______ _______ _______ _____ _____    ______ ____
ROOT
ATOM      1  S   UNL     1     -42.120  27.553   3.511  0.00  0.00    +0.077 S 
ATOM      2  O   UNL     1     -41.996  28.577   4.531  0.00  0.00    -0.150 OA
ATOM      3  O   UNL     1     -41.978  27.889   2.108  0.00  0.00    -0.150 OA
ENDROOT
BRANCH   1   6
ATOM      4  O   UNL     1     -39.367  26.694   2.358  0.00  0.00    -0.251 OA
ATOM      5  N   UNL     1     -39.189  24.864   3.758  0.00  0.00    -0.288 N 
ATOM      6  N   UNL     1     -41.076  26.251   3.887  0.00  0.00    -0.169 N 
ATOM      7  C   UNL     1     -39.821  25.987   3.252  0.00  0.00    +0.319 C 
ATOM      8  H   UNL     1     -39.633  24.360   4.478  0.00  0.00    +0.151 HD
ATOM      9  H   UNL     1     -41.362  25.634   4.598  0.00  0.00    +0.178 HD
BRANCH   5  10
ATOM     10  C   UNL     1     -37.914  24.397   3.286  0.00  0.00    +0.091 C 
BRANCH  10  11
ATOM     11  C   UNL     1     -36.775  24.754   4.236  0.00  0.00    +0.021 C 
BRANCH  11  12
ATOM     12  C   UNL     1     -35.703  23.663   4.305  0.00  0.00    +0.002 C 
ATOM     13  C   UNL     1     -35.456  23.218   5.738  0.00  0.00    +0.000 C 
ENDBRANCH  11  12
ENDBRANCH  10  11
ENDBRANCH   5  10
ENDBRANCH   1   6
BRANCH   1  14
ATOM     14  C   UNL     1     -43.701  26.783   3.695  0.00  0.00    +0.125 C 
ATOM     15  C   UNL     1     -44.426  26.996   4.853  0.00  0.00    +0.020 C 
ATOM     16  C   UNL     1     -44.182  25.979   2.675  0.00  0.00    +0.020 C 
ATOM     17  C   UNL     1     -45.673  26.387   4.998  0.00  0.00    +0.005 C 
ATOM     18  C   UNL     1     -45.429  25.371   2.820  0.00  0.00    +0.005 C 
ATOM     19  C   UNL     1     -46.174  25.574   3.981  0.00  0.00    +0.042 C 
BRANCH  19  21
ATOM     20  O   UNL     1     -47.654  23.728   3.984  0.00  0.00    -0.283 OA
ATOM     21  C   UNL     1     -47.474  24.940   4.132  0.00  0.00    +0.234 C 
ENDBRANCH  19  21
ENDBRANCH   1  14
TORSDOF 6
ENDMDL
MODEL 6
REMARK VINA RESULT:      -5.5      3.149      7.359
REMARK  Name = 192221
REMARK  6 active torsions:
REMARK  status: ('A' for Active; 'I' for Inactive)
REMARK    1  A    between atoms: S_1  and  N_6
REMARK    2  A    between atoms: S_1  and  C_14
REMARK    3  A    between atoms: N_5  and  C_10
REMARK    4  A    between atoms: C_10  and  C_11
REMARK    5  A    between atoms: C_11  and  C_12
REMARK    6  A    between atoms: C_19  and  C_21
REMARK                            x       y       z     vdW  Elec       q    Type
REMARK                         _______ _______ _______ _____ _____    ______ ____
ROOT
ATOM      1  S   UNL     1     -35.055  20.575   0.561  0.00  0.00    +0.077 S 
ATOM      2  O   UNL     1     -36.028  19.653   1.113  0.00  0.00    -0.150 OA
ATOM      3  O   UNL     1     -35.225  21.114  -0.774  0.00  0.00    -0.150 OA
ENDROOT
BRANCH   1   6
ATOM      4  O   UNL     1     -37.035  22.357   2.157  0.00  0.00    -0.251 OA
ATOM      5  N   UNL     1     -35.349  23.586   3.156  0.00  0.00    -0.288 N 
ATOM      6  N   UNL     1     -34.807  21.862   1.660  0.00  0.00    -0.169 N 
ATOM      7  C   UNL     1     -35.842  22.597   2.321  0.00  0.00    +0.319 C 
ATOM      8  H   UNL     1     -34.373  23.701   3.222  0.00  0.00    +0.151 HD
ATOM      9  H   UNL     1     -33.877  22.119   1.852  0.00  0.00    +0.178 HD
BRANCH   5  10
ATOM     10  C   UNL     1     -36.192  24.452   3.933  0.00  0.00    +0.091 C 
BRANCH  10  11
ATOM     11  C   UNL     1     -35.841  24.429   5.417  0.00  0.00    +0.021 C 
BRANCH  11  12
ATOM     12  C   UNL     1     -34.853  23.315   5.770  0.00  0.00    +0.002 C 
ATOM     13  C   UNL     1     -35.561  22.126   6.404  0.00  0.00    +0.000 C 
ENDBRANCH  11  12
ENDBRANCH  10  11
ENDBRANCH   5  10
ENDBRANCH   1   6
BRANCH   1  14
ATOM     14  C   UNL     1     -33.471  19.791   0.597  0.00  0.00    +0.125 C 
ATOM     15  C   UNL     1     -32.413  20.372  -0.080  0.00  0.00    +0.020 C 
ATOM     16  C   UNL     1     -33.318  18.608   1.301  0.00  0.00    +0.020 C 
ATOM     17  C   UNL     1     -31.163  19.753  -0.052  0.00  0.00    +0.005 C 
ATOM     18  C   UNL     1     -32.068  17.989   1.328  0.00  0.00    +0.005 C 
ATOM     19  C   UNL     1     -30.991  18.561   0.652  0.00  0.00    +0.042 C 
BRANCH  19  21
ATOM     20  O   UNL     1     -29.536  16.717   0.932  0.00  0.00    -0.283 OA
ATOM     21  C   UNL     1     -29.688  17.916   0.681  0.00  0.00    +0.234 C 
ENDBRANCH  19  21
ENDBRANCH   1  14
TORSDOF 6
ENDMDL
MODEL 7
REMARK VINA RESULT:      -5.5      5.687      8.431
REMARK  Name = 192221
REMARK  6 active torsions:
REMARK  status: ('A' for Active; 'I' for Inactive)
REMARK    1  A    between atoms: S_1  and  N_6
REMARK    2  A    between atoms: S_1  and  C_14
REMARK    3  A    between atoms: N_5  and  C_10
REMARK    4  A    between atoms: C_10  and  C_11
REMARK    5  A    between atoms: C_11  and  C_12
REMARK    6  A    between atoms: C_19  and  C_21
REMARK                            x       y       z     vdW  Elec       q    Type
REMARK                         _______ _______ _______ _____ _____    ______ ____
ROOT
ATOM      1  S   UNL     1     -38.348  25.684   2.348  0.00  0.00    +0.077 S 
ATOM      2  O   UNL     1     -38.712  24.938   1.159  0.00  0.00    -0.150 OA
ATOM      3  O   UNL     1     -37.670  26.960   2.239  0.00  0.00    -0.150 OA
ENDROOT
BRANCH   1   6
ATOM      4  O   UNL     1     -41.034  27.190   1.944  0.00  0.00    -0.251 OA
ATOM      5  N   UNL     1     -41.858  26.574   4.015  0.00  0.00    -0.288 N 
ATOM      6  N   UNL     1     -39.724  25.861   3.349  0.00  0.00    -0.169 N 
ATOM      7  C   UNL     1     -40.901  26.602   3.013  0.00  0.00    +0.319 C 
ATOM      8  H   UNL     1     -41.659  26.073   4.840  0.00  0.00    +0.151 HD
ATOM      9  H   UNL     1     -39.704  25.418   4.227  0.00  0.00    +0.178 HD
BRANCH   5  10
ATOM     10  C   UNL     1     -43.127  27.240   3.911  0.00  0.00    +0.091 C 
BRANCH  10  11
ATOM     11  C   UNL     1     -44.148  26.425   3.123  0.00  0.00    +0.021 C 
BRANCH  11  12
ATOM     12  C   UNL     1     -45.405  26.110   3.939  0.00  0.00    +0.002 C 
ATOM     13  C   UNL     1     -45.303  26.666   5.351  0.00  0.00    +0.000 C 
ENDBRANCH  11  12
ENDBRANCH  10  11
ENDBRANCH   5  10
ENDBRANCH   1   6
BRANCH   1  14
ATOM     14  C   UNL     1     -37.329  24.648   3.356  0.00  0.00    +0.125 C 
ATOM     15  C   UNL     1     -36.733  25.180   4.486  0.00  0.00    +0.020 C 
ATOM     16  C   UNL     1     -37.145  23.325   2.995  0.00  0.00    +0.020 C 
ATOM     17  C   UNL     1     -35.928  24.364   5.280  0.00  0.00    +0.005 C 
ATOM     18  C   UNL     1     -36.340  22.508   3.790  0.00  0.00    +0.005 C 
ATOM     19  C   UNL     1     -35.732  23.028   4.932  0.00  0.00    +0.042 C 
BRANCH  19  21
ATOM     20  O   UNL     1     -34.896  20.945   5.681  0.00  0.00    -0.283 OA
ATOM     21  C   UNL     1     -34.893  22.176   5.760  0.00  0.00    +0.234 C 
ENDBRANCH  19  21
ENDBRANCH   1  14
TORSDOF 6
ENDMDL
MODEL 8
REMARK VINA RESULT:      -5.4      3.917      7.099
REMARK  Name = 192221
REMARK  6 active torsions:
REMARK  status: ('A' for Active; 'I' for Inactive)
REMARK    1  A    between atoms: S_1  and  N_6
REMARK    2  A    between atoms: S_1  and  C_14
REMARK    3  A    between atoms: N_5  and  C_10
REMARK    4  A    between atoms: C_10  and  C_11
REMARK    5  A    between atoms: C_11  and  C_12
REMARK    6  A    between atoms: C_19  and  C_21
REMARK                            x       y       z     vdW  Elec       q    Type
REMARK                         _______ _______ _______ _____ _____    ______ ____
ROOT
ATOM      1  S   UNL     1     -36.796  26.393   2.268  0.00  0.00    +0.077 S 
ATOM      2  O   UNL     1     -38.218  26.600   2.462  0.00  0.00    -0.150 OA
ATOM      3  O   UNL     1     -36.268  26.091   0.952  0.00  0.00    -0.150 OA
ENDROOT
BRANCH   1   6
ATOM      4  O   UNL     1     -33.815  27.242   2.073  0.00  0.00    -0.251 OA
ATOM      5  N   UNL     1     -34.112  29.114   3.397  0.00  0.00    -0.288 N 
ATOM      6  N   UNL     1     -35.936  27.715   2.929  0.00  0.00    -0.169 N 
ATOM      7  C   UNL     1     -34.540  27.970   2.745  0.00  0.00    +0.319 C 
ATOM      8  H   UNL     1     -34.770  29.634   3.912  0.00  0.00    +0.151 HD
ATOM      9  H   UNL     1     -36.443  28.353   3.480  0.00  0.00    +0.178 HD
BRANCH   5  10
ATOM     10  C   UNL     1     -32.753  29.582   3.358  0.00  0.00    +0.091 C 
BRANCH  10  11
ATOM     11  C   UNL     1     -32.283  30.120   4.705  0.00  0.00    +0.021 C 
BRANCH  11  12
ATOM     12  C   UNL     1     -31.892  29.005   5.680  0.00  0.00    +0.002 C 
ATOM     13  C   UNL     1     -31.598  29.558   7.066  0.00  0.00    +0.000 C 
ENDBRANCH  11  12
ENDBRANCH  10  11
ENDBRANCH   5  10
ENDBRANCH   1   6
BRANCH   1  14
ATOM     14  C   UNL     1     -36.279  25.084   3.339  0.00  0.00    +0.125 C 
ATOM     15  C   UNL     1     -36.170  25.326   4.697  0.00  0.00    +0.020 C 
ATOM     16  C   UNL     1     -35.992  23.843   2.798  0.00  0.00    +0.020 C 
ATOM     17  C   UNL     1     -35.762  24.294   5.542  0.00  0.00    +0.005 C 
ATOM     18  C   UNL     1     -35.584  22.811   3.643  0.00  0.00    +0.005 C 
ATOM     19  C   UNL     1     -35.468  23.036   5.014  0.00  0.00    +0.042 C 
BRANCH  19  21
ATOM     20  O   UNL     1     -35.026  20.775   5.552  0.00  0.00    -0.283 OA
ATOM     21  C   UNL     1     -35.043  21.960   5.895  0.00  0.00    +0.234 C 
ENDBRANCH  19  21
ENDBRANCH   1  14
TORSDOF 6
ENDMDL
MODEL 9
REMARK VINA RESULT:      -5.4      5.936      8.093
REMARK  Name = 192221
REMARK  6 active torsions:
REMARK  status: ('A' for Active; 'I' for Inactive)
REMARK    1  A    between atoms: S_1  and  N_6
REMARK    2  A    between atoms: S_1  and  C_14
REMARK    3  A    between atoms: N_5  and  C_10
REMARK    4  A    between atoms: C_10  and  C_11
REMARK    5  A    between atoms: C_11  and  C_12
REMARK    6  A    between atoms: C_19  and  C_21
REMARK                            x       y       z     vdW  Elec       q    Type
REMARK                         _______ _______ _______ _____ _____    ______ ____
ROOT
ATOM      1  S   UNL     1     -39.357  26.025   1.832  0.00  0.00    +0.077 S 
ATOM      2  O   UNL     1     -38.970  27.247   1.153  0.00  0.00    -0.150 OA
ATOM      3  O   UNL     1     -39.224  24.741   1.171  0.00  0.00    -0.150 OA
ENDROOT
BRANCH   1   6
ATOM      4  O   UNL     1     -36.363  26.122   2.653  0.00  0.00    -0.251 OA
ATOM      5  N   UNL     1     -36.826  25.932   4.911  0.00  0.00    -0.288 N 
ATOM      6  N   UNL     1     -38.584  25.954   3.357  0.00  0.00    -0.169 N 
ATOM      7  C   UNL     1     -37.170  26.011   3.571  0.00  0.00    +0.319 C 
ATOM      8  H   UNL     1     -37.548  25.845   5.575  0.00  0.00    +0.151 HD
ATOM      9  H   UNL     1     -39.158  25.868   4.151  0.00  0.00    +0.178 HD
BRANCH   5  10
ATOM     10  C   UNL     1     -35.468  25.973   5.379  0.00  0.00    +0.091 C 
BRANCH  10  11
ATOM     11  C   UNL     1     -34.804  24.600   5.360  0.00  0.00    +0.021 C 
BRANCH  11  12
ATOM     12  C   UNL     1     -35.802  23.461   5.590  0.00  0.00    +0.002 C 
ATOM     13  C   UNL     1     -35.098  22.191   6.043  0.00  0.00    +0.000 C 
ENDBRANCH  11  12
ENDBRANCH  10  11
ENDBRANCH   5  10
ENDBRANCH   1   6
BRANCH   1  14
ATOM     14  C   UNL     1     -41.049  26.177   2.318  0.00  0.00    +0.125 C 
ATOM     15  C   UNL     1     -42.040  25.709   1.473  0.00  0.00    +0.020 C 
ATOM     16  C   UNL     1     -41.352  26.763   3.536  0.00  0.00    +0.020 C 
ATOM     17  C   UNL     1     -43.376  25.830   1.856  0.00  0.00    +0.005 C 
ATOM     18  C   UNL     1     -42.688  26.883   3.919  0.00  0.00    +0.005 C 
ATOM     19  C   UNL     1     -43.700  26.418   3.079  0.00  0.00    +0.042 C 
BRANCH  19  21
ATOM     20  O   UNL     1     -45.528  26.112   4.550  0.00  0.00    -0.283 OA
ATOM     21  C   UNL     1     -45.093  26.543   3.479  0.00  0.00    +0.234 C 
ENDBRANCH  19  21
ENDBRANCH   1  14
TORSDOF 6
ENDMDL
