MODEL 1
REMARK VINA RESULT:      -6.0      0.000      0.000
REMARK  Name = 193252
REMARK  9 active torsions:
REMARK  status: ('A' for Active; 'I' for Inactive)
REMARK    1  A    between atoms: C_1  and  C_4
REMARK    2  A    between atoms: C_1  and  N_11
REMARK    3  A    between atoms: C_1  and  C_23
REMARK    4  A    between atoms: N_3  and  C_6
REMARK    5  A    between atoms: C_6  and  C_8
REMARK    6  A    between atoms: C_8  and  O_9
REMARK    7  A    between atoms: N_11  and  S_13
REMARK    8  A    between atoms: S_13  and  C_16
REMARK    9  A    between atoms: C_23  and  O_24
REMARK                            x       y       z     vdW  Elec       q    Type
REMARK                         _______ _______ _______ _____ _____    ______ ____
ROOT
ATOM      1  C   UNL     1     -39.118  24.779   2.529  0.00  0.00    +0.180 C 
ENDROOT
BRANCH   1   4
ATOM      2  O   UNL     1     -37.293  26.365   2.596  0.00  0.00    -0.274 OA
ATOM      3  N   UNL     1     -37.468  24.784   4.287  0.00  0.00    -0.294 N 
ATOM      4  C   UNL     1     -37.869  25.411   3.115  0.00  0.00    +0.241 C 
ATOM      5  H   UNL     1     -38.001  24.027   4.619  0.00  0.00    +0.150 HD
BRANCH   3   6
ATOM      6  C   UNL     1     -36.305  25.191   5.043  0.00  0.00    +0.201 C 
BRANCH   6   8
ATOM      7  O   UNL     1     -34.179  24.078   5.030  0.00  0.00    -0.248 OA
ATOM      8  C   UNL     1     -35.363  24.050   5.346  0.00  0.00    +0.337 C 
BRANCH   8   9
ATOM      9  O   UNL     1     -35.983  23.023   5.993  0.00  0.00    -0.443 OA
ATOM     10  C   UNL     1     -35.234  21.807   6.088  0.00  0.00    +0.256 C 
ENDBRANCH   8   9
ENDBRANCH   6   8
ENDBRANCH   3   6
ENDBRANCH   1   4
BRANCH   1  11
ATOM     11  N   UNL     1     -39.127  23.347   2.898  0.00  0.00    -0.169 NA
ATOM     12  H   UNL     1     -38.225  23.149   3.333  0.00  0.00    +0.149 HD
BRANCH  11  13
ATOM     13  S   UNL     1     -39.364  22.164   1.702  0.00  0.00    +0.061 S 
ATOM     14  O   UNL     1     -39.586  22.810   0.422  0.00  0.00    -0.153 OA
ATOM     15  O   UNL     1     -40.307  21.179   2.195  0.00  0.00    -0.153 OA
BRANCH  13  16
ATOM     16  C   UNL     1     -37.780  21.379   1.647  0.00  0.00    +0.122 C 
ATOM     17  C   UNL     1     -36.801  21.772   2.543  0.00  0.00    +0.020 C 
ATOM     18  C   UNL     1     -37.549  20.387   0.710  0.00  0.00    +0.020 C 
ATOM     19  C   UNL     1     -35.301  20.152   1.562  0.00  0.00    -0.022 C 
ATOM     20  C   UNL     1     -35.552  21.153   2.501  0.00  0.00    -0.003 C 
ATOM     21  C   UNL     1     -36.300  19.768   0.668  0.00  0.00    -0.003 C 
ATOM     22  C   UNL     1     -33.965  19.491   1.516  0.00  0.00    +0.031 C 
ENDBRANCH  13  16
ENDBRANCH  11  13
ENDBRANCH   1  11
BRANCH   1  23
ATOM     23  C   UNL     1     -40.393  25.453   3.023  0.00  0.00    +0.164 C 
BRANCH  23  24
ATOM     24  O   UNL     1     -40.081  26.663   3.704  0.00  0.00    -0.380 OA
ATOM     25  H   UNL     1     -40.737  26.820   4.401  0.00  0.00    +0.211 HD
ENDBRANCH  23  24
ENDBRANCH   1  23
TORSDOF 9
ENDMDL
MODEL 2
REMARK VINA RESULT:      -5.8      3.259      6.877
REMARK  Name = 193252
REMARK  9 active torsions:
REMARK  status: ('A' for Active; 'I' for Inactive)
REMARK    1  A    between atoms: C_1  and  C_4
REMARK    2  A    between atoms: C_1  and  N_11
REMARK    3  A    between atoms: C_1  and  C_23
REMARK    4  A    between atoms: N_3  and  C_6
REMARK    5  A    between atoms: C_6  and  C_8
REMARK    6  A    between atoms: C_8  and  O_9
REMARK    7  A    between atoms: N_11  and  S_13
REMARK    8  A    between atoms: S_13  and  C_16
REMARK    9  A    between atoms: C_23  and  O_24
REMARK                            x       y       z     vdW  Elec       q    Type
REMARK                         _______ _______ _______ _____ _____    ______ ____
ROOT
ATOM      1  C   UNL     1     -34.997  22.862   4.803  0.00  0.00    +0.180 C 
ENDROOT
BRANCH   1   4
ATOM      2  O   UNL     1     -35.313  21.460   2.859  0.00  0.00    -0.274 OA
ATOM      3  N   UNL     1     -37.094  22.740   3.619  0.00  0.00    -0.294 N 
ATOM      4  C   UNL     1     -35.789  22.266   3.655  0.00  0.00    +0.241 C 
ATOM      5  H   UNL     1     -37.376  23.386   4.306  0.00  0.00    +0.150 HD
BRANCH   3   6
ATOM      6  C   UNL     1     -38.056  22.331   2.621  0.00  0.00    +0.201 C 
BRANCH   6   8
ATOM      7  O   UNL     1     -40.269  22.930   1.911  0.00  0.00    -0.248 OA
ATOM      8  C   UNL     1     -39.277  23.219   2.573  0.00  0.00    +0.337 C 
BRANCH   8   9
ATOM      9  O   UNL     1     -39.134  24.340   3.333  0.00  0.00    -0.443 OA
ATOM     10  C   UNL     1     -40.147  25.338   3.163  0.00  0.00    +0.256 C 
ENDBRANCH   8   9
ENDBRANCH   6   8
ENDBRANCH   3   6
ENDBRANCH   1   4
BRANCH   1  11
ATOM     11  N   UNL     1     -35.395  24.279   4.951  0.00  0.00    -0.169 NA
ATOM     12  H   UNL     1     -36.414  24.297   4.986  0.00  0.00    +0.149 HD
BRANCH  11  13
ATOM     13  S   UNL     1     -34.925  25.419   3.780  0.00  0.00    +0.061 S 
ATOM     14  O   UNL     1     -36.082  26.194   3.372  0.00  0.00    -0.153 OA
ATOM     15  O   UNL     1     -34.102  24.759   2.785  0.00  0.00    -0.153 OA
BRANCH  13  16
ATOM     16  C   UNL     1     -33.859  26.479   4.710  0.00  0.00    +0.122 C 
ATOM     17  C   UNL     1     -33.189  27.500   4.061  0.00  0.00    +0.020 C 
ATOM     18  C   UNL     1     -33.716  26.268   6.071  0.00  0.00    +0.020 C 
ATOM     19  C   UNL     1     -32.191  28.139   6.166  0.00  0.00    -0.022 C 
ATOM     20  C   UNL     1     -32.348  28.337   4.794  0.00  0.00    -0.003 C 
ATOM     21  C   UNL     1     -32.875  27.105   6.804  0.00  0.00    -0.003 C 
ATOM     22  C   UNL     1     -31.291  29.033   6.951  0.00  0.00    +0.031 C 
ENDBRANCH  13  16
ENDBRANCH  11  13
ENDBRANCH   1  11
BRANCH   1  23
ATOM     23  C   UNL     1     -35.228  22.118   6.113  0.00  0.00    +0.164 C 
BRANCH  23  24
ATOM     24  O   UNL     1     -35.582  20.764   5.856  0.00  0.00    -0.380 OA
ATOM     25  H   UNL     1     -36.384  20.540   6.353  0.00  0.00    +0.211 HD
ENDBRANCH  23  24
ENDBRANCH   1  23
TORSDOF 9
ENDMDL
MODEL 3
REMARK VINA RESULT:      -5.7      2.750      4.159
REMARK  Name = 193252
REMARK  9 active torsions:
REMARK  status: ('A' for Active; 'I' for Inactive)
REMARK    1  A    between atoms: C_1  and  C_4
REMARK    2  A    between atoms: C_1  and  N_11
REMARK    3  A    between atoms: C_1  and  C_23
REMARK    4  A    between atoms: N_3  and  C_6
REMARK    5  A    between atoms: C_6  and  C_8
REMARK    6  A    between atoms: C_8  and  O_9
REMARK    7  A    between atoms: N_11  and  S_13
REMARK    8  A    between atoms: S_13  and  C_16
REMARK    9  A    between atoms: C_23  and  O_24
REMARK                            x       y       z     vdW  Elec       q    Type
REMARK                         _______ _______ _______ _____ _____    ______ ____
ROOT
ATOM      1  C   UNL     1     -36.090  22.349   4.073  0.00  0.00    +0.180 C 
ENDROOT
BRANCH   1   4
ATOM      2  O   UNL     1     -37.425  24.358   3.908  0.00  0.00    -0.274 OA
ATOM      3  N   UNL     1     -35.379  24.459   4.999  0.00  0.00    -0.294 N 
ATOM      4  C   UNL     1     -36.395  23.818   4.302  0.00  0.00    +0.241 C 
ATOM      5  H   UNL     1     -34.593  23.932   5.271  0.00  0.00    +0.150 HD
BRANCH   3   6
ATOM      6  C   UNL     1     -35.421  25.861   5.344  0.00  0.00    +0.201 C 
BRANCH   6   8
ATOM      7  O   UNL     1     -33.057  26.271   5.280  0.00  0.00    -0.248 OA
ATOM      8  C   UNL     1     -34.180  26.615   4.926  0.00  0.00    +0.337 C 
BRANCH   8   9
ATOM      9  O   UNL     1     -34.465  27.686   4.136  0.00  0.00    -0.443 OA
ATOM     10  C   UNL     1     -35.153  27.392   2.914  0.00  0.00    +0.256 C 
ENDBRANCH   8   9
ENDBRANCH   6   8
ENDBRANCH   3   6
ENDBRANCH   1   4
BRANCH   1  11
ATOM     11  N   UNL     1     -35.324  22.229   2.814  0.00  0.00    -0.169 NA
ATOM     12  H   UNL     1     -35.381  23.133   2.346  0.00  0.00    +0.149 HD
BRANCH  11  13
ATOM     13  S   UNL     1     -35.760  21.055   1.664  0.00  0.00    +0.061 S 
ATOM     14  O   UNL     1     -36.395  21.703   0.531  0.00  0.00    -0.153 OA
ATOM     15  O   UNL     1     -36.421  19.956   2.341  0.00  0.00    -0.153 OA
BRANCH  13  16
ATOM     16  C   UNL     1     -34.181  20.459   1.135  0.00  0.00    +0.122 C 
ATOM     17  C   UNL     1     -33.407  21.248   0.302  0.00  0.00    +0.020 C 
ATOM     18  C   UNL     1     -33.749  19.217   1.564  0.00  0.00    +0.020 C 
ATOM     19  C   UNL     1     -31.711  19.528   0.307  0.00  0.00    -0.022 C 
ATOM     20  C   UNL     1     -32.161  20.778  -0.115  0.00  0.00    -0.003 C 
ATOM     21  C   UNL     1     -32.504  18.747   1.147  0.00  0.00    -0.003 C 
ATOM     22  C   UNL     1     -30.379  19.025  -0.140  0.00  0.00    +0.031 C 
ENDBRANCH  13  16
ENDBRANCH  11  13
ENDBRANCH   1  11
BRANCH   1  23
ATOM     23  C   UNL     1     -35.301  21.736   5.224  0.00  0.00    +0.164 C 
BRANCH  23  24
ATOM     24  O   UNL     1     -36.026  21.860   6.442  0.00  0.00    -0.380 OA
ATOM     25  H   UNL     1     -35.449  22.240   7.124  0.00  0.00    +0.211 HD
ENDBRANCH  23  24
ENDBRANCH   1  23
TORSDOF 9
ENDMDL
MODEL 4
REMARK VINA RESULT:      -5.6      4.228      5.900
REMARK  Name = 193252
REMARK  9 active torsions:
REMARK  status: ('A' for Active; 'I' for Inactive)
REMARK    1  A    between atoms: C_1  and  C_4
REMARK    2  A    between atoms: C_1  and  N_11
REMARK    3  A    between atoms: C_1  and  C_23
REMARK    4  A    between atoms: N_3  and  C_6
REMARK    5  A    between atoms: C_6  and  C_8
REMARK    6  A    between atoms: C_8  and  O_9
REMARK    7  A    between atoms: N_11  and  S_13
REMARK    8  A    between atoms: S_13  and  C_16
REMARK    9  A    between atoms: C_23  and  O_24
REMARK                            x       y       z     vdW  Elec       q    Type
REMARK                         _______ _______ _______ _____ _____    ______ ____
ROOT
ATOM      1  C   UNL     1     -34.411  28.730   2.626  0.00  0.00    +0.180 C 
ENDROOT
BRANCH   1   4
ATOM      2  O   UNL     1     -32.230  27.749   2.987  0.00  0.00    -0.274 OA
ATOM      3  N   UNL     1     -33.012  29.331   4.496  0.00  0.00    -0.294 N 
ATOM      4  C   UNL     1     -33.099  28.532   3.364  0.00  0.00    +0.241 C 
ATOM      5  H   UNL     1     -33.767  29.926   4.709  0.00  0.00    +0.150 HD
BRANCH   3   6
ATOM      6  C   UNL     1     -31.866  29.330   5.376  0.00  0.00    +0.201 C 
BRANCH   6   8
ATOM      7  O   UNL     1     -32.765  27.590   6.763  0.00  0.00    -0.248 OA
ATOM      8  C   UNL     1     -31.777  28.093   6.238  0.00  0.00    +0.337 C 
BRANCH   8   9
ATOM      9  O   UNL     1     -30.502  27.629   6.350  0.00  0.00    -0.443 OA
ATOM     10  C   UNL     1     -29.475  28.521   5.904  0.00  0.00    +0.256 C 
ENDBRANCH   8   9
ENDBRANCH   6   8
ENDBRANCH   3   6
ENDBRANCH   1   4
BRANCH   1  11
ATOM     11  N   UNL     1     -35.448  27.923   3.304  0.00  0.00    -0.169 NA
ATOM     12  H   UNL     1     -35.020  27.543   4.149  0.00  0.00    +0.149 HD
BRANCH  11  13
ATOM     13  S   UNL     1     -36.171  26.616   2.492  0.00  0.00    +0.061 S 
ATOM     14  O   UNL     1     -35.429  26.334   1.277  0.00  0.00    -0.153 OA
ATOM     15  O   UNL     1     -37.604  26.830   2.440  0.00  0.00    -0.153 OA
BRANCH  13  16
ATOM     16  C   UNL     1     -35.890  25.285   3.622  0.00  0.00    +0.122 C 
ATOM     17  C   UNL     1     -36.234  23.998   3.248  0.00  0.00    +0.020 C 
ATOM     18  C   UNL     1     -35.332  25.555   4.859  0.00  0.00    +0.020 C 
ATOM     19  C   UNL     1     -35.450  23.202   5.390  0.00  0.00    -0.022 C 
ATOM     20  C   UNL     1     -36.012  22.948   4.139  0.00  0.00    -0.003 C 
ATOM     21  C   UNL     1     -35.110  24.505   5.750  0.00  0.00    -0.003 C 
ATOM     22  C   UNL     1     -35.214  22.080   6.344  0.00  0.00    +0.031 C 
ENDBRANCH  13  16
ENDBRANCH  11  13
ENDBRANCH   1  11
BRANCH   1  23
ATOM     23  C   UNL     1     -34.835  30.194   2.584  0.00  0.00    +0.164 C 
BRANCH  23  24
ATOM     24  O   UNL     1     -35.498  30.551   3.791  0.00  0.00    -0.380 OA
ATOM     25  H   UNL     1     -35.592  29.766   4.353  0.00  0.00    +0.211 HD
ENDBRANCH  23  24
ENDBRANCH   1  23
TORSDOF 9
ENDMDL
MODEL 5
REMARK VINA RESULT:      -5.6      2.792      6.532
REMARK  Name = 193252
REMARK  9 active torsions:
REMARK  status: ('A' for Active; 'I' for Inactive)
REMARK    1  A    between atoms: C_1  and  C_4
REMARK    2  A    between atoms: C_1  and  N_11
REMARK    3  A    between atoms: C_1  and  C_23
REMARK    4  A    between atoms: N_3  and  C_6
REMARK    5  A    between atoms: C_6  and  C_8
REMARK    6  A    between atoms: C_8  and  O_9
REMARK    7  A    between atoms: N_11  and  S_13
REMARK    8  A    between atoms: S_13  and  C_16
REMARK    9  A    between atoms: C_23  and  O_24
REMARK                            x       y       z     vdW  Elec       q    Type
REMARK                         _______ _______ _______ _____ _____    ______ ____
ROOT
ATOM      1  C   UNL     1     -35.188  22.880   4.821  0.00  0.00    +0.180 C 
ENDROOT
BRANCH   1   4
ATOM      2  O   UNL     1     -35.361  21.313   2.988  0.00  0.00    -0.274 OA
ATOM      3  N   UNL     1     -37.134  22.753   3.401  0.00  0.00    -0.294 N 
ATOM      4  C   UNL     1     -35.876  22.217   3.642  0.00  0.00    +0.241 C 
ATOM      5  H   UNL     1     -37.453  23.477   3.987  0.00  0.00    +0.150 HD
BRANCH   3   6
ATOM      6  C   UNL     1     -37.995  22.300   2.334  0.00  0.00    +0.201 C 
BRANCH   6   8
ATOM      7  O   UNL     1     -40.364  22.209   1.959  0.00  0.00    -0.248 OA
ATOM      8  C   UNL     1     -39.414  22.801   2.460  0.00  0.00    +0.337 C 
BRANCH   8   9
ATOM      9  O   UNL     1     -39.495  23.957   3.177  0.00  0.00    -0.443 OA
ATOM     10  C   UNL     1     -40.139  25.053   2.517  0.00  0.00    +0.256 C 
ENDBRANCH   8   9
ENDBRANCH   6   8
ENDBRANCH   3   6
ENDBRANCH   1   4
BRANCH   1  11
ATOM     11  N   UNL     1     -35.694  24.266   4.929  0.00  0.00    -0.169 NA
ATOM     12  H   UNL     1     -36.370  24.393   4.176  0.00  0.00    +0.149 HD
BRANCH  11  13
ATOM     13  S   UNL     1     -34.612  25.574   4.842  0.00  0.00    +0.061 S 
ATOM     14  O   UNL     1     -33.316  25.097   4.394  0.00  0.00    -0.153 OA
ATOM     15  O   UNL     1     -34.722  26.357   6.057  0.00  0.00    -0.153 OA
BRANCH  13  16
ATOM     16  C   UNL     1     -35.316  26.542   3.540  0.00  0.00    +0.122 C 
ATOM     17  C   UNL     1     -36.463  26.092   2.909  0.00  0.00    +0.020 C 
ATOM     18  C   UNL     1     -34.707  27.730   3.176  0.00  0.00    +0.020 C 
ATOM     19  C   UNL     1     -36.417  28.056   1.503  0.00  0.00    -0.022 C 
ATOM     20  C   UNL     1     -37.018  26.856   1.882  0.00  0.00    -0.003 C 
ATOM     21  C   UNL     1     -35.263  28.493   2.149  0.00  0.00    -0.003 C 
ATOM     22  C   UNL     1     -37.011  28.872   0.404  0.00  0.00    +0.031 C 
ENDBRANCH  13  16
ENDBRANCH  11  13
ENDBRANCH   1  11
BRANCH   1  23
ATOM     23  C   UNL     1     -35.431  22.133   6.128  0.00  0.00    +0.164 C 
BRANCH  23  24
ATOM     24  O   UNL     1     -35.427  20.728   5.902  0.00  0.00    -0.380 OA
ATOM     25  H   UNL     1     -35.732  20.271   6.701  0.00  0.00    +0.211 HD
ENDBRANCH  23  24
ENDBRANCH   1  23
TORSDOF 9
ENDMDL
MODEL 6
REMARK VINA RESULT:      -5.5      2.587      5.495
REMARK  Name = 193252
REMARK  9 active torsions:
REMARK  status: ('A' for Active; 'I' for Inactive)
REMARK    1  A    between atoms: C_1  and  C_4
REMARK    2  A    between atoms: C_1  and  N_11
REMARK    3  A    between atoms: C_1  and  C_23
REMARK    4  A    between atoms: N_3  and  C_6
REMARK    5  A    between atoms: C_6  and  C_8
REMARK    6  A    between atoms: C_8  and  O_9
REMARK    7  A    between atoms: N_11  and  S_13
REMARK    8  A    between atoms: S_13  and  C_16
REMARK    9  A    between atoms: C_23  and  O_24
REMARK                            x       y       z     vdW  Elec       q    Type
REMARK                         _______ _______ _______ _____ _____    ______ ____
ROOT
ATOM      1  C   UNL     1     -38.379  22.272   1.698  0.00  0.00    +0.180 C 
ENDROOT
BRANCH   1   4
ATOM      2  O   UNL     1     -38.509  23.989   3.395  0.00  0.00    -0.274 OA
ATOM      3  N   UNL     1     -40.039  24.021   1.649  0.00  0.00    -0.294 N 
ATOM      4  C   UNL     1     -38.958  23.510   2.356  0.00  0.00    +0.241 C 
ATOM      5  H   UNL     1     -40.318  23.560   0.825  0.00  0.00    +0.150 HD
BRANCH   3   6
ATOM      6  C   UNL     1     -40.771  25.194   2.064  0.00  0.00    +0.201 C 
BRANCH   6   8
ATOM      7  O   UNL     1     -39.173  26.937   1.654  0.00  0.00    -0.248 OA
ATOM      8  C   UNL     1     -40.279  26.465   1.413  0.00  0.00    +0.337 C 
BRANCH   8   9
ATOM      9  O   UNL     1     -41.195  26.997   0.556  0.00  0.00    -0.443 OA
ATOM     10  C   UNL     1     -42.279  27.706   1.166  0.00  0.00    +0.256 C 
ENDBRANCH   8   9
ENDBRANCH   6   8
ENDBRANCH   3   6
ENDBRANCH   1   4
BRANCH   1  11
ATOM     11  N   UNL     1     -37.535  21.574   2.692  0.00  0.00    -0.169 NA
ATOM     12  H   UNL     1     -37.713  22.017   3.593  0.00  0.00    +0.149 HD
BRANCH  11  13
ATOM     13  S   UNL     1     -35.847  21.531   2.492  0.00  0.00    +0.061 S 
ATOM     14  O   UNL     1     -35.517  21.857   1.117  0.00  0.00    -0.153 OA
ATOM     15  O   UNL     1     -35.333  20.319   3.099  0.00  0.00    -0.153 OA
BRANCH  13  16
ATOM     16  C   UNL     1     -35.327  22.879   3.511  0.00  0.00    +0.122 C 
ATOM     17  C   UNL     1     -34.777  24.002   2.917  0.00  0.00    +0.020 C 
ATOM     18  C   UNL     1     -35.477  22.787   4.884  0.00  0.00    +0.020 C 
ATOM     19  C   UNL     1     -34.511  24.989   5.105  0.00  0.00    -0.022 C 
ATOM     20  C   UNL     1     -34.367  25.066   3.720  0.00  0.00    -0.003 C 
ATOM     21  C   UNL     1     -35.067  23.851   5.687  0.00  0.00    -0.003 C 
ATOM     22  C   UNL     1     -34.070  26.126   5.965  0.00  0.00    +0.031 C 
ENDBRANCH  13  16
ENDBRANCH  11  13
ENDBRANCH   1  11
BRANCH   1  23
ATOM     23  C   UNL     1     -39.461  21.331   1.181  0.00  0.00    +0.164 C 
BRANCH  23  24
ATOM     24  O   UNL     1     -40.363  20.993   2.228  0.00  0.00    -0.380 OA
ATOM     25  H   UNL     1     -41.271  21.194   1.951  0.00  0.00    +0.211 HD
ENDBRANCH  23  24
ENDBRANCH   1  23
TORSDOF 9
ENDMDL
MODEL 7
REMARK VINA RESULT:      -5.4      3.733      7.100
REMARK  Name = 193252
REMARK  9 active torsions:
REMARK  status: ('A' for Active; 'I' for Inactive)
REMARK    1  A    between atoms: C_1  and  C_4
REMARK    2  A    between atoms: C_1  and  N_11
REMARK    3  A    between atoms: C_1  and  C_23
REMARK    4  A    between atoms: N_3  and  C_6
REMARK    5  A    between atoms: C_6  and  C_8
REMARK    6  A    between atoms: C_8  and  O_9
REMARK    7  A    between atoms: N_11  and  S_13
REMARK    8  A    between atoms: S_13  and  C_16
REMARK    9  A    between atoms: C_23  and  O_24
REMARK                            x       y       z     vdW  Elec       q    Type
REMARK                         _______ _______ _______ _____ _____    ______ ____
ROOT
ATOM      1  C   UNL     1     -35.008  23.153   4.909  0.00  0.00    +0.180 C 
ENDROOT
BRANCH   1   4
ATOM      2  O   UNL     1     -37.143  23.012   3.784  0.00  0.00    -0.274 OA
ATOM      3  N   UNL     1     -35.491  21.472   3.248  0.00  0.00    -0.294 N 
ATOM      4  C   UNL     1     -36.010  22.563   3.933  0.00  0.00    +0.241 C 
ATOM      5  H   UNL     1     -34.567  21.193   3.443  0.00  0.00    +0.150 HD
BRANCH   3   6
ATOM      6  C   UNL     1     -36.242  20.728   2.263  0.00  0.00    +0.201 C 
BRANCH   6   8
ATOM      7  O   UNL     1     -34.211  19.573   1.716  0.00  0.00    -0.248 OA
ATOM      8  C   UNL     1     -35.384  19.798   1.439  0.00  0.00    +0.337 C 
BRANCH   8   9
ATOM      9  O   UNL     1     -36.062  19.263   0.385  0.00  0.00    -0.443 OA
ATOM     10  C   UNL     1     -35.393  19.322  -0.879  0.00  0.00    +0.256 C 
ENDBRANCH   8   9
ENDBRANCH   6   8
ENDBRANCH   3   6
ENDBRANCH   1   4
BRANCH   1  11
ATOM     11  N   UNL     1     -35.286  24.600   5.036  0.00  0.00    -0.169 NA
ATOM     12  H   UNL     1     -36.299  24.701   5.093  0.00  0.00    +0.149 HD
BRANCH  11  13
ATOM     13  S   UNL     1     -34.752  25.675   3.832  0.00  0.00    +0.061 S 
ATOM     14  O   UNL     1     -35.873  26.473   3.369  0.00  0.00    -0.153 OA
ATOM     15  O   UNL     1     -33.931  24.949   2.883  0.00  0.00    -0.153 OA
BRANCH  13  16
ATOM     16  C   UNL     1     -33.670  26.735   4.745  0.00  0.00    +0.122 C 
ATOM     17  C   UNL     1     -33.006  27.753   4.083  0.00  0.00    +0.020 C 
ATOM     18  C   UNL     1     -33.507  26.527   6.103  0.00  0.00    +0.020 C 
ATOM     19  C   UNL     1     -31.976  28.394   6.172  0.00  0.00    -0.022 C 
ATOM     20  C   UNL     1     -32.152  28.589   4.802  0.00  0.00    -0.003 C 
ATOM     21  C   UNL     1     -32.654  27.364   6.823  0.00  0.00    -0.003 C 
ATOM     22  C   UNL     1     -31.062  29.287   6.941  0.00  0.00    +0.031 C 
ENDBRANCH  13  16
ENDBRANCH  11  13
ENDBRANCH   1  11
BRANCH   1  23
ATOM     23  C   UNL     1     -35.074  22.487   6.279  0.00  0.00    +0.164 C 
BRANCH  23  24
ATOM     24  O   UNL     1     -36.256  21.703   6.391  0.00  0.00    -0.380 OA
ATOM     25  H   UNL     1     -36.616  21.533   5.507  0.00  0.00    +0.211 HD
ENDBRANCH  23  24
ENDBRANCH   1  23
TORSDOF 9
ENDMDL
MODEL 8
REMARK VINA RESULT:      -5.4      2.876      4.734
REMARK  Name = 193252
REMARK  9 active torsions:
REMARK  status: ('A' for Active; 'I' for Inactive)
REMARK    1  A    between atoms: C_1  and  C_4
REMARK    2  A    between atoms: C_1  and  N_11
REMARK    3  A    between atoms: C_1  and  C_23
REMARK    4  A    between atoms: N_3  and  C_6
REMARK    5  A    between atoms: C_6  and  C_8
REMARK    6  A    between atoms: C_8  and  O_9
REMARK    7  A    between atoms: N_11  and  S_13
REMARK    8  A    between atoms: S_13  and  C_16
REMARK    9  A    between atoms: C_23  and  O_24
REMARK                            x       y       z     vdW  Elec       q    Type
REMARK                         _______ _______ _______ _____ _____    ______ ____
ROOT
ATOM      1  C   UNL     1     -35.925  22.734   4.793  0.00  0.00    +0.180 C 
ENDROOT
BRANCH   1   4
ATOM      2  O   UNL     1     -36.876  24.954   4.889  0.00  0.00    -0.274 OA
ATOM      3  N   UNL     1     -34.642  24.668   5.450  0.00  0.00    -0.294 N 
ATOM      4  C   UNL     1     -35.895  24.231   5.041  0.00  0.00    +0.241 C 
ATOM      5  H   UNL     1     -33.922  24.003   5.541  0.00  0.00    +0.150 HD
BRANCH   3   6
ATOM      6  C   UNL     1     -34.346  26.050   5.748  0.00  0.00    +0.201 C 
BRANCH   6   8
ATOM      7  O   UNL     1     -32.697  26.684   4.124  0.00  0.00    -0.248 OA
ATOM      8  C   UNL     1     -33.838  26.821   4.553  0.00  0.00    +0.337 C 
BRANCH   8   9
ATOM      9  O   UNL     1     -34.780  27.658   4.036  0.00  0.00    -0.443 OA
ATOM     10  C   UNL     1     -35.255  27.325   2.727  0.00  0.00    +0.256 C 
ENDBRANCH   8   9
ENDBRANCH   6   8
ENDBRANCH   3   6
ENDBRANCH   1   4
BRANCH   1  11
ATOM     11  N   UNL     1     -35.085  22.445   3.611  0.00  0.00    -0.169 NA
ATOM     12  H   UNL     1     -34.783  23.345   3.237  0.00  0.00    +0.149 HD
BRANCH  11  13
ATOM     13  S   UNL     1     -35.728  21.565   2.307  0.00  0.00    +0.061 S 
ATOM     14  O   UNL     1     -36.055  20.221   2.747  0.00  0.00    -0.153 OA
ATOM     15  O   UNL     1     -34.888  21.767   1.143  0.00  0.00    -0.153 OA
BRANCH  13  16
ATOM     16  C   UNL     1     -37.245  22.421   2.003  0.00  0.00    +0.122 C 
ATOM     17  C   UNL     1     -37.203  23.736   1.572  0.00  0.00    +0.020 C 
ATOM     18  C   UNL     1     -38.445  21.762   2.202  0.00  0.00    +0.020 C 
ATOM     19  C   UNL     1     -39.618  23.763   1.528  0.00  0.00    -0.022 C 
ATOM     20  C   UNL     1     -38.399  24.412   1.332  0.00  0.00    -0.003 C 
ATOM     21  C   UNL     1     -39.642  22.438   1.962  0.00  0.00    -0.003 C 
ATOM     22  C   UNL     1     -40.898  24.486   1.272  0.00  0.00    +0.031 C 
ENDBRANCH  13  16
ENDBRANCH  11  13
ENDBRANCH   1  11
BRANCH   1  23
ATOM     23  C   UNL     1     -35.424  21.939   5.994  0.00  0.00    +0.164 C 
BRANCH  23  24
ATOM     24  O   UNL     1     -35.186  20.585   5.627  0.00  0.00    -0.380 OA
ATOM     25  H   UNL     1     -35.802  20.328   4.923  0.00  0.00    +0.211 HD
ENDBRANCH  23  24
ENDBRANCH   1  23
TORSDOF 9
ENDMDL
MODEL 9
REMARK VINA RESULT:      -5.3      2.252      6.213
REMARK  Name = 193252
REMARK  9 active torsions:
REMARK  status: ('A' for Active; 'I' for Inactive)
REMARK    1  A    between atoms: C_1  and  C_4
REMARK    2  A    between atoms: C_1  and  N_11
REMARK    3  A    between atoms: C_1  and  C_23
REMARK    4  A    between atoms: N_3  and  C_6
REMARK    5  A    between atoms: C_6  and  C_8
REMARK    6  A    between atoms: C_8  and  O_9
REMARK    7  A    between atoms: N_11  and  S_13
REMARK    8  A    between atoms: S_13  and  C_16
REMARK    9  A    between atoms: C_23  and  O_24
REMARK                            x       y       z     vdW  Elec       q    Type
REMARK                         _______ _______ _______ _____ _____    ______ ____
ROOT
ATOM      1  C   UNL     1     -35.372  22.605   4.606  0.00  0.00    +0.180 C 
ENDROOT
BRANCH   1   4
ATOM      2  O   UNL     1     -35.209  20.605   3.257  0.00  0.00    -0.274 OA
ATOM      3  N   UNL     1     -37.044  21.999   2.978  0.00  0.00    -0.294 N 
ATOM      4  C   UNL     1     -35.839  21.617   3.553  0.00  0.00    +0.241 C 
ATOM      5  H   UNL     1     -37.468  22.831   3.289  0.00  0.00    +0.150 HD
BRANCH   3   6
ATOM      6  C   UNL     1     -37.705  21.233   1.946  0.00  0.00    +0.201 C 
BRANCH   6   8
ATOM      7  O   UNL     1     -40.091  21.386   2.152  0.00  0.00    -0.248 OA
ATOM      8  C   UNL     1     -39.071  21.769   1.589  0.00  0.00    +0.337 C 
BRANCH   8   9
ATOM      9  O   UNL     1     -39.020  22.698   0.595  0.00  0.00    -0.443 OA
ATOM     10  C   UNL     1     -38.993  22.180  -0.740  0.00  0.00    +0.256 C 
ENDBRANCH   8   9
ENDBRANCH   6   8
ENDBRANCH   3   6
ENDBRANCH   1   4
BRANCH   1  11
ATOM     11  N   UNL     1     -36.417  23.639   4.764  0.00  0.00    -0.169 NA
ATOM     12  H   UNL     1     -37.209  23.348   4.190  0.00  0.00    +0.149 HD
BRANCH  11  13
ATOM     13  S   UNL     1     -36.082  25.254   4.352  0.00  0.00    +0.061 S 
ATOM     14  O   UNL     1     -34.835  25.314   3.612  0.00  0.00    -0.153 OA
ATOM     15  O   UNL     1     -36.277  26.088   5.523  0.00  0.00    -0.153 OA
BRANCH  13  16
ATOM     16  C   UNL     1     -37.399  25.625   3.232  0.00  0.00    +0.122 C 
ATOM     17  C   UNL     1     -38.664  25.125   3.488  0.00  0.00    +0.020 C 
ATOM     18  C   UNL     1     -37.140  26.407   2.120  0.00  0.00    +0.020 C 
ATOM     19  C   UNL     1     -39.460  26.204   1.478  0.00  0.00    -0.022 C 
ATOM     20  C   UNL     1     -39.703  25.417   2.604  0.00  0.00    -0.003 C 
ATOM     21  C   UNL     1     -38.179  26.699   1.236  0.00  0.00    -0.003 C 
ATOM     22  C   UNL     1     -40.570  26.515   0.532  0.00  0.00    +0.031 C 
ENDBRANCH  13  16
ENDBRANCH  11  13
ENDBRANCH   1  11
BRANCH   1  23
ATOM     23  C   UNL     1     -35.097  21.934   5.947  0.00  0.00    +0.164 C 
BRANCH  23  24
ATOM     24  O   UNL     1     -35.573  20.593   5.936  0.00  0.00    -0.380 OA
ATOM     25  H   UNL     1     -34.825  19.985   5.835  0.00  0.00    +0.211 HD
ENDBRANCH  23  24
ENDBRANCH   1  23
TORSDOF 9
ENDMDL
