MODEL 1
REMARK VINA RESULT:      -6.9      0.000      0.000
REMARK  Name = 54424
REMARK  10 active torsions:
REMARK  status: ('A' for Active; 'I' for Inactive)
REMARK    1  A    between atoms: N_1  and  C_9
REMARK    2  A    between atoms: N_2  and  C_27
REMARK    3  A    between atoms: C_9  and  C_10
REMARK    4  A    between atoms: C_10  and  O_11
REMARK    5  A    between atoms: C_10  and  C_13
REMARK    6  A    between atoms: C_13  and  N_16
REMARK    7  A    between atoms: C_27  and  C_28
REMARK    8  A    between atoms: C_28  and  C_29
REMARK    9  A    between atoms: C_29  and  S_30
REMARK   10  A    between atoms: S_30  and  C_31
REMARK                            x       y       z     vdW  Elec       q    Type
REMARK                         _______ _______ _______ _____ _____    ______ ____
ROOT
ATOM      1  N   UNL     1     -35.943  23.474   3.999  0.00  0.00    +0.386 N 
ATOM      2  N   UNL     1     -36.813  21.125   2.553  0.00  0.00    +0.384 N 
ATOM      3  C   UNL     1     -35.594  22.123   4.458  0.00  0.00    -0.101 C 
ATOM      4  C   UNL     1     -37.220  23.454   3.275  0.00  0.00    -0.101 C 
ATOM      5  C   UNL     1     -35.538  21.144   3.279  0.00  0.00    -0.101 C 
ATOM      6  C   UNL     1     -37.163  22.476   2.096  0.00  0.00    -0.101 C 
ATOM      7  H   UNL     1     -35.215  23.794   3.361  0.00  0.00    -0.080 HD
ATOM      8  H   UNL     1     -37.541  20.805   3.190  0.00  0.00    -0.080 HD
ENDROOT
BRANCH   1   9
ATOM      9  C   UNL     1     -35.998  24.404   5.124  0.00  0.00    -0.046 C 
BRANCH   9  10
ATOM     10  C   UNL     1     -35.664  25.840   4.701  0.00  0.00    +0.106 C 
BRANCH  10  11
ATOM     11  O   UNL     1     -36.451  26.728   5.500  0.00  0.00    -0.385 OA
ATOM     12  H   UNL     1     -37.246  26.266   5.809  0.00  0.00    +0.210 HD
ENDBRANCH  10  11
BRANCH  10  13
ATOM     13  C   UNL     1     -34.185  26.186   4.916  0.00  0.00    +0.102 C 
BRANCH  13  16
ATOM     14  O   UNL     1     -31.847  27.326   6.510  0.00  0.00    -0.272 OA
ATOM     15  O   UNL     1     -30.191  31.375   4.814  0.00  0.00    -0.252 OA
ATOM     16  N   UNL     1     -33.805  27.433   4.250  0.00  0.00    -0.238 NA
ATOM     17  N   UNL     1     -31.978  30.373   3.711  0.00  0.00    -0.228 N 
ATOM     18  N   UNL     1     -33.849  29.089   2.759  0.00  0.00    -0.240 NA
ATOM     19  N   UNL     1     -31.000  29.354   5.679  0.00  0.00    -0.211 N 
ATOM     20  C   UNL     1     -32.805  28.294   4.605  0.00  0.00    +0.192 C 
ATOM     21  C   UNL     1     -32.856  29.297   3.676  0.00  0.00    +0.136 C 
ATOM     22  C   UNL     1     -34.404  27.954   3.134  0.00  0.00    +0.203 C 
ATOM     23  C   UNL     1     -31.875  28.235   5.686  0.00  0.00    +0.254 C 
ATOM     24  C   UNL     1     -30.998  30.442   4.733  0.00  0.00    +0.318 C 
ATOM     25  C   UNL     1     -32.064  31.423   2.704  0.00  0.00    +0.123 C 
ATOM     26  C   UNL     1     -29.999  29.408   6.741  0.00  0.00    +0.124 C 
ENDBRANCH  13  16
ENDBRANCH  10  13
ENDBRANCH   9  10
ENDBRANCH   1   9
BRANCH   2  27
ATOM     27  C   UNL     1     -36.756  20.195   1.428  0.00  0.00    -0.077 C 
BRANCH  27  28
ATOM     28  C   UNL     1     -36.655  20.960   0.108  0.00  0.00    -0.011 C 
BRANCH  28  29
ATOM     29  C   UNL     1     -35.427  20.516  -0.683  0.00  0.00    +0.060 C 
BRANCH  29  30
ATOM     30  S   UNL     1     -33.960  21.455  -0.171  0.00  0.00    -0.114 S 
BRANCH  30  31
ATOM     31  C   UNL     1     -32.829  20.137   0.263  0.00  0.00    +0.025 C 
ATOM     32  C   UNL     1     -33.250  19.104   1.101  0.00  0.00    +0.006 C 
ATOM     33  C   UNL     1     -31.528  20.141  -0.238  0.00  0.00    +0.006 C 
ATOM     34  C   UNL     1     -32.370  18.077   1.440  0.00  0.00    +0.001 C 
ATOM     35  C   UNL     1     -30.646  19.114   0.100  0.00  0.00    +0.001 C 
ATOM     36  C   UNL     1     -31.068  18.082   0.939  0.00  0.00    +0.000 C 
ENDBRANCH  30  31
ENDBRANCH  29  30
ENDBRANCH  28  29
ENDBRANCH  27  28
ENDBRANCH   2  27
TORSDOF 10
ENDMDL
MODEL 2
REMARK VINA RESULT:      -6.6      5.158      8.968
REMARK  Name = 54424
REMARK  10 active torsions:
REMARK  status: ('A' for Active; 'I' for Inactive)
REMARK    1  A    between atoms: N_1  and  C_9
REMARK    2  A    between atoms: N_2  and  C_27
REMARK    3  A    between atoms: C_9  and  C_10
REMARK    4  A    between atoms: C_10  and  O_11
REMARK    5  A    between atoms: C_10  and  C_13
REMARK    6  A    between atoms: C_13  and  N_16
REMARK    7  A    between atoms: C_27  and  C_28
REMARK    8  A    between atoms: C_28  and  C_29
REMARK    9  A    between atoms: C_29  and  S_30
REMARK   10  A    between atoms: S_30  and  C_31
REMARK                            x       y       z     vdW  Elec       q    Type
REMARK                         _______ _______ _______ _____ _____    ______ ____
ROOT
ATOM      1  N   UNL     1     -38.066  22.542   1.053  0.00  0.00    +0.386 N 
ATOM      2  N   UNL     1     -40.278  24.393   1.242  0.00  0.00    +0.384 N 
ATOM      3  C   UNL     1     -38.560  23.262  -0.127  0.00  0.00    -0.101 C 
ATOM      4  C   UNL     1     -39.152  22.335   2.019  0.00  0.00    -0.101 C 
ATOM      5  C   UNL     1     -39.194  24.599   0.276  0.00  0.00    -0.101 C 
ATOM      6  C   UNL     1     -39.785  23.672   2.422  0.00  0.00    -0.101 C 
ATOM      7  H   UNL     1     -37.343  23.109   1.497  0.00  0.00    -0.080 HD
ATOM      8  H   UNL     1     -41.001  23.826   0.800  0.00  0.00    -0.080 HD
ENDROOT
BRANCH   1   9
ATOM      9  C   UNL     1     -37.464  21.267   0.668  0.00  0.00    -0.046 C 
BRANCH   9  10
ATOM     10  C   UNL     1     -36.821  20.549   1.860  0.00  0.00    +0.106 C 
BRANCH  10  11
ATOM     11  O   UNL     1     -36.641  19.176   1.502  0.00  0.00    -0.385 OA
ATOM     12  H   UNL     1     -37.271  18.628   1.995  0.00  0.00    +0.210 HD
ENDBRANCH  10  11
BRANCH  10  13
ATOM     13  C   UNL     1     -35.450  21.132   2.226  0.00  0.00    +0.102 C 
BRANCH  13  16
ATOM     14  O   UNL     1     -34.978  23.771   0.771  0.00  0.00    -0.272 OA
ATOM     15  O   UNL     1     -35.171  27.536   3.565  0.00  0.00    -0.252 OA
ATOM     16  N   UNL     1     -35.547  22.182   3.241  0.00  0.00    -0.238 NA
ATOM     17  N   UNL     1     -35.511  25.442   4.521  0.00  0.00    -0.228 N 
ATOM     18  N   UNL     1     -35.828  23.113   5.247  0.00  0.00    -0.240 NA
ATOM     19  N   UNL     1     -35.071  25.672   2.150  0.00  0.00    -0.211 N 
ATOM     20  C   UNL     1     -35.407  23.529   3.061  0.00  0.00    +0.192 C 
ATOM     21  C   UNL     1     -35.583  24.073   4.304  0.00  0.00    +0.136 C 
ATOM     22  C   UNL     1     -35.799  21.981   4.573  0.00  0.00    +0.203 C 
ATOM     23  C   UNL     1     -35.135  24.279   1.878  0.00  0.00    +0.254 C 
ATOM     24  C   UNL     1     -35.247  26.310   3.431  0.00  0.00    +0.318 C 
ATOM     25  C   UNL     1     -35.704  25.984   5.861  0.00  0.00    +0.123 C 
ATOM     26  C   UNL     1     -34.797  26.548   1.015  0.00  0.00    +0.124 C 
ENDBRANCH  13  16
ENDBRANCH  10  13
ENDBRANCH   9  10
ENDBRANCH   1   9
BRANCH   2  27
ATOM     27  C   UNL     1     -40.879  25.668   1.628  0.00  0.00    -0.077 C 
BRANCH  27  28
ATOM     28  C   UNL     1     -40.597  25.967   3.101  0.00  0.00    -0.011 C 
BRANCH  28  29
ATOM     29  C   UNL     1     -41.766  26.716   3.735  0.00  0.00    +0.060 C 
BRANCH  29  30
ATOM     30  S   UNL     1     -43.084  26.999   2.519  0.00  0.00    -0.114 S 
BRANCH  30  31
ATOM     31  C   UNL     1     -44.508  26.337   3.379  0.00  0.00    +0.025 C 
ATOM     32  C   UNL     1     -45.302  25.365   2.769  0.00  0.00    +0.006 C 
ATOM     33  C   UNL     1     -44.823  26.791   4.659  0.00  0.00    +0.006 C 
ATOM     34  C   UNL     1     -46.411  24.849   3.438  0.00  0.00    +0.001 C 
ATOM     35  C   UNL     1     -45.933  26.276   5.329  0.00  0.00    +0.001 C 
ATOM     36  C   UNL     1     -46.726  25.305   4.718  0.00  0.00    +0.000 C 
ENDBRANCH  30  31
ENDBRANCH  29  30
ENDBRANCH  28  29
ENDBRANCH  27  28
ENDBRANCH   2  27
TORSDOF 10
ENDMDL
MODEL 3
REMARK VINA RESULT:      -6.5      6.224      9.976
REMARK  Name = 54424
REMARK  10 active torsions:
REMARK  status: ('A' for Active; 'I' for Inactive)
REMARK    1  A    between atoms: N_1  and  C_9
REMARK    2  A    between atoms: N_2  and  C_27
REMARK    3  A    between atoms: C_9  and  C_10
REMARK    4  A    between atoms: C_10  and  O_11
REMARK    5  A    between atoms: C_10  and  C_13
REMARK    6  A    between atoms: C_13  and  N_16
REMARK    7  A    between atoms: C_27  and  C_28
REMARK    8  A    between atoms: C_28  and  C_29
REMARK    9  A    between atoms: C_29  and  S_30
REMARK   10  A    between atoms: S_30  and  C_31
REMARK                            x       y       z     vdW  Elec       q    Type
REMARK                         _______ _______ _______ _____ _____    ______ ____
ROOT
ATOM      1  N   UNL     1     -40.639  24.017   1.856  0.00  0.00    +0.386 N 
ATOM      2  N   UNL     1     -41.912  26.577   2.287  0.00  0.00    +0.384 N 
ATOM      3  C   UNL     1     -39.988  25.068   2.649  0.00  0.00    -0.101 C 
ATOM      4  C   UNL     1     -41.518  24.611   0.842  0.00  0.00    -0.101 C 
ATOM      5  C   UNL     1     -41.031  25.984   3.299  0.00  0.00    -0.101 C 
ATOM      6  C   UNL     1     -42.561  25.526   1.493  0.00  0.00    -0.101 C 
ATOM      7  H   UNL     1     -41.208  23.448   2.483  0.00  0.00    -0.080 HD
ATOM      8  H   UNL     1     -41.343  27.146   1.660  0.00  0.00    -0.080 HD
ENDROOT
BRANCH   1   9
ATOM      9  C   UNL     1     -39.643  23.146   1.236  0.00  0.00    -0.046 C 
BRANCH   9  10
ATOM     10  C   UNL     1     -38.758  22.449   2.276  0.00  0.00    +0.106 C 
BRANCH  10  11
ATOM     11  O   UNL     1     -39.124  21.068   2.311  0.00  0.00    -0.385 OA
ATOM     12  H   UNL     1     -39.849  20.909   1.687  0.00  0.00    +0.210 HD
ENDBRANCH  10  11
BRANCH  10  13
ATOM     13  C   UNL     1     -37.266  22.541   1.932  0.00  0.00    +0.102 C 
BRANCH  13  16
ATOM     14  O   UNL     1     -36.930  25.408   0.947  0.00  0.00    -0.272 OA
ATOM     15  O   UNL     1     -34.519  28.154   3.890  0.00  0.00    -0.252 OA
ATOM     16  N   UNL     1     -36.500  23.241   2.965  0.00  0.00    -0.238 NA
ATOM     17  N   UNL     1     -34.864  25.934   4.496  0.00  0.00    -0.228 N 
ATOM     18  N   UNL     1     -35.382  23.557   4.867  0.00  0.00    -0.240 NA
ATOM     19  N   UNL     1     -35.726  26.803   2.405  0.00  0.00    -0.211 N 
ATOM     20  C   UNL     1     -36.106  24.550   2.964  0.00  0.00    +0.192 C 
ATOM     21  C   UNL     1     -35.424  24.715   4.139  0.00  0.00    +0.136 C 
ATOM     22  C   UNL     1     -36.041  22.686   4.130  0.00  0.00    +0.203 C 
ATOM     23  C   UNL     1     -36.315  25.577   1.997  0.00  0.00    +0.254 C 
ATOM     24  C   UNL     1     -34.996  27.045   3.626  0.00  0.00    +0.318 C 
ATOM     25  C   UNL     1     -34.144  26.070   5.756  0.00  0.00    +0.123 C 
ATOM     26  C   UNL     1     -35.872  27.935   1.495  0.00  0.00    +0.124 C 
ENDBRANCH  13  16
ENDBRANCH  10  13
ENDBRANCH   9  10
ENDBRANCH   1   9
BRANCH   2  27
ATOM     27  C   UNL     1     -42.907  27.447   2.908  0.00  0.00    -0.077 C 
BRANCH  27  28
ATOM     28  C   UNL     1     -44.273  26.761   2.935  0.00  0.00    -0.011 C 
BRANCH  28  29
ATOM     29  C   UNL     1     -44.804  26.666   4.363  0.00  0.00    +0.060 C 
BRANCH  29  30
ATOM     30  S   UNL     1     -46.025  27.971   4.683  0.00  0.00    -0.114 S 
BRANCH  30  31
ATOM     31  C   UNL     1     -45.194  28.934   5.941  0.00  0.00    +0.025 C 
ATOM     32  C   UNL     1     -45.573  28.812   7.278  0.00  0.00    +0.006 C 
ATOM     33  C   UNL     1     -44.166  29.807   5.586  0.00  0.00    +0.006 C 
ATOM     34  C   UNL     1     -44.926  29.562   8.259  0.00  0.00    +0.001 C 
ATOM     35  C   UNL     1     -43.518  30.558   6.567  0.00  0.00    +0.001 C 
ATOM     36  C   UNL     1     -43.898  30.435   7.903  0.00  0.00    +0.000 C 
ENDBRANCH  30  31
ENDBRANCH  29  30
ENDBRANCH  28  29
ENDBRANCH  27  28
ENDBRANCH   2  27
TORSDOF 10
ENDMDL
MODEL 4
REMARK VINA RESULT:      -6.5      4.568      7.047
REMARK  Name = 54424
REMARK  10 active torsions:
REMARK  status: ('A' for Active; 'I' for Inactive)
REMARK    1  A    between atoms: N_1  and  C_9
REMARK    2  A    between atoms: N_2  and  C_27
REMARK    3  A    between atoms: C_9  and  C_10
REMARK    4  A    between atoms: C_10  and  O_11
REMARK    5  A    between atoms: C_10  and  C_13
REMARK    6  A    between atoms: C_13  and  N_16
REMARK    7  A    between atoms: C_27  and  C_28
REMARK    8  A    between atoms: C_28  and  C_29
REMARK    9  A    between atoms: C_29  and  S_30
REMARK   10  A    between atoms: S_30  and  C_31
REMARK                            x       y       z     vdW  Elec       q    Type
REMARK                         _______ _______ _______ _____ _____    ______ ____
ROOT
ATOM      1  N   UNL     1     -35.599  17.831  -0.841  0.00  0.00    +0.386 N 
ATOM      2  N   UNL     1     -33.781  15.716  -1.605  0.00  0.00    +0.384 N 
ATOM      3  C   UNL     1     -35.895  16.425  -0.539  0.00  0.00    -0.101 C 
ATOM      4  C   UNL     1     -34.779  17.932  -2.055  0.00  0.00    -0.101 C 
ATOM      5  C   UNL     1     -34.602  15.614  -0.394  0.00  0.00    -0.101 C 
ATOM      6  C   UNL     1     -33.486  17.122  -1.909  0.00  0.00    -0.101 C 
ATOM      7  H   UNL     1     -35.070  18.222  -0.062  0.00  0.00    -0.080 HD
ATOM      8  H   UNL     1     -34.309  15.324  -2.385  0.00  0.00    -0.080 HD
ENDROOT
BRANCH   1   9
ATOM      9  C   UNL     1     -36.832  18.601  -0.982  0.00  0.00    -0.046 C 
BRANCH   9  10
ATOM     10  C   UNL     1     -36.992  19.643   0.133  0.00  0.00    +0.106 C 
BRANCH  10  11
ATOM     11  O   UNL     1     -36.991  18.951   1.384  0.00  0.00    -0.385 OA
ATOM     12  H   UNL     1     -36.089  18.661   1.593  0.00  0.00    +0.210 HD
ENDBRANCH  10  11
BRANCH  10  13
ATOM     13  C   UNL     1     -35.847  20.664   0.150  0.00  0.00    +0.102 C 
BRANCH  13  16
ATOM     14  O   UNL     1     -35.159  20.447   3.114  0.00  0.00    -0.272 OA
ATOM     15  O   UNL     1     -36.236  24.282   5.594  0.00  0.00    -0.252 OA
ATOM     16  N   UNL     1     -36.247  21.935   0.756  0.00  0.00    -0.238 NA
ATOM     17  N   UNL     1     -36.698  24.285   3.314  0.00  0.00    -0.228 N 
ATOM     18  N   UNL     1     -37.069  24.001   0.898  0.00  0.00    -0.240 NA
ATOM     19  N   UNL     1     -35.688  22.357   4.377  0.00  0.00    -0.211 N 
ATOM     20  C   UNL     1     -36.132  22.303   2.067  0.00  0.00    +0.192 C 
ATOM     21  C   UNL     1     -36.644  23.571   2.125  0.00  0.00    +0.136 C 
ATOM     22  C   UNL     1     -36.816  22.990   0.093  0.00  0.00    +0.203 C 
ATOM     23  C   UNL     1     -35.612  21.587   3.186  0.00  0.00    +0.254 C 
ATOM     24  C   UNL     1     -36.212  23.694   4.508  0.00  0.00    +0.318 C 
ATOM     25  C   UNL     1     -37.250  25.634   3.335  0.00  0.00    +0.123 C 
ATOM     26  C   UNL     1     -35.185  21.730   5.595  0.00  0.00    +0.124 C 
ENDBRANCH  13  16
ENDBRANCH  10  13
ENDBRANCH   9  10
ENDBRANCH   1   9
BRANCH   2  27
ATOM     27  C   UNL     1     -32.548  14.946  -1.464  0.00  0.00    -0.077 C 
BRANCH  27  28
ATOM     28  C   UNL     1     -31.344  15.882  -1.359  0.00  0.00    -0.011 C 
BRANCH  28  29
ATOM     29  C   UNL     1     -30.332  15.353  -0.346  0.00  0.00    +0.060 C 
BRANCH  29  30
ATOM     30  S   UNL     1     -29.388  16.717   0.392  0.00  0.00    -0.114 S 
BRANCH  30  31
ATOM     31  C   UNL     1     -30.623  18.011   0.453  0.00  0.00    +0.025 C 
ATOM     32  C   UNL     1     -31.774  17.840   1.223  0.00  0.00    +0.006 C 
ATOM     33  C   UNL     1     -30.435  19.189  -0.268  0.00  0.00    +0.006 C 
ATOM     34  C   UNL     1     -32.737  18.847   1.272  0.00  0.00    +0.001 C 
ATOM     35  C   UNL     1     -31.398  20.198  -0.220  0.00  0.00    +0.001 C 
ATOM     36  C   UNL     1     -32.549  20.026   0.550  0.00  0.00    +0.000 C 
ENDBRANCH  30  31
ENDBRANCH  29  30
ENDBRANCH  28  29
ENDBRANCH  27  28
ENDBRANCH   2  27
TORSDOF 10
ENDMDL
MODEL 5
REMARK VINA RESULT:      -6.5      2.744      6.461
REMARK  Name = 54424
REMARK  10 active torsions:
REMARK  status: ('A' for Active; 'I' for Inactive)
REMARK    1  A    between atoms: N_1  and  C_9
REMARK    2  A    between atoms: N_2  and  C_27
REMARK    3  A    between atoms: C_9  and  C_10
REMARK    4  A    between atoms: C_10  and  O_11
REMARK    5  A    between atoms: C_10  and  C_13
REMARK    6  A    between atoms: C_13  and  N_16
REMARK    7  A    between atoms: C_27  and  C_28
REMARK    8  A    between atoms: C_28  and  C_29
REMARK    9  A    between atoms: C_29  and  S_30
REMARK   10  A    between atoms: S_30  and  C_31
REMARK                            x       y       z     vdW  Elec       q    Type
REMARK                         _______ _______ _______ _____ _____    ______ ____
ROOT
ATOM      1  N   UNL     1     -34.022  26.002   2.783  0.00  0.00    +0.386 N 
ATOM      2  N   UNL     1     -33.408  25.763  -0.032  0.00  0.00    +0.384 N 
ATOM      3  C   UNL     1     -34.922  26.545   1.758  0.00  0.00    -0.101 C 
ATOM      4  C   UNL     1     -32.635  26.009   2.302  0.00  0.00    -0.101 C 
ATOM      5  C   UNL     1     -34.794  25.758   0.448  0.00  0.00    -0.101 C 
ATOM      6  C   UNL     1     -32.508  25.221   0.994  0.00  0.00    -0.101 C 
ATOM      7  H   UNL     1     -34.294  25.037   2.970  0.00  0.00    -0.080 HD
ATOM      8  H   UNL     1     -33.136  26.727  -0.220  0.00  0.00    -0.080 HD
ENDROOT
BRANCH   1   9
ATOM      9  C   UNL     1     -34.144  26.755   4.030  0.00  0.00    -0.046 C 
BRANCH   9  10
ATOM     10  C   UNL     1     -34.249  25.833   5.251  0.00  0.00    +0.106 C 
BRANCH  10  11
ATOM     11  O   UNL     1     -33.932  26.605   6.412  0.00  0.00    -0.385 OA
ATOM     12  H   UNL     1     -34.600  27.298   6.532  0.00  0.00    +0.210 HD
ENDBRANCH  10  11
BRANCH  10  13
ATOM     13  C   UNL     1     -35.658  25.255   5.431  0.00  0.00    +0.102 C 
BRANCH  13  16
ATOM     14  O   UNL     1     -37.909  25.886   3.470  0.00  0.00    -0.272 OA
ATOM     15  O   UNL     1     -39.016  22.310   0.641  0.00  0.00    -0.252 OA
ATOM     16  N   UNL     1     -35.864  24.041   4.640  0.00  0.00    -0.238 NA
ATOM     17  N   UNL     1     -37.316  21.991   2.198  0.00  0.00    -0.228 N 
ATOM     18  N   UNL     1     -35.571  21.947   3.932  0.00  0.00    -0.240 NA
ATOM     19  N   UNL     1     -38.480  24.110   2.042  0.00  0.00    -0.211 N 
ATOM     20  C   UNL     1     -36.769  23.846   3.635  0.00  0.00    +0.192 C 
ATOM     21  C   UNL     1     -36.568  22.558   3.221  0.00  0.00    +0.136 C 
ATOM     22  C   UNL     1     -35.166  22.870   4.781  0.00  0.00    +0.203 C 
ATOM     23  C   UNL     1     -37.742  24.732   3.083  0.00  0.00    +0.254 C 
ATOM     24  C   UNL     1     -38.319  22.761   1.557  0.00  0.00    +0.318 C 
ATOM     25  C   UNL     1     -37.072  20.615   1.785  0.00  0.00    +0.123 C 
ATOM     26  C   UNL     1     -39.510  24.919   1.396  0.00  0.00    +0.124 C 
ENDBRANCH  13  16
ENDBRANCH  10  13
ENDBRANCH   9  10
ENDBRANCH   1   9
BRANCH   2  27
ATOM     27  C   UNL     1     -33.287  25.009  -1.278  0.00  0.00    -0.077 C 
BRANCH  27  28
ATOM     28  C   UNL     1     -32.192  23.950  -1.156  0.00  0.00    -0.011 C 
BRANCH  28  29
ATOM     29  C   UNL     1     -32.739  22.565  -1.494  0.00  0.00    +0.060 C 
BRANCH  29  30
ATOM     30  S   UNL     1     -33.789  21.943  -0.149  0.00  0.00    -0.114 S 
BRANCH  30  31
ATOM     31  C   UNL     1     -32.927  20.442   0.309  0.00  0.00    +0.025 C 
ATOM     32  C   UNL     1     -31.616  20.233  -0.117  0.00  0.00    +0.006 C 
ATOM     33  C   UNL     1     -33.568  19.481   1.091  0.00  0.00    +0.006 C 
ATOM     34  C   UNL     1     -30.944  19.064   0.239  0.00  0.00    +0.001 C 
ATOM     35  C   UNL     1     -32.896  18.311   1.447  0.00  0.00    +0.001 C 
ATOM     36  C   UNL     1     -31.585  18.103   1.021  0.00  0.00    +0.000 C 
ENDBRANCH  30  31
ENDBRANCH  29  30
ENDBRANCH  28  29
ENDBRANCH  27  28
ENDBRANCH   2  27
TORSDOF 10
ENDMDL
MODEL 6
REMARK VINA RESULT:      -6.4      6.853      9.486
REMARK  Name = 54424
REMARK  10 active torsions:
REMARK  status: ('A' for Active; 'I' for Inactive)
REMARK    1  A    between atoms: N_1  and  C_9
REMARK    2  A    between atoms: N_2  and  C_27
REMARK    3  A    between atoms: C_9  and  C_10
REMARK    4  A    between atoms: C_10  and  O_11
REMARK    5  A    between atoms: C_10  and  C_13
REMARK    6  A    between atoms: C_13  and  N_16
REMARK    7  A    between atoms: C_27  and  C_28
REMARK    8  A    between atoms: C_28  and  C_29
REMARK    9  A    between atoms: C_29  and  S_30
REMARK   10  A    between atoms: S_30  and  C_31
REMARK                            x       y       z     vdW  Elec       q    Type
REMARK                         _______ _______ _______ _____ _____    ______ ____
ROOT
ATOM      1  N   UNL     1     -40.575  25.108   2.047  0.00  0.00    +0.386 N 
ATOM      2  N   UNL     1     -38.711  23.045   1.253  0.00  0.00    +0.384 N 
ATOM      3  C   UNL     1     -40.722  24.398   0.770  0.00  0.00    -0.101 C 
ATOM      4  C   UNL     1     -39.163  25.165   2.441  0.00  0.00    -0.101 C 
ATOM      5  C   UNL     1     -40.123  22.990   0.857  0.00  0.00    -0.101 C 
ATOM      6  C   UNL     1     -38.564  23.757   2.529  0.00  0.00    -0.101 C 
ATOM      7  H   UNL     1     -41.090  24.594   2.762  0.00  0.00    -0.080 HD
ATOM      8  H   UNL     1     -38.197  23.560   0.539  0.00  0.00    -0.080 HD
ENDROOT
BRANCH   1   9
ATOM      9  C   UNL     1     -41.146  26.451   1.961  0.00  0.00    -0.046 C 
BRANCH   9  10
ATOM     10  C   UNL     1     -42.022  26.784   3.174  0.00  0.00    +0.106 C 
BRANCH  10  11
ATOM     11  O   UNL     1     -41.182  27.354   4.181  0.00  0.00    -0.385 OA
ATOM     12  H   UNL     1     -41.172  28.319   4.085  0.00  0.00    +0.210 HD
ENDBRANCH  10  11
BRANCH  10  13
ATOM     13  C   UNL     1     -43.125  27.797   2.841  0.00  0.00    +0.102 C 
BRANCH  13  16
ATOM     14  O   UNL     1     -42.733  29.627   5.251  0.00  0.00    -0.272 OA
ATOM     15  O   UNL     1     -46.268  29.484   8.334  0.00  0.00    -0.252 OA
ATOM     16  N   UNL     1     -44.309  27.624   3.683  0.00  0.00    -0.238 NA
ATOM     17  N   UNL     1     -46.412  28.144   6.437  0.00  0.00    -0.228 N 
ATOM     18  N   UNL     1     -46.288  26.845   4.351  0.00  0.00    -0.240 NA
ATOM     19  N   UNL     1     -44.492  29.573   6.809  0.00  0.00    -0.211 N 
ATOM     20  C   UNL     1     -44.582  28.241   4.872  0.00  0.00    +0.192 C 
ATOM     21  C   UNL     1     -45.798  27.745   5.257  0.00  0.00    +0.136 C 
ATOM     22  C   UNL     1     -45.365  26.794   3.412  0.00  0.00    +0.203 C 
ATOM     23  C   UNL     1     -43.824  29.195   5.613  0.00  0.00    +0.254 C 
ATOM     24  C   UNL     1     -45.770  29.092   7.273  0.00  0.00    +0.318 C 
ATOM     25  C   UNL     1     -47.708  27.593   6.813  0.00  0.00    +0.123 C 
ATOM     26  C   UNL     1     -43.813  30.549   7.657  0.00  0.00    +0.124 C 
ENDBRANCH  13  16
ENDBRANCH  10  13
ENDBRANCH   9  10
ENDBRANCH   1   9
BRANCH   2  27
ATOM     27  C   UNL     1     -38.143  21.702   1.340  0.00  0.00    -0.077 C 
BRANCH  27  28
ATOM     28  C   UNL     1     -36.951  21.566   0.392  0.00  0.00    -0.011 C 
BRANCH  28  29
ATOM     29  C   UNL     1     -35.635  21.707   1.152  0.00  0.00    +0.060 C 
BRANCH  29  30
ATOM     30  S   UNL     1     -35.615  20.625   2.610  0.00  0.00    -0.114 S 
BRANCH  30  31
ATOM     31  C   UNL     1     -35.448  21.817   3.935  0.00  0.00    +0.025 C 
ATOM     32  C   UNL     1     -35.317  21.380   5.253  0.00  0.00    +0.006 C 
ATOM     33  C   UNL     1     -35.449  23.182   3.649  0.00  0.00    +0.006 C 
ATOM     34  C   UNL     1     -35.187  22.308   6.286  0.00  0.00    +0.001 C 
ATOM     35  C   UNL     1     -35.319  24.111   4.682  0.00  0.00    +0.001 C 
ATOM     36  C   UNL     1     -35.188  23.673   6.000  0.00  0.00    +0.000 C 
ENDBRANCH  30  31
ENDBRANCH  29  30
ENDBRANCH  28  29
ENDBRANCH  27  28
ENDBRANCH   2  27
TORSDOF 10
ENDMDL
MODEL 7
REMARK VINA RESULT:      -6.4      2.339      4.307
REMARK  Name = 54424
REMARK  10 active torsions:
REMARK  status: ('A' for Active; 'I' for Inactive)
REMARK    1  A    between atoms: N_1  and  C_9
REMARK    2  A    between atoms: N_2  and  C_27
REMARK    3  A    between atoms: C_9  and  C_10
REMARK    4  A    between atoms: C_10  and  O_11
REMARK    5  A    between atoms: C_10  and  C_13
REMARK    6  A    between atoms: C_13  and  N_16
REMARK    7  A    between atoms: C_27  and  C_28
REMARK    8  A    between atoms: C_28  and  C_29
REMARK    9  A    between atoms: C_29  and  S_30
REMARK   10  A    between atoms: S_30  and  C_31
REMARK                            x       y       z     vdW  Elec       q    Type
REMARK                         _______ _______ _______ _____ _____    ______ ____
ROOT
ATOM      1  N   UNL     1     -34.476  25.726   5.215  0.00  0.00    +0.386 N 
ATOM      2  N   UNL     1     -36.439  23.823   4.274  0.00  0.00    +0.384 N 
ATOM      3  C   UNL     1     -34.125  24.318   4.986  0.00  0.00    -0.101 C 
ATOM      4  C   UNL     1     -35.892  25.848   5.582  0.00  0.00    -0.101 C 
ATOM      5  C   UNL     1     -35.024  23.701   3.909  0.00  0.00    -0.101 C 
ATOM      6  C   UNL     1     -36.790  25.230   4.504  0.00  0.00    -0.101 C 
ATOM      7  H   UNL     1     -34.322  26.240   4.347  0.00  0.00    -0.080 HD
ATOM      8  H   UNL     1     -36.593  23.309   5.141  0.00  0.00    -0.080 HD
ENDROOT
BRANCH   1   9
ATOM      9  C   UNL     1     -33.620  26.312   6.243  0.00  0.00    -0.046 C 
BRANCH   9  10
ATOM     10  C   UNL     1     -32.846  27.531   5.724  0.00  0.00    +0.106 C 
BRANCH  10  11
ATOM     11  O   UNL     1     -31.487  27.401   6.148  0.00  0.00    -0.385 OA
ATOM     12  H   UNL     1     -31.291  28.077   6.816  0.00  0.00    +0.210 HD
ENDBRANCH  10  11
BRANCH  10  13
ATOM     13  C   UNL     1     -32.863  27.628   4.193  0.00  0.00    +0.102 C 
BRANCH  13  16
ATOM     14  O   UNL     1     -34.857  26.523   2.165  0.00  0.00    -0.272 OA
ATOM     15  O   UNL     1     -37.652  29.789   0.285  0.00  0.00    -0.252 OA
ATOM     16  N   UNL     1     -33.641  28.773   3.719  0.00  0.00    -0.238 NA
ATOM     17  N   UNL     1     -36.073  30.468   1.852  0.00  0.00    -0.228 N 
ATOM     18  N   UNL     1     -34.319  30.888   3.526  0.00  0.00    -0.240 NA
ATOM     19  N   UNL     1     -36.269  28.141   1.210  0.00  0.00    -0.211 N 
ATOM     20  C   UNL     1     -34.653  28.768   2.801  0.00  0.00    +0.192 C 
ATOM     21  C   UNL     1     -35.048  30.075   2.703  0.00  0.00    +0.136 C 
ATOM     22  C   UNL     1     -33.477  30.071   4.126  0.00  0.00    +0.203 C 
ATOM     23  C   UNL     1     -35.227  27.690   2.064  0.00  0.00    +0.254 C 
ATOM     24  C   UNL     1     -36.734  29.497   1.059  0.00  0.00    +0.318 C 
ATOM     25  C   UNL     1     -36.465  31.870   1.776  0.00  0.00    +0.123 C 
ATOM     26  C   UNL     1     -36.936  27.126   0.400  0.00  0.00    +0.124 C 
ENDBRANCH  13  16
ENDBRANCH  10  13
ENDBRANCH   9  10
ENDBRANCH   1   9
BRANCH   2  27
ATOM     27  C   UNL     1     -37.295  23.237   3.245  0.00  0.00    -0.077 C 
BRANCH  27  28
ATOM     28  C   UNL     1     -36.870  23.722   1.859  0.00  0.00    -0.011 C 
BRANCH  28  29
ATOM     29  C   UNL     1     -36.676  22.544   0.908  0.00  0.00    +0.060 C 
BRANCH  29  30
ATOM     30  S   UNL     1     -37.184  20.990   1.698  0.00  0.00    -0.114 S 
BRANCH  30  31
ATOM     31  C   UNL     1     -35.853  19.895   1.215  0.00  0.00    +0.025 C 
ATOM     32  C   UNL     1     -34.613  19.982   1.848  0.00  0.00    +0.006 C 
ATOM     33  C   UNL     1     -36.056  18.953   0.206  0.00  0.00    +0.006 C 
ATOM     34  C   UNL     1     -33.576  19.129   1.472  0.00  0.00    +0.001 C 
ATOM     35  C   UNL     1     -35.019  18.100  -0.171  0.00  0.00    +0.001 C 
ATOM     36  C   UNL     1     -33.779  18.188   0.462  0.00  0.00    +0.000 C 
ENDBRANCH  30  31
ENDBRANCH  29  30
ENDBRANCH  28  29
ENDBRANCH  27  28
ENDBRANCH   2  27
TORSDOF 10
ENDMDL
MODEL 8
REMARK VINA RESULT:      -6.4      4.249     10.148
REMARK  Name = 54424
REMARK  10 active torsions:
REMARK  status: ('A' for Active; 'I' for Inactive)
REMARK    1  A    between atoms: N_1  and  C_9
REMARK    2  A    between atoms: N_2  and  C_27
REMARK    3  A    between atoms: C_9  and  C_10
REMARK    4  A    between atoms: C_10  and  O_11
REMARK    5  A    between atoms: C_10  and  C_13
REMARK    6  A    between atoms: C_13  and  N_16
REMARK    7  A    between atoms: C_27  and  C_28
REMARK    8  A    between atoms: C_28  and  C_29
REMARK    9  A    between atoms: C_29  and  S_30
REMARK   10  A    between atoms: S_30  and  C_31
REMARK                            x       y       z     vdW  Elec       q    Type
REMARK                         _______ _______ _______ _____ _____    ______ ____
ROOT
ATOM      1  N   UNL     1     -37.232  22.751   3.344  0.00  0.00    +0.386 N 
ATOM      2  N   UNL     1     -35.752  24.921   4.551  0.00  0.00    +0.384 N 
ATOM      3  C   UNL     1     -35.891  22.540   3.904  0.00  0.00    -0.101 C 
ATOM      4  C   UNL     1     -37.375  24.131   2.863  0.00  0.00    -0.101 C 
ATOM      5  C   UNL     1     -35.607  23.542   5.029  0.00  0.00    -0.101 C 
ATOM      6  C   UNL     1     -37.092  25.131   3.990  0.00  0.00    -0.101 C 
ATOM      7  H   UNL     1     -37.917  22.593   4.083  0.00  0.00    -0.080 HD
ATOM      8  H   UNL     1     -35.067  25.080   3.812  0.00  0.00    -0.080 HD
ENDROOT
BRANCH   1   9
ATOM      9  C   UNL     1     -37.500  21.796   2.270  0.00  0.00    -0.046 C 
BRANCH   9  10
ATOM     10  C   UNL     1     -36.369  20.772   2.114  0.00  0.00    +0.106 C 
BRANCH  10  11
ATOM     11  O   UNL     1     -36.868  19.500   2.536  0.00  0.00    -0.385 OA
ATOM     12  H   UNL     1     -36.123  18.917   2.754  0.00  0.00    +0.210 HD
ENDBRANCH  10  11
BRANCH  10  13
ATOM     13  C   UNL     1     -35.893  20.641   0.662  0.00  0.00    +0.102 C 
BRANCH  13  16
ATOM     14  O   UNL     1     -36.442  17.718  -0.020  0.00  0.00    -0.272 OA
ATOM     15  O   UNL     1     -32.565  15.113  -0.460  0.00  0.00    -0.252 OA
ATOM     16  N   UNL     1     -34.585  19.990   0.564  0.00  0.00    -0.238 NA
ATOM     17  N   UNL     1     -32.318  17.368   0.059  0.00  0.00    -0.228 N 
ATOM     18  N   UNL     1     -32.367  19.768   0.599  0.00  0.00    -0.240 NA
ATOM     19  N   UNL     1     -34.515  16.393  -0.246  0.00  0.00    -0.211 N 
ATOM     20  C   UNL     1     -34.327  18.680   0.277  0.00  0.00    +0.192 C 
ATOM     21  C   UNL     1     -32.964  18.572   0.306  0.00  0.00    +0.136 C 
ATOM     22  C   UNL     1     -33.374  20.604   0.750  0.00  0.00    +0.203 C 
ATOM     23  C   UNL     1     -35.220  17.602   0.000  0.00  0.00    +0.254 C 
ATOM     24  C   UNL     1     -33.084  16.211  -0.232  0.00  0.00    +0.318 C 
ATOM     25  C   UNL     1     -30.863  17.293   0.099  0.00  0.00    +0.123 C 
ATOM     26  C   UNL     1     -35.322  15.214  -0.543  0.00  0.00    +0.124 C 
ENDBRANCH  13  16
ENDBRANCH  10  13
ENDBRANCH   9  10
ENDBRANCH   1   9
BRANCH   2  27
ATOM     27  C   UNL     1     -35.484  25.875   5.625  0.00  0.00    -0.077 C 
BRANCH  27  28
ATOM     28  C   UNL     1     -34.006  26.263   5.638  0.00  0.00    -0.011 C 
BRANCH  28  29
ATOM     29  C   UNL     1     -33.461  26.367   4.216  0.00  0.00    +0.060 C 
BRANCH  29  30
ATOM     30  S   UNL     1     -33.214  28.104   3.747  0.00  0.00    -0.114 S 
BRANCH  30  31
ATOM     31  C   UNL     1     -31.819  28.554   4.775  0.00  0.00    +0.025 C 
ATOM     32  C   UNL     1     -30.528  28.187   4.398  0.00  0.00    +0.006 C 
ATOM     33  C   UNL     1     -32.024  29.273   5.952  0.00  0.00    +0.006 C 
ATOM     34  C   UNL     1     -29.441  28.537   5.198  0.00  0.00    +0.001 C 
ATOM     35  C   UNL     1     -30.937  29.623   6.754  0.00  0.00    +0.001 C 
ATOM     36  C   UNL     1     -29.646  29.255   6.376  0.00  0.00    +0.000 C 
ENDBRANCH  30  31
ENDBRANCH  29  30
ENDBRANCH  28  29
ENDBRANCH  27  28
ENDBRANCH   2  27
TORSDOF 10
ENDMDL
MODEL 9
REMARK VINA RESULT:      -6.4      4.827     10.742
REMARK  Name = 54424
REMARK  10 active torsions:
REMARK  status: ('A' for Active; 'I' for Inactive)
REMARK    1  A    between atoms: N_1  and  C_9
REMARK    2  A    between atoms: N_2  and  C_27
REMARK    3  A    between atoms: C_9  and  C_10
REMARK    4  A    between atoms: C_10  and  O_11
REMARK    5  A    between atoms: C_10  and  C_13
REMARK    6  A    between atoms: C_13  and  N_16
REMARK    7  A    between atoms: C_27  and  C_28
REMARK    8  A    between atoms: C_28  and  C_29
REMARK    9  A    between atoms: C_29  and  S_30
REMARK   10  A    between atoms: S_30  and  C_31
REMARK                            x       y       z     vdW  Elec       q    Type
REMARK                         _______ _______ _______ _____ _____    ______ ____
ROOT
ATOM      1  N   UNL     1     -37.643  23.279   2.051  0.00  0.00    +0.386 N 
ATOM      2  N   UNL     1     -36.566  23.753   4.692  0.00  0.00    +0.384 N 
ATOM      3  C   UNL     1     -38.246  24.268   2.954  0.00  0.00    -0.101 C 
ATOM      4  C   UNL     1     -37.012  22.201   2.821  0.00  0.00    -0.101 C 
ATOM      5  C   UNL     1     -37.200  24.830   3.923  0.00  0.00    -0.101 C 
ATOM      6  C   UNL     1     -35.965  22.764   3.789  0.00  0.00    -0.101 C 
ATOM      7  H   UNL     1     -36.924  23.746   1.498  0.00  0.00    -0.080 HD
ATOM      8  H   UNL     1     -37.285  23.287   5.245  0.00  0.00    -0.080 HD
ENDROOT
BRANCH   1   9
ATOM      9  C   UNL     1     -38.643  22.743   1.129  0.00  0.00    -0.046 C 
BRANCH   9  10
ATOM     10  C   UNL     1     -38.436  21.247   0.862  0.00  0.00    +0.106 C 
BRANCH  10  11
ATOM     11  O   UNL     1     -39.723  20.623   0.841  0.00  0.00    -0.385 OA
ATOM     12  H   UNL     1     -39.645  19.711   1.163  0.00  0.00    +0.210 HD
ENDBRANCH  10  11
BRANCH  10  13
ATOM     13  C   UNL     1     -37.753  20.981  -0.485  0.00  0.00    +0.102 C 
BRANCH  13  16
ATOM     14  O   UNL     1     -39.008  18.211  -0.736  0.00  0.00    -0.272 OA
ATOM     15  O   UNL     1     -35.915  14.695  -0.432  0.00  0.00    -0.252 OA
ATOM     16  N   UNL     1     -36.654  20.021  -0.369  0.00  0.00    -0.238 NA
ATOM     17  N   UNL     1     -35.118  16.875  -0.260  0.00  0.00    -0.228 N 
ATOM     18  N   UNL     1     -34.571  19.269  -0.115  0.00  0.00    -0.240 NA
ATOM     19  N   UNL     1     -37.477  16.434  -0.588  0.00  0.00    -0.211 N 
ATOM     20  C   UNL     1     -36.730  18.658  -0.422  0.00  0.00    +0.192 C 
ATOM     21  C   UNL     1     -35.442  18.225  -0.263  0.00  0.00    +0.136 C 
ATOM     22  C   UNL     1     -35.334  20.341  -0.183  0.00  0.00    +0.203 C 
ATOM     23  C   UNL     1     -37.858  17.802  -0.597  0.00  0.00    +0.254 C 
ATOM     24  C   UNL     1     -36.143  15.910  -0.426  0.00  0.00    +0.318 C 
ATOM     25  C   UNL     1     -33.734  16.452  -0.088  0.00  0.00    +0.123 C 
ATOM     26  C   UNL     1     -38.548  15.456  -0.759  0.00  0.00    +0.124 C 
ENDBRANCH  13  16
ENDBRANCH  10  13
ENDBRANCH   9  10
ENDBRANCH   1   9
BRANCH   2  27
ATOM     27  C   UNL     1     -35.567  24.290   5.613  0.00  0.00    -0.077 C 
BRANCH  27  28
ATOM     28  C   UNL     1     -34.306  24.700   4.851  0.00  0.00    -0.011 C 
BRANCH  28  29
ATOM     29  C   UNL     1     -33.834  26.084   5.290  0.00  0.00    +0.060 C 
BRANCH  29  30
ATOM     30  S   UNL     1     -33.282  27.058   3.859  0.00  0.00    -0.114 S 
BRANCH  30  31
ATOM     31  C   UNL     1     -32.549  28.481   4.660  0.00  0.00    +0.025 C 
ATOM     32  C   UNL     1     -32.394  29.675   3.956  0.00  0.00    +0.006 C 
ATOM     33  C   UNL     1     -32.134  28.396   5.989  0.00  0.00    +0.006 C 
ATOM     34  C   UNL     1     -31.823  30.784   4.579  0.00  0.00    +0.001 C 
ATOM     35  C   UNL     1     -31.562  29.505   6.613  0.00  0.00    +0.001 C 
ATOM     36  C   UNL     1     -31.407  30.699   5.907  0.00  0.00    +0.000 C 
ENDBRANCH  30  31
ENDBRANCH  29  30
ENDBRANCH  28  29
ENDBRANCH  27  28
ENDBRANCH   2  27
TORSDOF 10
ENDMDL
