MODEL 1
REMARK VINA RESULT:      -5.3      0.000      0.000
REMARK  Name = 54703164
REMARK  6 active torsions:
REMARK  status: ('A' for Active; 'I' for Inactive)
REMARK    1  A    between atoms: C3*_2  and  O3*_15
REMARK    2  A    between atoms: C2*_3  and  O2*_17
REMARK    3  A    between atoms: C4*_4  and  C5*_19
REMARK    4  A    between atoms: C1*_5  and  N_7
REMARK    5  A    between atoms: C_12  and  O_13
REMARK    6  A    between atoms: C5*_19  and  O5*_20
REMARK                            x       y       z     vdW  Elec       q    Type
REMARK                         _______ _______ _______ _____ _____    ______ ____
ROOT
ATOM      1  O4* UNL     1     -36.781  24.492   5.210  0.00  0.00    -0.332 OA
ATOM      2  C3* UNL     1     -34.949  24.803   3.750  0.00  0.00    +0.171 C 
ATOM      3  C2* UNL     1     -35.968  25.882   3.448  0.00  0.00    +0.188 C 
ATOM      4  C4* UNL     1     -35.349  24.379   5.158  0.00  0.00    +0.176 C 
ATOM      5  C1* UNL     1     -37.213  25.397   4.181  0.00  0.00    +0.245 C 
ENDROOT
BRANCH   5   7
ATOM      6  O   UNL     1     -39.364  26.570   2.757  0.00  0.00    -0.268 OA
ATOM      7  N   UNL     1     -38.120  24.691   3.316  0.00  0.00    -0.149 N 
ATOM      8  N   UNL     1     -37.907  23.340   3.181  0.00  0.00    -0.169 NA
ATOM      9  C   UNL     1     -39.151  25.362   2.655  0.00  0.00    +0.273 C 
ATOM     10  C   UNL     1     -40.034  24.553   1.783  0.00  0.00    +0.098 C 
ATOM     11  C   UNL     1     -38.706  22.684   2.408  0.00  0.00    +0.155 C 
ATOM     12  C   UNL     1     -39.828  23.243   1.651  0.00  0.00    +0.159 C 
BRANCH  12  13
ATOM     13  O   UNL     1     -40.607  22.439   0.859  0.00  0.00    -0.504 OA
ATOM     14  H   UNL     1     -41.332  21.976   1.231  0.00  0.00    +0.292 HD
ENDBRANCH  12  13
ENDBRANCH   5   7
BRANCH   2  15
ATOM     15  O3* UNL     1     -35.108  23.725   2.836  0.00  0.00    -0.379 OA
ATOM     16  H3* UNL     1     -34.424  23.778   2.150  0.00  0.00    +0.211 HD
ENDBRANCH   2  15
BRANCH   3  17
ATOM     17  O2* UNL     1     -35.527  27.108   4.023  0.00  0.00    -0.378 OA
ATOM     18  H2* UNL     1     -35.842  27.850   3.484  0.00  0.00    +0.211 HD
ENDBRANCH   3  17
BRANCH   4  19
ATOM     19  C5* UNL     1     -34.941  22.973   5.557  0.00  0.00    +0.169 C 
BRANCH  19  20
ATOM     20  O5* UNL     1     -36.021  22.091   5.296  0.00  0.00    -0.379 OA
ATOM     21  H5* UNL     1     -36.273  21.637   6.115  0.00  0.00    +0.211 HD
ENDBRANCH  19  20
ENDBRANCH   4  19
TORSDOF 6
ENDMDL
MODEL 2
REMARK VINA RESULT:      -5.2      3.685      6.399
REMARK  Name = 54703164
REMARK  6 active torsions:
REMARK  status: ('A' for Active; 'I' for Inactive)
REMARK    1  A    between atoms: C3*_2  and  O3*_15
REMARK    2  A    between atoms: C2*_3  and  O2*_17
REMARK    3  A    between atoms: C4*_4  and  C5*_19
REMARK    4  A    between atoms: C1*_5  and  N_7
REMARK    5  A    between atoms: C_12  and  O_13
REMARK    6  A    between atoms: C5*_19  and  O5*_20
REMARK                            x       y       z     vdW  Elec       q    Type
REMARK                         _______ _______ _______ _____ _____    ______ ____
ROOT
ATOM      1  O4* UNL     1     -33.982  24.887   4.283  0.00  0.00    -0.332 OA
ATOM      2  C3* UNL     1     -36.141  25.850   4.262  0.00  0.00    +0.171 C 
ATOM      3  C2* UNL     1     -35.255  26.682   3.358  0.00  0.00    +0.188 C 
ATOM      4  C4* UNL     1     -35.375  24.534   4.326  0.00  0.00    +0.176 C 
ATOM      5  C1* UNL     1     -33.852  26.195   3.703  0.00  0.00    +0.245 C 
ENDROOT
BRANCH   5   7
ATOM      6  O   UNL     1     -32.495  28.606   3.089  0.00  0.00    -0.268 OA
ATOM      7  N   UNL     1     -33.196  27.046   4.660  0.00  0.00    -0.149 N 
ATOM      8  N   UNL     1     -33.245  26.640   5.972  0.00  0.00    -0.169 NA
ATOM      9  C   UNL     1     -32.555  28.218   4.257  0.00  0.00    +0.273 C 
ATOM     10  C   UNL     1     -31.908  29.032   5.312  0.00  0.00    +0.098 C 
ATOM     11  C   UNL     1     -32.666  27.387   6.850  0.00  0.00    +0.155 C 
ATOM     12  C   UNL     1     -31.954  28.639   6.585  0.00  0.00    +0.159 C 
BRANCH  12  13
ATOM     13  O   UNL     1     -31.379  29.347   7.609  0.00  0.00    -0.504 OA
ATOM     14  H   UNL     1     -30.679  29.943   7.430  0.00  0.00    +0.292 HD
ENDBRANCH  12  13
ENDBRANCH   5   7
BRANCH   2  15
ATOM     15  O3* UNL     1     -36.212  26.453   5.548  0.00  0.00    -0.379 OA
ATOM     16  H3* UNL     1     -35.318  26.668   5.855  0.00  0.00    +0.211 HD
ENDBRANCH   2  15
BRANCH   3  17
ATOM     17  O2* UNL     1     -35.547  26.360   2.001  0.00  0.00    -0.378 OA
ATOM     18  H2* UNL     1     -35.648  27.177   1.489  0.00  0.00    +0.211 HD
ENDBRANCH   3  17
BRANCH   4  19
ATOM     19  C5* UNL     1     -35.640  23.684   5.554  0.00  0.00    +0.169 C 
BRANCH  19  20
ATOM     20  O5* UNL     1     -36.373  22.533   5.168  0.00  0.00    -0.379 OA
ATOM     21  H5* UNL     1     -37.321  22.695   5.295  0.00  0.00    +0.211 HD
ENDBRANCH  19  20
ENDBRANCH   4  19
TORSDOF 6
ENDMDL
MODEL 3
REMARK VINA RESULT:      -5.1      1.726      4.596
REMARK  Name = 54703164
REMARK  6 active torsions:
REMARK  status: ('A' for Active; 'I' for Inactive)
REMARK    1  A    between atoms: C3*_2  and  O3*_15
REMARK    2  A    between atoms: C2*_3  and  O2*_17
REMARK    3  A    between atoms: C4*_4  and  C5*_19
REMARK    4  A    between atoms: C1*_5  and  N_7
REMARK    5  A    between atoms: C_12  and  O_13
REMARK    6  A    between atoms: C5*_19  and  O5*_20
REMARK                            x       y       z     vdW  Elec       q    Type
REMARK                         _______ _______ _______ _____ _____    ______ ____
ROOT
ATOM      1  O4* UNL     1     -37.005  24.784   1.637  0.00  0.00    -0.332 OA
ATOM      2  C3* UNL     1     -39.273  24.385   2.170  0.00  0.00    +0.171 C 
ATOM      3  C2* UNL     1     -38.663  25.176   3.308  0.00  0.00    +0.188 C 
ATOM      4  C4* UNL     1     -38.304  24.678   1.030  0.00  0.00    +0.176 C 
ATOM      5  C1* UNL     1     -37.166  25.083   3.033  0.00  0.00    +0.245 C 
ENDROOT
BRANCH   5   7
ATOM      6  O   UNL     1     -36.119  25.368   5.650  0.00  0.00    -0.268 OA
ATOM      7  N   UNL     1     -36.532  24.039   3.791  0.00  0.00    -0.149 N 
ATOM      8  N   UNL     1     -36.439  22.811   3.181  0.00  0.00    -0.169 NA
ATOM      9  C   UNL     1     -36.049  24.279   5.079  0.00  0.00    +0.273 C 
ATOM     10  C   UNL     1     -35.413  23.143   5.785  0.00  0.00    +0.098 C 
ATOM     11  C   UNL     1     -35.877  21.856   3.842  0.00  0.00    +0.155 C 
ATOM     12  C   UNL     1     -35.322  21.952   5.193  0.00  0.00    +0.159 C 
BRANCH  12  13
ATOM     13  O   UNL     1     -34.748  20.860   5.792  0.00  0.00    -0.504 OA
ATOM     14  H   UNL     1     -34.306  20.955   6.613  0.00  0.00    +0.292 HD
ENDBRANCH  12  13
ENDBRANCH   5   7
BRANCH   2  15
ATOM     15  O3* UNL     1     -39.266  23.000   2.492  0.00  0.00    -0.379 OA
ATOM     16  H3* UNL     1     -39.691  22.866   3.354  0.00  0.00    +0.211 HD
ENDBRANCH   2  15
BRANCH   3  17
ATOM     17  O2* UNL     1     -39.080  26.534   3.202  0.00  0.00    -0.378 OA
ATOM     18  H2* UNL     1     -38.846  27.009   4.016  0.00  0.00    +0.211 HD
ENDBRANCH   3  17
BRANCH   4  19
ATOM     19  C5* UNL     1     -38.260  23.637  -0.072  0.00  0.00    +0.169 C 
BRANCH  19  20
ATOM     20  O5* UNL     1     -37.447  22.554   0.350  0.00  0.00    -0.379 OA
ATOM     21  H5* UNL     1     -37.226  21.998  -0.413  0.00  0.00    +0.211 HD
ENDBRANCH  19  20
ENDBRANCH   4  19
TORSDOF 6
ENDMDL
MODEL 4
REMARK VINA RESULT:      -5.1      2.041      3.002
REMARK  Name = 54703164
REMARK  6 active torsions:
REMARK  status: ('A' for Active; 'I' for Inactive)
REMARK    1  A    between atoms: C3*_2  and  O3*_15
REMARK    2  A    between atoms: C2*_3  and  O2*_17
REMARK    3  A    between atoms: C4*_4  and  C5*_19
REMARK    4  A    between atoms: C1*_5  and  N_7
REMARK    5  A    between atoms: C_12  and  O_13
REMARK    6  A    between atoms: C5*_19  and  O5*_20
REMARK                            x       y       z     vdW  Elec       q    Type
REMARK                         _______ _______ _______ _____ _____    ______ ____
ROOT
ATOM      1  O4* UNL     1     -36.487  24.582   5.024  0.00  0.00    -0.332 OA
ATOM      2  C3* UNL     1     -35.998  26.114   3.292  0.00  0.00    +0.171 C 
ATOM      3  C2* UNL     1     -37.366  25.527   3.016  0.00  0.00    +0.188 C 
ATOM      4  C4* UNL     1     -35.834  25.839   4.782  0.00  0.00    +0.176 C 
ATOM      5  C1* UNL     1     -37.433  24.339   3.970  0.00  0.00    +0.245 C 
ENDROOT
BRANCH   5   7
ATOM      6  O   UNL     1     -39.096  22.886   2.195  0.00  0.00    -0.268 OA
ATOM      7  N   UNL     1     -37.082  23.100   3.330  0.00  0.00    -0.149 N 
ATOM      8  N   UNL     1     -35.834  22.599   3.614  0.00  0.00    -0.169 NA
ATOM      9  C   UNL     1     -37.973  22.460   2.467  0.00  0.00    +0.273 C 
ATOM     10  C   UNL     1     -37.524  21.190   1.852  0.00  0.00    +0.098 C 
ATOM     11  C   UNL     1     -35.493  21.490   3.049  0.00  0.00    +0.155 C 
ATOM     12  C   UNL     1     -36.313  20.702   2.126  0.00  0.00    +0.159 C 
BRANCH  12  13
ATOM     13  O   UNL     1     -35.837  19.535   1.589  0.00  0.00    -0.504 OA
ATOM     14  H   UNL     1     -36.407  18.979   1.095  0.00  0.00    +0.292 HD
ENDBRANCH  12  13
ENDBRANCH   5   7
BRANCH   2  15
ATOM     15  O3* UNL     1     -35.015  25.412   2.541  0.00  0.00    -0.379 OA
ATOM     16  H3* UNL     1     -34.373  25.008   3.145  0.00  0.00    +0.211 HD
ENDBRANCH   2  15
BRANCH   3  17
ATOM     17  O2* UNL     1     -38.360  26.480   3.378  0.00  0.00    -0.378 OA
ATOM     18  H2* UNL     1     -38.625  26.985   2.593  0.00  0.00    +0.211 HD
ENDBRANCH   3  17
BRANCH   4  19
ATOM     19  C5* UNL     1     -34.402  25.764   5.278  0.00  0.00    +0.169 C 
BRANCH  19  20
ATOM     20  O5* UNL     1     -33.818  24.557   4.816  0.00  0.00    -0.379 OA
ATOM     21  H5* UNL     1     -33.015  24.370   5.326  0.00  0.00    +0.211 HD
ENDBRANCH  19  20
ENDBRANCH   4  19
TORSDOF 6
ENDMDL
MODEL 5
REMARK VINA RESULT:      -4.9      1.881      4.624
REMARK  Name = 54703164
REMARK  6 active torsions:
REMARK  status: ('A' for Active; 'I' for Inactive)
REMARK    1  A    between atoms: C3*_2  and  O3*_15
REMARK    2  A    between atoms: C2*_3  and  O2*_17
REMARK    3  A    between atoms: C4*_4  and  C5*_19
REMARK    4  A    between atoms: C1*_5  and  N_7
REMARK    5  A    between atoms: C_12  and  O_13
REMARK    6  A    between atoms: C5*_19  and  O5*_20
REMARK                            x       y       z     vdW  Elec       q    Type
REMARK                         _______ _______ _______ _____ _____    ______ ____
ROOT
ATOM      1  O4* UNL     1     -38.029  24.227   1.353  0.00  0.00    -0.332 OA
ATOM      2  C3* UNL     1     -39.039  25.646   2.951  0.00  0.00    +0.171 C 
ATOM      3  C2* UNL     1     -37.552  25.937   2.950  0.00  0.00    +0.188 C 
ATOM      4  C4* UNL     1     -39.229  24.981   1.593  0.00  0.00    +0.176 C 
ATOM      5  C1* UNL     1     -36.971  24.767   2.163  0.00  0.00    +0.245 C 
ENDROOT
BRANCH   5   7
ATOM      6  O   UNL     1     -35.960  22.272   1.278  0.00  0.00    -0.268 OA
ATOM      7  N   UNL     1     -36.482  23.719   3.017  0.00  0.00    -0.149 N 
ATOM      8  N   UNL     1     -36.513  23.969   4.368  0.00  0.00    -0.169 NA
ATOM      9  C   UNL     1     -36.000  22.523   2.482  0.00  0.00    +0.273 C 
ATOM     10  C   UNL     1     -35.513  21.502   3.439  0.00  0.00    +0.098 C 
ATOM     11  C   UNL     1     -36.076  23.046   5.157  0.00  0.00    +0.155 C 
ATOM     12  C   UNL     1     -35.544  21.743   4.750  0.00  0.00    +0.159 C 
BRANCH  12  13
ATOM     13  O   UNL     1     -35.107  20.843   5.687  0.00  0.00    -0.504 OA
ATOM     14  H   UNL     1     -35.707  20.226   6.059  0.00  0.00    +0.292 HD
ENDBRANCH  12  13
ENDBRANCH   5   7
BRANCH   2  15
ATOM     15  O3* UNL     1     -39.349  24.741   4.002  0.00  0.00    -0.379 OA
ATOM     16  H3* UNL     1     -40.121  24.208   3.754  0.00  0.00    +0.211 HD
ENDBRANCH   2  15
BRANCH   3  17
ATOM     17  O2* UNL     1     -37.318  27.148   2.239  0.00  0.00    -0.378 OA
ATOM     18  H2* UNL     1     -38.037  27.774   2.420  0.00  0.00    +0.211 HD
ENDBRANCH   3  17
BRANCH   4  19
ATOM     19  C5* UNL     1     -40.431  24.061   1.480  0.00  0.00    +0.169 C 
BRANCH  19  20
ATOM     20  O5* UNL     1     -40.103  22.805   2.051  0.00  0.00    -0.379 OA
ATOM     21  H5* UNL     1     -40.131  22.873   3.018  0.00  0.00    +0.211 HD
ENDBRANCH  19  20
ENDBRANCH   4  19
TORSDOF 6
ENDMDL
MODEL 6
REMARK VINA RESULT:      -4.8      2.716      5.459
REMARK  Name = 54703164
REMARK  6 active torsions:
REMARK  status: ('A' for Active; 'I' for Inactive)
REMARK    1  A    between atoms: C3*_2  and  O3*_15
REMARK    2  A    between atoms: C2*_3  and  O2*_17
REMARK    3  A    between atoms: C4*_4  and  C5*_19
REMARK    4  A    between atoms: C1*_5  and  N_7
REMARK    5  A    between atoms: C_12  and  O_13
REMARK    6  A    between atoms: C5*_19  and  O5*_20
REMARK                            x       y       z     vdW  Elec       q    Type
REMARK                         _______ _______ _______ _____ _____    ______ ____
ROOT
ATOM      1  O4* UNL     1     -37.218  22.846   1.889  0.00  0.00    -0.332 OA
ATOM      2  C3* UNL     1     -35.601  21.273   1.186  0.00  0.00    +0.171 C 
ATOM      3  C2* UNL     1     -35.877  21.026   2.654  0.00  0.00    +0.188 C 
ATOM      4  C4* UNL     1     -36.845  22.042   0.758  0.00  0.00    +0.176 C 
ATOM      5  C1* UNL     1     -36.648  22.272   3.076  0.00  0.00    +0.245 C 
ENDROOT
BRANCH   5   7
ATOM      6  O   UNL     1     -36.047  22.421   5.842  0.00  0.00    -0.268 OA
ATOM      7  N   UNL     1     -35.802  23.260   3.690  0.00  0.00    -0.149 N 
ATOM      8  N   UNL     1     -35.248  24.196   2.850  0.00  0.00    -0.169 NA
ATOM      9  C   UNL     1     -35.565  23.247   5.066  0.00  0.00    +0.273 C 
ATOM     10  C   UNL     1     -34.678  24.302   5.609  0.00  0.00    +0.098 C 
ATOM     11  C   UNL     1     -34.482  25.091   3.376  0.00  0.00    +0.155 C 
ATOM     12  C   UNL     1     -34.140  25.211   4.795  0.00  0.00    +0.159 C 
BRANCH  12  13
ATOM     13  O   UNL     1     -33.311  26.211   5.232  0.00  0.00    -0.504 OA
ATOM     14  H   UNL     1     -33.116  26.936   4.672  0.00  0.00    +0.292 HD
ENDBRANCH  12  13
ENDBRANCH   5   7
BRANCH   2  15
ATOM     15  O3* UNL     1     -34.438  22.080   1.047  0.00  0.00    -0.379 OA
ATOM     16  H3* UNL     1     -34.696  22.976   0.780  0.00  0.00    +0.211 HD
ENDBRANCH   2  15
BRANCH   3  17
ATOM     17  O2* UNL     1     -36.719  19.884   2.781  0.00  0.00    -0.378 OA
ATOM     18  H2* UNL     1     -36.768  19.620   3.713  0.00  0.00    +0.211 HD
ENDBRANCH   3  17
BRANCH   4  19
ATOM     19  C5* UNL     1     -36.675  22.933  -0.458  0.00  0.00    +0.169 C 
BRANCH  19  20
ATOM     20  O5* UNL     1     -36.144  24.181  -0.042  0.00  0.00    -0.379 OA
ATOM     21  H5* UNL     1     -35.488  24.485  -0.689  0.00  0.00    +0.211 HD
ENDBRANCH  19  20
ENDBRANCH   4  19
TORSDOF 6
ENDMDL
MODEL 7
REMARK VINA RESULT:      -4.8      2.713      4.217
REMARK  Name = 54703164
REMARK  6 active torsions:
REMARK  status: ('A' for Active; 'I' for Inactive)
REMARK    1  A    between atoms: C3*_2  and  O3*_15
REMARK    2  A    between atoms: C2*_3  and  O2*_17
REMARK    3  A    between atoms: C4*_4  and  C5*_19
REMARK    4  A    between atoms: C1*_5  and  N_7
REMARK    5  A    between atoms: C_12  and  O_13
REMARK    6  A    between atoms: C5*_19  and  O5*_20
REMARK                            x       y       z     vdW  Elec       q    Type
REMARK                         _______ _______ _______ _____ _____    ______ ____
ROOT
ATOM      1  O4* UNL     1     -34.846  26.977   4.524  0.00  0.00    -0.332 OA
ATOM      2  C3* UNL     1     -33.283  26.785   2.761  0.00  0.00    +0.171 C 
ATOM      3  C2* UNL     1     -34.622  26.299   2.246  0.00  0.00    +0.188 C 
ATOM      4  C4* UNL     1     -33.696  27.630   3.960  0.00  0.00    +0.176 C 
ATOM      5  C1* UNL     1     -35.448  26.145   3.519  0.00  0.00    +0.245 C 
ENDROOT
BRANCH   5   7
ATOM      6  O   UNL     1     -36.873  23.997   2.343  0.00  0.00    -0.268 OA
ATOM      7  N   UNL     1     -35.460  24.792   4.005  0.00  0.00    -0.149 N 
ATOM      8  N   UNL     1     -34.712  24.541   5.131  0.00  0.00    -0.169 NA
ATOM      9  C   UNL     1     -36.195  23.801   3.352  0.00  0.00    +0.273 C 
ATOM     10  C   UNL     1     -36.146  22.435   3.924  0.00  0.00    +0.098 C 
ATOM     11  C   UNL     1     -34.704  23.333   5.585  0.00  0.00    +0.155 C 
ATOM     12  C   UNL     1     -35.421  22.191   5.015  0.00  0.00    +0.159 C 
BRANCH  12  13
ATOM     13  O   UNL     1     -35.332  20.951   5.593  0.00  0.00    -0.504 OA
ATOM     14  H   UNL     1     -34.723  20.322   5.259  0.00  0.00    +0.292 HD
ENDBRANCH  12  13
ENDBRANCH   5   7
BRANCH   2  15
ATOM     15  O3* UNL     1     -32.498  25.674   3.176  0.00  0.00    -0.379 OA
ATOM     16  H3* UNL     1     -31.561  25.924   3.182  0.00  0.00    +0.211 HD
ENDBRANCH   2  15
BRANCH   3  17
ATOM     17  O2* UNL     1     -35.198  27.313   1.428  0.00  0.00    -0.378 OA
ATOM     18  H2* UNL     1     -36.105  27.061   1.192  0.00  0.00    +0.211 HD
ENDBRANCH   3  17
BRANCH   4  19
ATOM     19  C5* UNL     1     -32.638  27.801   5.034  0.00  0.00    +0.169 C 
BRANCH  19  20
ATOM     20  O5* UNL     1     -32.776  26.758   5.985  0.00  0.00    -0.379 OA
ATOM     21  H5* UNL     1     -31.923  26.599   6.417  0.00  0.00    +0.211 HD
ENDBRANCH  19  20
ENDBRANCH   4  19
TORSDOF 6
ENDMDL
MODEL 8
REMARK VINA RESULT:      -4.8      1.818      5.238
REMARK  Name = 54703164
REMARK  6 active torsions:
REMARK  status: ('A' for Active; 'I' for Inactive)
REMARK    1  A    between atoms: C3*_2  and  O3*_15
REMARK    2  A    between atoms: C2*_3  and  O2*_17
REMARK    3  A    between atoms: C4*_4  and  C5*_19
REMARK    4  A    between atoms: C1*_5  and  N_7
REMARK    5  A    between atoms: C_12  and  O_13
REMARK    6  A    between atoms: C5*_19  and  O5*_20
REMARK                            x       y       z     vdW  Elec       q    Type
REMARK                         _______ _______ _______ _____ _____    ______ ____
ROOT
ATOM      1  O4* UNL     1     -38.841  24.113   3.398  0.00  0.00    -0.332 OA
ATOM      2  C3* UNL     1     -38.108  24.723   1.235  0.00  0.00    +0.171 C 
ATOM      3  C2* UNL     1     -37.243  23.573   1.709  0.00  0.00    +0.188 C 
ATOM      4  C4* UNL     1     -39.333  24.583   2.131  0.00  0.00    +0.176 C 
ATOM      5  C1* UNL     1     -37.562  23.490   3.197  0.00  0.00    +0.245 C 
ENDROOT
BRANCH   5   7
ATOM      6  O   UNL     1     -35.155  22.369   4.187  0.00  0.00    -0.268 OA
ATOM      7  N   UNL     1     -36.595  24.182   4.006  0.00  0.00    -0.149 N 
ATOM      8  N   UNL     1     -36.879  25.492   4.309  0.00  0.00    -0.169 NA
ATOM      9  C   UNL     1     -35.435  23.541   4.444  0.00  0.00    +0.273 C 
ATOM     10  C   UNL     1     -34.495  24.334   5.270  0.00  0.00    +0.098 C 
ATOM     11  C   UNL     1     -36.025  26.136   5.031  0.00  0.00    +0.155 C 
ATOM     12  C   UNL     1     -34.769  25.605   5.565  0.00  0.00    +0.159 C 
BRANCH  12  13
ATOM     13  O   UNL     1     -33.942  26.393   6.322  0.00  0.00    -0.504 OA
ATOM     14  H   UNL     1     -34.142  26.552   7.224  0.00  0.00    +0.292 HD
ENDBRANCH  12  13
ENDBRANCH   5   7
BRANCH   2  15
ATOM     15  O3* UNL     1     -37.443  25.955   1.481  0.00  0.00    -0.379 OA
ATOM     16  H3* UNL     1     -36.530  25.780   1.761  0.00  0.00    +0.211 HD
ENDBRANCH   2  15
BRANCH   3  17
ATOM     17  O2* UNL     1     -37.672  22.376   1.066  0.00  0.00    -0.378 OA
ATOM     18  H2* UNL     1     -38.630  22.414   0.917  0.00  0.00    +0.211 HD
ENDBRANCH   3  17
BRANCH   4  19
ATOM     19  C5* UNL     1     -40.133  25.855   2.345  0.00  0.00    +0.169 C 
BRANCH  19  20
ATOM     20  O5* UNL     1     -39.595  26.555   3.454  0.00  0.00    -0.379 OA
ATOM     21  H5* UNL     1     -40.318  26.894   4.005  0.00  0.00    +0.211 HD
ENDBRANCH  19  20
ENDBRANCH   4  19
TORSDOF 6
ENDMDL
MODEL 9
REMARK VINA RESULT:      -4.8      2.468      4.547
REMARK  Name = 54703164
REMARK  6 active torsions:
REMARK  status: ('A' for Active; 'I' for Inactive)
REMARK    1  A    between atoms: C3*_2  and  O3*_15
REMARK    2  A    between atoms: C2*_3  and  O2*_17
REMARK    3  A    between atoms: C4*_4  and  C5*_19
REMARK    4  A    between atoms: C1*_5  and  N_7
REMARK    5  A    between atoms: C_12  and  O_13
REMARK    6  A    between atoms: C5*_19  and  O5*_20
REMARK                            x       y       z     vdW  Elec       q    Type
REMARK                         _______ _______ _______ _____ _____    ______ ____
ROOT
ATOM      1  O4* UNL     1     -34.946  25.220   1.773  0.00  0.00    -0.332 OA
ATOM      2  C3* UNL     1     -36.980  26.280   2.340  0.00  0.00    +0.171 C 
ATOM      3  C2* UNL     1     -36.011  26.497   3.484  0.00  0.00    +0.188 C 
ATOM      4  C4* UNL     1     -36.038  25.951   1.189  0.00  0.00    +0.176 C 
ATOM      5  C1* UNL     1     -34.887  25.514   3.178  0.00  0.00    +0.245 C 
ENDROOT
BRANCH   5   7
ATOM      6  O   UNL     1     -34.423  25.181   5.953  0.00  0.00    -0.268 OA
ATOM      7  N   UNL     1     -35.026  24.278   3.900  0.00  0.00    -0.149 N 
ATOM      8  N   UNL     1     -35.419  23.184   3.168  0.00  0.00    -0.169 NA
ATOM      9  C   UNL     1     -34.776  24.217   5.272  0.00  0.00    +0.273 C 
ATOM     10  C   UNL     1     -34.947  22.902   5.933  0.00  0.00    +0.098 C 
ATOM     11  C   UNL     1     -35.554  22.064   3.794  0.00  0.00    +0.155 C 
ATOM     12  C   UNL     1     -35.328  21.840   5.223  0.00  0.00    +0.159 C 
BRANCH  12  13
ATOM     13  O   UNL     1     -35.507  20.597   5.773  0.00  0.00    -0.504 OA
ATOM     14  H   UNL     1     -35.517  20.494   6.705  0.00  0.00    +0.292 HD
ENDBRANCH  12  13
ENDBRANCH   5   7
BRANCH   2  15
ATOM     15  O3* UNL     1     -37.824  25.174   2.632  0.00  0.00    -0.379 OA
ATOM     16  H3* UNL     1     -37.310  24.352   2.583  0.00  0.00    +0.211 HD
ENDBRANCH   2  15
BRANCH   3  17
ATOM     17  O2* UNL     1     -35.507  27.828   3.417  0.00  0.00    -0.378 OA
ATOM     18  H2* UNL     1     -36.142  28.391   2.946  0.00  0.00    +0.211 HD
ENDBRANCH   3  17
BRANCH   4  19
ATOM     19  C5* UNL     1     -36.643  25.135   0.063  0.00  0.00    +0.169 C 
BRANCH  19  20
ATOM     20  O5* UNL     1     -36.582  23.760   0.407  0.00  0.00    -0.379 OA
ATOM     21  H5* UNL     1     -37.419  23.330   0.171  0.00  0.00    +0.211 HD
ENDBRANCH  19  20
ENDBRANCH   4  19
TORSDOF 6
ENDMDL
