MODEL 1
REMARK VINA RESULT:      -6.0      0.000      0.000
REMARK  Name = 5380905
REMARK  6 active torsions:
REMARK  status: ('A' for Active; 'I' for Inactive)
REMARK    1  A    between atoms: C_4  and  C_12
REMARK    2  A    between atoms: C_6  and  O_22
REMARK    3  A    between atoms: C_8  and  O_24
REMARK    4  A    between atoms: C_10  and  O_26
REMARK    5  A    between atoms: C_15  and  O_20
REMARK    6  A    between atoms: C_16  and  O_18
REMARK                            x       y       z     vdW  Elec       q    Type
REMARK                         _______ _______ _______ _____ _____    ______ ____
ROOT
ATOM      1  O   UNL     1     -35.072  22.626   2.595  0.00  0.00    -0.450 OA
ATOM      2  O   UNL     1     -39.132  22.440   2.296  0.00  0.00    -0.283 OA
ATOM      3  C   UNL     1     -37.046  21.470   1.782  0.00  0.00    +0.110 A 
ATOM      4  C   UNL     1     -35.885  23.584   3.179  0.00  0.00    +0.182 A 
ATOM      5  C   UNL     1     -35.664  21.592   1.917  0.00  0.00    +0.155 A 
ATOM      6  C   UNL     1     -37.230  23.587   3.114  0.00  0.00    +0.212 A 
ATOM      7  C   UNL     1     -37.913  22.492   2.387  0.00  0.00    +0.238 A 
ATOM      8  C   UNL     1     -37.594  20.394   1.078  0.00  0.00    +0.143 C 
ATOM      9  C   UNL     1     -34.821  20.637   1.349  0.00  0.00    +0.074 C 
ATOM     10  C   UNL     1     -35.364  19.561   0.646  0.00  0.00    +0.140 C 
ATOM     11  C   UNL     1     -36.748  19.440   0.511  0.00  0.00    +0.073 C 
ENDROOT
BRANCH   4  12
ATOM     12  C   UNL     1     -35.124  24.638   3.873  0.00  0.00    +0.041 C 
ATOM     13  C   UNL     1     -34.473  25.628   3.136  0.00  0.00    +0.043 C 
ATOM     14  C   UNL     1     -35.053  24.647   5.266  0.00  0.00    +0.006 C 
ATOM     15  C   UNL     1     -33.752  26.626   3.793  0.00  0.00    +0.168 C 
ATOM     16  C   UNL     1     -33.681  26.634   5.186  0.00  0.00    +0.172 C 
ATOM     17  C   UNL     1     -34.333  25.644   5.923  0.00  0.00    +0.040 C 
BRANCH  16  18
ATOM     18  O   UNL     1     -32.981  27.603   5.838  0.00  0.00    -0.468 OA
ATOM     19  C   UNL     1     -32.546  27.307   7.164  0.00  0.00    +0.253 C 
ENDBRANCH  16  18
BRANCH  15  20
ATOM     20  O   UNL     1     -33.120  27.587   3.062  0.00  0.00    -0.503 OA
ATOM     21  H   UNL     1     -33.049  28.459   3.398  0.00  0.00    +0.292 HD
ENDBRANCH  15  20
ENDBRANCH   4  12
BRANCH   6  22
ATOM     22  O   UNL     1     -38.007  24.576   3.679  0.00  0.00    -0.465 OA
ATOM     23  C   UNL     1     -38.257  25.612   2.749  0.00  0.00    +0.253 C 
ENDBRANCH   6  22
BRANCH   8  24
ATOM     24  O   UNL     1     -38.935  20.229   0.916  0.00  0.00    -0.505 OA
ATOM     25  H   UNL     1     -39.430  20.858   0.428  0.00  0.00    +0.292 HD
ENDBRANCH   8  24
BRANCH  10  26
ATOM     26  O   UNL     1     -34.542  18.628   0.091  0.00  0.00    -0.505 OA
ATOM     27  H   UNL     1     -34.869  17.773  -0.106  0.00  0.00    +0.292 HD
ENDBRANCH  10  26
TORSDOF 6
ENDMDL
MODEL 2
REMARK VINA RESULT:      -6.0      2.394      4.352
REMARK  Name = 5380905
REMARK  6 active torsions:
REMARK  status: ('A' for Active; 'I' for Inactive)
REMARK    1  A    between atoms: C_4  and  C_12
REMARK    2  A    between atoms: C_6  and  O_22
REMARK    3  A    between atoms: C_8  and  O_24
REMARK    4  A    between atoms: C_10  and  O_26
REMARK    5  A    between atoms: C_15  and  O_20
REMARK    6  A    between atoms: C_16  and  O_18
REMARK                            x       y       z     vdW  Elec       q    Type
REMARK                         _______ _______ _______ _____ _____    ______ ____
ROOT
ATOM      1  O   UNL     1     -33.964  19.823   1.893  0.00  0.00    -0.450 OA
ATOM      2  O   UNL     1     -36.858  18.517  -0.662  0.00  0.00    -0.283 OA
ATOM      3  C   UNL     1     -34.681  18.238   0.200  0.00  0.00    +0.110 A 
ATOM      4  C   UNL     1     -35.200  20.448   1.819  0.00  0.00    +0.182 A 
ATOM      5  C   UNL     1     -33.733  18.735   1.092  0.00  0.00    +0.155 A 
ATOM      6  C   UNL     1     -36.196  20.073   0.995  0.00  0.00    +0.212 A 
ATOM      7  C   UNL     1     -35.988  18.905   0.107  0.00  0.00    +0.238 A 
ATOM      8  C   UNL     1     -34.388  17.126  -0.593  0.00  0.00    +0.143 C 
ATOM      9  C   UNL     1     -32.484  18.122   1.196  0.00  0.00    +0.074 C 
ATOM     10  C   UNL     1     -32.188  17.011   0.407  0.00  0.00    +0.140 C 
ATOM     11  C   UNL     1     -33.139  16.514  -0.486  0.00  0.00    +0.073 C 
ENDROOT
BRANCH   4  12
ATOM     12  C   UNL     1     -35.316  21.601   2.729  0.00  0.00    +0.041 C 
ATOM     13  C   UNL     1     -35.649  21.401   4.069  0.00  0.00    +0.043 C 
ATOM     14  C   UNL     1     -35.094  22.893   2.251  0.00  0.00    +0.006 C 
ATOM     15  C   UNL     1     -35.759  22.493   4.931  0.00  0.00    +0.168 C 
ATOM     16  C   UNL     1     -35.537  23.784   4.453  0.00  0.00    +0.172 C 
ATOM     17  C   UNL     1     -35.204  23.984   3.113  0.00  0.00    +0.040 C 
BRANCH  16  18
ATOM     18  O   UNL     1     -35.641  24.858   5.284  0.00  0.00    -0.468 OA
ATOM     19  C   UNL     1     -34.442  25.577   5.567  0.00  0.00    +0.253 C 
ENDBRANCH  16  18
BRANCH  15  20
ATOM     20  O   UNL     1     -36.085  22.285   6.238  0.00  0.00    -0.503 OA
ATOM     21  H   UNL     1     -36.638  22.895   6.684  0.00  0.00    +0.292 HD
ENDBRANCH  15  20
ENDBRANCH   4  12
BRANCH   6  22
ATOM     22  O   UNL     1     -37.402  20.738   0.923  0.00  0.00    -0.465 OA
ATOM     23  C   UNL     1     -37.429  21.610  -0.191  0.00  0.00    +0.253 C 
ENDBRANCH   6  22
BRANCH   8  24
ATOM     24  O   UNL     1     -35.278  16.601  -1.480  0.00  0.00    -0.505 OA
ATOM     25  H   UNL     1     -34.996  15.964  -2.106  0.00  0.00    +0.292 HD
ENDBRANCH   8  24
BRANCH  10  26
ATOM     26  O   UNL     1     -30.971  16.411   0.508  0.00  0.00    -0.505 OA
ATOM     27  H   UNL     1     -30.258  16.862   0.915  0.00  0.00    +0.292 HD
ENDBRANCH  10  26
TORSDOF 6
ENDMDL
MODEL 3
REMARK VINA RESULT:      -5.9      2.825      4.648
REMARK  Name = 5380905
REMARK  6 active torsions:
REMARK  status: ('A' for Active; 'I' for Inactive)
REMARK    1  A    between atoms: C_4  and  C_12
REMARK    2  A    between atoms: C_6  and  O_22
REMARK    3  A    between atoms: C_8  and  O_24
REMARK    4  A    between atoms: C_10  and  O_26
REMARK    5  A    between atoms: C_15  and  O_20
REMARK    6  A    between atoms: C_16  and  O_18
REMARK                            x       y       z     vdW  Elec       q    Type
REMARK                         _______ _______ _______ _____ _____    ______ ____
ROOT
ATOM      1  O   UNL     1     -33.574  25.440   5.028  0.00  0.00    -0.450 OA
ATOM      2  O   UNL     1     -36.740  26.497   2.690  0.00  0.00    -0.283 OA
ATOM      3  C   UNL     1     -35.651  24.818   3.936  0.00  0.00    +0.110 A 
ATOM      4  C   UNL     1     -33.709  26.727   4.531  0.00  0.00    +0.182 A 
ATOM      5  C   UNL     1     -34.544  24.519   4.728  0.00  0.00    +0.155 A 
ATOM      6  C   UNL     1     -34.723  27.141   3.750  0.00  0.00    +0.212 A 
ATOM      7  C   UNL     1     -35.792  26.178   3.395  0.00  0.00    +0.238 A 
ATOM      8  C   UNL     1     -36.608  23.837   3.662  0.00  0.00    +0.143 C 
ATOM      9  C   UNL     1     -34.386  23.235   5.250  0.00  0.00    +0.074 C 
ATOM     10  C   UNL     1     -35.340  22.253   4.979  0.00  0.00    +0.140 C 
ATOM     11  C   UNL     1     -36.448  22.554   4.187  0.00  0.00    +0.073 C 
ENDROOT
BRANCH   4  12
ATOM     12  C   UNL     1     -32.601  27.614   4.926  0.00  0.00    +0.041 C 
ATOM     13  C   UNL     1     -32.537  28.114   6.228  0.00  0.00    +0.043 C 
ATOM     14  C   UNL     1     -31.614  27.954   4.000  0.00  0.00    +0.006 C 
ATOM     15  C   UNL     1     -31.488  28.954   6.602  0.00  0.00    +0.168 C 
ATOM     16  C   UNL     1     -30.502  29.294   5.676  0.00  0.00    +0.172 C 
ATOM     17  C   UNL     1     -30.565  28.793   4.375  0.00  0.00    +0.040 C 
BRANCH  16  18
ATOM     18  O   UNL     1     -29.472  30.113   6.029  0.00  0.00    -0.468 OA
ATOM     19  C   UNL     1     -28.231  29.489   6.352  0.00  0.00    +0.253 C 
ENDBRANCH  16  18
BRANCH  15  20
ATOM     20  O   UNL     1     -31.438  29.437   7.875  0.00  0.00    -0.503 OA
ATOM     21  H   UNL     1     -31.012  30.253   8.049  0.00  0.00    +0.292 HD
ENDBRANCH  15  20
ENDBRANCH   4  12
BRANCH   6  22
ATOM     22  O   UNL     1     -34.809  28.421   3.245  0.00  0.00    -0.465 OA
ATOM     23  C   UNL     1     -34.418  28.453   1.886  0.00  0.00    +0.253 C 
ENDBRANCH   6  22
BRANCH   8  24
ATOM     24  O   UNL     1     -37.707  24.077   2.895  0.00  0.00    -0.505 OA
ATOM     25  H   UNL     1     -38.310  24.752   3.138  0.00  0.00    +0.292 HD
ENDBRANCH   8  24
BRANCH  10  26
ATOM     26  O   UNL     1     -35.187  21.000   5.489  0.00  0.00    -0.505 OA
ATOM     27  H   UNL     1     -35.100  20.877   6.413  0.00  0.00    +0.292 HD
ENDBRANCH  10  26
TORSDOF 6
ENDMDL
MODEL 4
REMARK VINA RESULT:      -5.8      1.984      7.214
REMARK  Name = 5380905
REMARK  6 active torsions:
REMARK  status: ('A' for Active; 'I' for Inactive)
REMARK    1  A    between atoms: C_4  and  C_12
REMARK    2  A    between atoms: C_6  and  O_22
REMARK    3  A    between atoms: C_8  and  O_24
REMARK    4  A    between atoms: C_10  and  O_26
REMARK    5  A    between atoms: C_15  and  O_20
REMARK    6  A    between atoms: C_16  and  O_18
REMARK                            x       y       z     vdW  Elec       q    Type
REMARK                         _______ _______ _______ _____ _____    ______ ____
ROOT
ATOM      1  O   UNL     1     -35.741  25.425   2.387  0.00  0.00    -0.450 OA
ATOM      2  O   UNL     1     -34.314  25.505   6.204  0.00  0.00    -0.283 OA
ATOM      3  C   UNL     1     -34.236  26.399   4.023  0.00  0.00    +0.110 A 
ATOM      4  C   UNL     1     -36.233  24.570   3.362  0.00  0.00    +0.182 A 
ATOM      5  C   UNL     1     -34.764  26.320   2.736  0.00  0.00    +0.155 A 
ATOM      6  C   UNL     1     -35.804  24.539   4.637  0.00  0.00    +0.212 A 
ATOM      7  C   UNL     1     -34.743  25.485   5.058  0.00  0.00    +0.238 A 
ATOM      8  C   UNL     1     -33.238  27.331   4.321  0.00  0.00    +0.143 C 
ATOM      9  C   UNL     1     -34.296  27.173   1.737  0.00  0.00    +0.074 C 
ATOM     10  C   UNL     1     -33.301  28.106   2.030  0.00  0.00    +0.140 C 
ATOM     11  C   UNL     1     -32.773  28.185   3.319  0.00  0.00    +0.073 C 
ENDROOT
BRANCH   4  12
ATOM     12  C   UNL     1     -37.277  23.661   2.855  0.00  0.00    +0.041 C 
ATOM     13  C   UNL     1     -36.938  22.370   2.447  0.00  0.00    +0.043 C 
ATOM     14  C   UNL     1     -38.602  24.089   2.785  0.00  0.00    +0.006 C 
ATOM     15  C   UNL     1     -37.925  21.509   1.968  0.00  0.00    +0.168 C 
ATOM     16  C   UNL     1     -39.251  21.937   1.896  0.00  0.00    +0.172 C 
ATOM     17  C   UNL     1     -39.589  23.228   2.305  0.00  0.00    +0.040 C 
BRANCH  16  18
ATOM     18  O   UNL     1     -40.224  21.106   1.431  0.00  0.00    -0.468 OA
ATOM     19  C   UNL     1     -40.598  21.248   0.062  0.00  0.00    +0.253 C 
ENDBRANCH  16  18
BRANCH  15  20
ATOM     20  O   UNL     1     -37.582  20.251   1.571  0.00  0.00    -0.503 OA
ATOM     21  H   UNL     1     -36.958  19.758   2.067  0.00  0.00    +0.292 HD
ENDBRANCH  15  20
ENDBRANCH   4  12
BRANCH   6  22
ATOM     22  O   UNL     1     -36.291  23.652   5.573  0.00  0.00    -0.465 OA
ATOM     23  C   UNL     1     -35.395  22.574   5.759  0.00  0.00    +0.253 C 
ENDBRANCH   6  22
BRANCH   8  24
ATOM     24  O   UNL     1     -32.689  27.449   5.561  0.00  0.00    -0.505 OA
ATOM     25  H   UNL     1     -32.572  26.689   6.096  0.00  0.00    +0.292 HD
ENDBRANCH   8  24
BRANCH  10  26
ATOM     26  O   UNL     1     -32.844  28.940   1.056  0.00  0.00    -0.505 OA
ATOM     27  H   UNL     1     -33.211  28.902   0.195  0.00  0.00    +0.292 HD
ENDBRANCH  10  26
TORSDOF 6
ENDMDL
MODEL 5
REMARK VINA RESULT:      -5.8      2.575      7.720
REMARK  Name = 5380905
REMARK  6 active torsions:
REMARK  status: ('A' for Active; 'I' for Inactive)
REMARK    1  A    between atoms: C_4  and  C_12
REMARK    2  A    between atoms: C_6  and  O_22
REMARK    3  A    between atoms: C_8  and  O_24
REMARK    4  A    between atoms: C_10  and  O_26
REMARK    5  A    between atoms: C_15  and  O_20
REMARK    6  A    between atoms: C_16  and  O_18
REMARK                            x       y       z     vdW  Elec       q    Type
REMARK                         _______ _______ _______ _____ _____    ______ ____
ROOT
ATOM      1  O   UNL     1     -37.741  23.343   2.268  0.00  0.00    -0.450 OA
ATOM      2  O   UNL     1     -35.172  20.609   3.858  0.00  0.00    -0.283 OA
ATOM      3  C   UNL     1     -36.080  22.782   3.947  0.00  0.00    +0.110 A 
ATOM      4  C   UNL     1     -37.628  22.065   1.742  0.00  0.00    +0.182 A 
ATOM      5  C   UNL     1     -36.975  23.672   3.355  0.00  0.00    +0.155 A 
ATOM      6  C   UNL     1     -36.797  21.117   2.213  0.00  0.00    +0.212 A 
ATOM      7  C   UNL     1     -35.945  21.431   3.385  0.00  0.00    +0.238 A 
ATOM      8  C   UNL     1     -35.324  23.174   5.054  0.00  0.00    +0.143 C 
ATOM      9  C   UNL     1     -37.119  24.961   3.868  0.00  0.00    +0.074 C 
ATOM     10  C   UNL     1     -36.365  25.356   4.974  0.00  0.00    +0.140 C 
ATOM     11  C   UNL     1     -35.470  24.465   5.566  0.00  0.00    +0.073 C 
ENDROOT
BRANCH   4  12
ATOM     12  C   UNL     1     -38.503  21.843   0.577  0.00  0.00    +0.041 C 
ATOM     13  C   UNL     1     -39.776  21.299   0.755  0.00  0.00    +0.043 C 
ATOM     14  C   UNL     1     -38.061  22.178  -0.703  0.00  0.00    +0.006 C 
ATOM     15  C   UNL     1     -40.605  21.090  -0.347  0.00  0.00    +0.168 C 
ATOM     16  C   UNL     1     -40.162  21.423  -1.627  0.00  0.00    +0.172 C 
ATOM     17  C   UNL     1     -38.890  21.968  -1.805  0.00  0.00    +0.040 C 
BRANCH  16  18
ATOM     18  O   UNL     1     -40.962  21.223  -2.711  0.00  0.00    -0.468 OA
ATOM     19  C   UNL     1     -40.676  20.089  -3.528  0.00  0.00    +0.253 C 
ENDBRANCH  16  18
BRANCH  15  20
ATOM     20  O   UNL     1     -41.846  20.557  -0.161  0.00  0.00    -0.503 OA
ATOM     21  H   UNL     1     -42.605  21.035  -0.431  0.00  0.00    +0.292 HD
ENDBRANCH  15  20
ENDBRANCH   4  12
BRANCH   6  22
ATOM     22  O   UNL     1     -36.685  19.866   1.645  0.00  0.00    -0.465 OA
ATOM     23  C   UNL     1     -35.589  19.816   0.751  0.00  0.00    +0.253 C 
ENDBRANCH   6  22
BRANCH   8  24
ATOM     24  O   UNL     1     -34.436  22.345   5.668  0.00  0.00    -0.505 OA
ATOM     25  H   UNL     1     -33.610  22.677   5.962  0.00  0.00    +0.292 HD
ENDBRANCH   8  24
BRANCH  10  26
ATOM     26  O   UNL     1     -36.505  26.614   5.477  0.00  0.00    -0.505 OA
ATOM     27  H   UNL     1     -36.218  27.353   4.978  0.00  0.00    +0.292 HD
ENDBRANCH  10  26
TORSDOF 6
ENDMDL
MODEL 6
REMARK VINA RESULT:      -5.7      2.593      6.438
REMARK  Name = 5380905
REMARK  6 active torsions:
REMARK  status: ('A' for Active; 'I' for Inactive)
REMARK    1  A    between atoms: C_4  and  C_12
REMARK    2  A    between atoms: C_6  and  O_22
REMARK    3  A    between atoms: C_8  and  O_24
REMARK    4  A    between atoms: C_10  and  O_26
REMARK    5  A    between atoms: C_15  and  O_20
REMARK    6  A    between atoms: C_16  and  O_18
REMARK                            x       y       z     vdW  Elec       q    Type
REMARK                         _______ _______ _______ _____ _____    ______ ____
ROOT
ATOM      1  O   UNL     1     -35.257  22.334   2.061  0.00  0.00    -0.450 OA
ATOM      2  O   UNL     1     -38.894  20.934   0.872  0.00  0.00    -0.283 OA
ATOM      3  C   UNL     1     -37.674  22.554   2.073  0.00  0.00    +0.110 A 
ATOM      4  C   UNL     1     -35.372  21.213   1.253  0.00  0.00    +0.182 A 
ATOM      5  C   UNL     1     -36.401  22.981   2.448  0.00  0.00    +0.155 A 
ATOM      6  C   UNL     1     -36.539  20.695   0.829  0.00  0.00    +0.212 A 
ATOM      7  C   UNL     1     -37.803  21.358   1.228  0.00  0.00    +0.238 A 
ATOM      8  C   UNL     1     -38.806  23.253   2.499  0.00  0.00    +0.143 C 
ATOM      9  C   UNL     1     -36.253  24.110   3.253  0.00  0.00    +0.074 C 
ATOM     10  C   UNL     1     -37.381  24.812   3.679  0.00  0.00    +0.140 C 
ATOM     11  C   UNL     1     -38.655  24.384   3.304  0.00  0.00    +0.073 C 
ENDROOT
BRANCH   4  12
ATOM     12  C   UNL     1     -34.069  20.614   0.912  0.00  0.00    +0.041 C 
ATOM     13  C   UNL     1     -33.696  19.392   1.473  0.00  0.00    +0.043 C 
ATOM     14  C   UNL     1     -33.209  21.267   0.029  0.00  0.00    +0.006 C 
ATOM     15  C   UNL     1     -32.463  18.824   1.151  0.00  0.00    +0.168 C 
ATOM     16  C   UNL     1     -31.603  19.478   0.268  0.00  0.00    +0.172 C 
ATOM     17  C   UNL     1     -31.976  20.700  -0.293  0.00  0.00    +0.040 C 
BRANCH  16  18
ATOM     18  O   UNL     1     -30.397  18.934  -0.054  0.00  0.00    -0.468 OA
ATOM     19  C   UNL     1     -29.379  19.830  -0.498  0.00  0.00    +0.253 C 
ENDBRANCH  16  18
BRANCH  15  20
ATOM     20  O   UNL     1     -32.110  17.631   1.705  0.00  0.00    -0.503 OA
ATOM     21  H   UNL     1     -31.252  17.283   1.560  0.00  0.00    +0.292 HD
ENDBRANCH  15  20
ENDBRANCH   4  12
BRANCH   6  22
ATOM     22  O   UNL     1     -36.619  19.558   0.053  0.00  0.00    -0.465 OA
ATOM     23  C   UNL     1     -36.634  19.889  -1.323  0.00  0.00    +0.253 C 
ENDBRANCH   6  22
BRANCH   8  24
ATOM     24  O   UNL     1     -40.071  22.879   2.162  0.00  0.00    -0.505 OA
ATOM     25  H   UNL     1     -40.233  22.017   1.832  0.00  0.00    +0.292 HD
ENDBRANCH   8  24
BRANCH  10  26
ATOM     26  O   UNL     1     -37.238  25.915   4.464  0.00  0.00    -0.505 OA
ATOM     27  H   UNL     1     -37.779  26.026   5.220  0.00  0.00    +0.292 HD
ENDBRANCH  10  26
TORSDOF 6
ENDMDL
MODEL 7
REMARK VINA RESULT:      -5.7      2.513      8.323
REMARK  Name = 5380905
REMARK  6 active torsions:
REMARK  status: ('A' for Active; 'I' for Inactive)
REMARK    1  A    between atoms: C_4  and  C_12
REMARK    2  A    between atoms: C_6  and  O_22
REMARK    3  A    between atoms: C_8  and  O_24
REMARK    4  A    between atoms: C_10  and  O_26
REMARK    5  A    between atoms: C_15  and  O_20
REMARK    6  A    between atoms: C_16  and  O_18
REMARK                            x       y       z     vdW  Elec       q    Type
REMARK                         _______ _______ _______ _____ _____    ______ ____
ROOT
ATOM      1  O   UNL     1     -33.004  27.266   5.123  0.00  0.00    -0.450 OA
ATOM      2  O   UNL     1     -33.199  30.466   2.606  0.00  0.00    -0.283 OA
ATOM      3  C   UNL     1     -32.195  29.466   4.490  0.00  0.00    +0.110 A 
ATOM      4  C   UNL     1     -33.884  27.292   4.051  0.00  0.00    +0.182 A 
ATOM      5  C   UNL     1     -32.179  28.343   5.316  0.00  0.00    +0.155 A 
ATOM      6  C   UNL     1     -34.005  28.316   3.187  0.00  0.00    +0.212 A 
ATOM      7  C   UNL     1     -33.136  29.505   3.361  0.00  0.00    +0.238 A 
ATOM      8  C   UNL     1     -31.331  30.535   4.737  0.00  0.00    +0.143 C 
ATOM      9  C   UNL     1     -31.298  28.284   6.396  0.00  0.00    +0.074 C 
ATOM     10  C   UNL     1     -30.433  29.350   6.645  0.00  0.00    +0.140 C 
ATOM     11  C   UNL     1     -30.449  30.473   5.817  0.00  0.00    +0.073 C 
ENDROOT
BRANCH   4  12
ATOM     12  C   UNL     1     -34.712  26.076   3.959  0.00  0.00    +0.041 C 
ATOM     13  C   UNL     1     -36.085  26.147   4.202  0.00  0.00    +0.043 C 
ATOM     14  C   UNL     1     -34.126  24.855   3.627  0.00  0.00    +0.006 C 
ATOM     15  C   UNL     1     -36.869  24.997   4.115  0.00  0.00    +0.168 C 
ATOM     16  C   UNL     1     -36.282  23.776   3.784  0.00  0.00    +0.172 C 
ATOM     17  C   UNL     1     -34.910  23.705   3.540  0.00  0.00    +0.040 C 
BRANCH  16  18
ATOM     18  O   UNL     1     -37.037  22.645   3.695  0.00  0.00    -0.468 OA
ATOM     19  C   UNL     1     -37.445  22.240   2.389  0.00  0.00    +0.253 C 
ENDBRANCH  16  18
BRANCH  15  20
ATOM     20  O   UNL     1     -38.208  25.079   4.355  0.00  0.00    -0.503 OA
ATOM     21  H   UNL     1     -38.669  25.872   4.167  0.00  0.00    +0.292 HD
ENDBRANCH  15  20
ENDBRANCH   4  12
BRANCH   6  22
ATOM     22  O   UNL     1     -34.915  28.323   2.152  0.00  0.00    -0.465 OA
ATOM     23  C   UNL     1     -34.326  27.834   0.962  0.00  0.00    +0.253 C 
ENDBRANCH   6  22
BRANCH   8  24
ATOM     24  O   UNL     1     -31.306  31.654   3.962  0.00  0.00    -0.505 OA
ATOM     25  H   UNL     1     -30.538  32.190   3.936  0.00  0.00    +0.292 HD
ENDBRANCH   8  24
BRANCH  10  26
ATOM     26  O   UNL     1     -29.571  29.293   7.698  0.00  0.00    -0.505 OA
ATOM     27  H   UNL     1     -29.481  30.029   8.270  0.00  0.00    +0.292 HD
ENDBRANCH  10  26
TORSDOF 6
ENDMDL
MODEL 8
REMARK VINA RESULT:      -5.7      3.681      5.916
REMARK  Name = 5380905
REMARK  6 active torsions:
REMARK  status: ('A' for Active; 'I' for Inactive)
REMARK    1  A    between atoms: C_4  and  C_12
REMARK    2  A    between atoms: C_6  and  O_22
REMARK    3  A    between atoms: C_8  and  O_24
REMARK    4  A    between atoms: C_10  and  O_26
REMARK    5  A    between atoms: C_15  and  O_20
REMARK    6  A    between atoms: C_16  and  O_18
REMARK                            x       y       z     vdW  Elec       q    Type
REMARK                         _______ _______ _______ _____ _____    ______ ____
ROOT
ATOM      1  O   UNL     1     -33.191  26.663   5.205  0.00  0.00    -0.450 OA
ATOM      2  O   UNL     1     -35.475  28.135   2.168  0.00  0.00    -0.283 OA
ATOM      3  C   UNL     1     -35.152  26.454   3.789  0.00  0.00    +0.110 A 
ATOM      4  C   UNL     1     -32.855  27.838   4.551  0.00  0.00    +0.182 A 
ATOM      5  C   UNL     1     -34.328  26.002   4.818  0.00  0.00    +0.155 A 
ATOM      6  C   UNL     1     -33.559  28.376   3.538  0.00  0.00    +0.212 A 
ATOM      7  C   UNL     1     -34.793  27.693   3.083  0.00  0.00    +0.238 A 
ATOM      8  C   UNL     1     -36.298  25.738   3.437  0.00  0.00    +0.143 C 
ATOM      9  C   UNL     1     -34.645  24.828   5.501  0.00  0.00    +0.074 C 
ATOM     10  C   UNL     1     -35.789  24.110   5.153  0.00  0.00    +0.140 C 
ATOM     11  C   UNL     1     -36.614  24.564   4.123  0.00  0.00    +0.073 C 
ENDROOT
BRANCH   4  12
ATOM     12  C   UNL     1     -31.613  28.445   5.062  0.00  0.00    +0.041 C 
ATOM     13  C   UNL     1     -30.434  28.350   4.321  0.00  0.00    +0.043 C 
ATOM     14  C   UNL     1     -31.615  29.116   6.285  0.00  0.00    +0.006 C 
ATOM     15  C   UNL     1     -29.259  28.925   4.805  0.00  0.00    +0.168 C 
ATOM     16  C   UNL     1     -29.261  29.595   6.028  0.00  0.00    +0.172 C 
ATOM     17  C   UNL     1     -30.440  29.691   6.769  0.00  0.00    +0.040 C 
BRANCH  16  18
ATOM     18  O   UNL     1     -28.120  30.160   6.511  0.00  0.00    -0.468 OA
ATOM     19  C   UNL     1     -27.654  29.700   7.778  0.00  0.00    +0.253 C 
ENDBRANCH  16  18
BRANCH  15  20
ATOM     20  O   UNL     1     -28.114  28.825   4.072  0.00  0.00    -0.503 OA
ATOM     21  H   UNL     1     -27.374  29.358   4.286  0.00  0.00    +0.292 HD
ENDBRANCH  15  20
ENDBRANCH   4  12
BRANCH   6  22
ATOM     22  O   UNL     1     -33.178  29.530   2.887  0.00  0.00    -0.465 OA
ATOM     23  C   UNL     1     -33.783  30.664   3.478  0.00  0.00    +0.253 C 
ENDBRANCH   6  22
BRANCH   8  24
ATOM     24  O   UNL     1     -37.136  26.135   2.441  0.00  0.00    -0.505 OA
ATOM     25  H   UNL     1     -38.040  26.301   2.626  0.00  0.00    +0.292 HD
ENDBRANCH   8  24
BRANCH  10  26
ATOM     26  O   UNL     1     -36.101  22.964   5.819  0.00  0.00    -0.505 OA
ATOM     27  H   UNL     1     -35.717  22.789   6.655  0.00  0.00    +0.292 HD
ENDBRANCH  10  26
TORSDOF 6
ENDMDL
MODEL 9
REMARK VINA RESULT:      -5.6      3.176      6.851
REMARK  Name = 5380905
REMARK  6 active torsions:
REMARK  status: ('A' for Active; 'I' for Inactive)
REMARK    1  A    between atoms: C_4  and  C_12
REMARK    2  A    between atoms: C_6  and  O_22
REMARK    3  A    between atoms: C_8  and  O_24
REMARK    4  A    between atoms: C_10  and  O_26
REMARK    5  A    between atoms: C_15  and  O_20
REMARK    6  A    between atoms: C_16  and  O_18
REMARK                            x       y       z     vdW  Elec       q    Type
REMARK                         _______ _______ _______ _____ _____    ______ ____
ROOT
ATOM      1  O   UNL     1     -34.457  20.783   1.805  0.00  0.00    -0.450 OA
ATOM      2  O   UNL     1     -37.732  19.175  -0.009  0.00  0.00    -0.283 OA
ATOM      3  C   UNL     1     -36.859  20.801   1.456  0.00  0.00    +0.110 A 
ATOM      4  C   UNL     1     -34.346  19.717   0.925  0.00  0.00    +0.182 A 
ATOM      5  C   UNL     1     -35.701  21.304   2.047  0.00  0.00    +0.155 A 
ATOM      6  C   UNL     1     -35.384  19.135   0.298  0.00  0.00    +0.212 A 
ATOM      7  C   UNL     1     -36.750  19.662   0.534  0.00  0.00    +0.238 A 
ATOM      8  C   UNL     1     -38.101  21.373   1.742  0.00  0.00    +0.143 C 
ATOM      9  C   UNL     1     -35.779  22.383   2.928  0.00  0.00    +0.074 C 
ATOM     10  C   UNL     1     -37.018  22.956   3.215  0.00  0.00    +0.140 C 
ATOM     11  C   UNL     1     -38.177  22.452   2.624  0.00  0.00    +0.073 C 
ENDROOT
BRANCH   4  12
ATOM     12  C   UNL     1     -32.957  19.253   0.756  0.00  0.00    +0.041 C 
ATOM     13  C   UNL     1     -32.037  20.045   0.068  0.00  0.00    +0.043 C 
ATOM     14  C   UNL     1     -32.562  18.024   1.284  0.00  0.00    +0.006 C 
ATOM     15  C   UNL     1     -30.723  19.606  -0.092  0.00  0.00    +0.168 C 
ATOM     16  C   UNL     1     -30.328  18.376   0.435  0.00  0.00    +0.172 C 
ATOM     17  C   UNL     1     -31.248  17.585   1.124  0.00  0.00    +0.040 C 
BRANCH  16  18
ATOM     18  O   UNL     1     -29.047  17.937   0.285  0.00  0.00    -0.468 OA
ATOM     19  C   UNL     1     -28.326  17.625   1.476  0.00  0.00    +0.253 C 
ENDBRANCH  16  18
BRANCH  15  20
ATOM     20  O   UNL     1     -29.833  20.388  -0.767  0.00  0.00    -0.503 OA
ATOM     21  H   UNL     1     -29.604  21.232  -0.432  0.00  0.00    +0.292 HD
ENDBRANCH  15  20
ENDBRANCH   4  12
BRANCH   6  22
ATOM     22  O   UNL     1     -35.243  18.053  -0.545  0.00  0.00    -0.465 OA
ATOM     23  C   UNL     1     -35.049  18.479  -1.881  0.00  0.00    +0.253 C 
ENDBRANCH   6  22
BRANCH   8  24
ATOM     24  O   UNL     1     -39.262  20.920   1.193  0.00  0.00    -0.505 OA
ATOM     25  H   UNL     1     -40.031  21.455   1.215  0.00  0.00    +0.292 HD
ENDBRANCH   8  24
BRANCH  10  26
ATOM     26  O   UNL     1     -37.095  24.009   4.075  0.00  0.00    -0.505 OA
ATOM     27  H   UNL     1     -37.369  24.849   3.763  0.00  0.00    +0.292 HD
ENDBRANCH  10  26
TORSDOF 6
ENDMDL
