MODEL 1
REMARK VINA RESULT:      -6.9      0.000      0.000
REMARK  Name = 57920094
REMARK  11 active torsions:
REMARK  status: ('A' for Active; 'I' for Inactive)
REMARK    1  A    between atoms: C_1  and  C_6
REMARK    2  A    between atoms: C_1  and  N_19
REMARK    3  A    between atoms: C_1  and  C_32
REMARK    4  A    between atoms: N_4  and  C_11
REMARK    5  A    between atoms: C_11  and  C_12
REMARK    6  A    between atoms: C_12  and  O_13
REMARK    7  A    between atoms: C_12  and  C_15
REMARK    8  A    between atoms: C_15  and  O_16
REMARK    9  A    between atoms: C_22  and  O_24
REMARK   10  A    between atoms: O_24  and  C_26
REMARK   11  A    between atoms: C_32  and  C_33
REMARK                            x       y       z     vdW  Elec       q    Type
REMARK                         _______ _______ _______ _____ _____    ______ ____
ROOT
ATOM      1  C   UNL     1     -37.291  24.473   3.624  0.00  0.00    +0.153 C 
ENDROOT
BRANCH   1   6
ATOM      2  O   UNL     1     -39.087  23.570   2.286  0.00  0.00    -0.273 OA
ATOM      3  N   UNL     1     -39.358  25.670   3.298  0.00  0.00    -0.267 N 
ATOM      4  N   UNL     1     -42.391  27.198   2.583  0.00  0.00    -0.206 N 
ATOM      5  N   UNL     1     -41.202  27.231   3.210  0.00  0.00    -0.163 NA
ATOM      6  C   UNL     1     -38.685  24.489   2.995  0.00  0.00    +0.245 C 
ATOM      7  C   UNL     1     -40.642  26.070   2.860  0.00  0.00    +0.153 C 
ATOM      8  C   UNL     1     -41.467  25.302   2.016  0.00  0.00    +0.054 C 
ATOM      9  C   UNL     1     -42.599  26.063   1.855  0.00  0.00    +0.087 C 
ATOM     10  H   UNL     1     -38.884  26.301   3.887  0.00  0.00    +0.156 HD
BRANCH   4  11
ATOM     11  C   UNL     1     -43.306  28.305   2.724  0.00  0.00    +0.148 C 
BRANCH  11  12
ATOM     12  C   UNL     1     -44.151  28.202   3.997  0.00  0.00    +0.161 C 
BRANCH  12  13
ATOM     13  O   UNL     1     -43.948  26.910   4.574  0.00  0.00    -0.380 OA
ATOM     14  H   UNL     1     -44.414  26.859   5.423  0.00  0.00    +0.211 HD
ENDBRANCH  12  13
BRANCH  12  15
ATOM     15  C   UNL     1     -43.731  29.256   5.019  0.00  0.00    +0.168 C 
BRANCH  15  16
ATOM     16  O   UNL     1     -42.310  29.318   5.094  0.00  0.00    -0.379 OA
ATOM     17  H   UNL     1     -41.967  29.817   4.337  0.00  0.00    +0.211 HD
ENDBRANCH  15  16
ENDBRANCH  12  15
ENDBRANCH  11  12
ENDBRANCH   4  11
ENDBRANCH   1   6
BRANCH   1  19
ATOM     18  O   UNL     1     -35.900  22.477   5.341  0.00  0.00    -0.270 OA
ATOM     19  N   UNL     1     -36.664  23.235   3.240  0.00  0.00    -0.262 N 
ATOM     20  C   UNL     1     -36.612  22.745   1.879  0.00  0.00    +0.159 C 
ATOM     21  C   UNL     1     -36.037  22.370   4.133  0.00  0.00    +0.253 C 
ATOM     22  C   UNL     1     -35.871  21.473   2.077  0.00  0.00    +0.147 C 
ATOM     23  C   UNL     1     -35.528  21.229   3.346  0.00  0.00    +0.093 C 
BRANCH  22  24
ATOM     24  O   UNL     1     -35.589  20.661   1.017  0.00  0.00    -0.455 OA
BRANCH  24  26
ATOM     25 CL   UNL     1     -34.016  22.673  -0.575  0.00  0.00    -0.079 Cl
ATOM     26  C   UNL     1     -34.272  20.340   0.800  0.00  0.00    +0.155 C 
ATOM     27  C   UNL     1     -33.432  21.186   0.074  0.00  0.00    +0.092 C 
ATOM     28  C   UNL     1     -33.779  19.143   1.316  0.00  0.00    +0.038 C 
ATOM     29  C   UNL     1     -32.099  20.835  -0.133  0.00  0.00    +0.014 C 
ATOM     30  C   UNL     1     -32.445  18.790   1.108  0.00  0.00    +0.003 C 
ATOM     31  C   UNL     1     -31.605  19.636   0.383  0.00  0.00    +0.001 C 
ENDBRANCH  24  26
ENDBRANCH  22  24
ENDBRANCH   1  19
BRANCH   1  32
ATOM     32  C   UNL     1     -36.488  25.697   3.167  0.00  0.00    +0.029 C 
BRANCH  32  33
ATOM     33  C   UNL     1     -35.461  26.217   4.192  0.00  0.00    +0.002 C 
ATOM     34  C   UNL     1     -34.072  25.613   3.985  0.00  0.00    +0.000 C 
ATOM     35  C   UNL     1     -35.950  25.911   5.612  0.00  0.00    +0.000 C 
ENDBRANCH  32  33
ENDBRANCH   1  32
TORSDOF 11
ENDMDL
MODEL 2
REMARK VINA RESULT:      -6.9      1.761      1.986
REMARK  Name = 57920094
REMARK  11 active torsions:
REMARK  status: ('A' for Active; 'I' for Inactive)
REMARK    1  A    between atoms: C_1  and  C_6
REMARK    2  A    between atoms: C_1  and  N_19
REMARK    3  A    between atoms: C_1  and  C_32
REMARK    4  A    between atoms: N_4  and  C_11
REMARK    5  A    between atoms: C_11  and  C_12
REMARK    6  A    between atoms: C_12  and  O_13
REMARK    7  A    between atoms: C_12  and  C_15
REMARK    8  A    between atoms: C_15  and  O_16
REMARK    9  A    between atoms: C_22  and  O_24
REMARK   10  A    between atoms: O_24  and  C_26
REMARK   11  A    between atoms: C_32  and  C_33
REMARK                            x       y       z     vdW  Elec       q    Type
REMARK                         _______ _______ _______ _____ _____    ______ ____
ROOT
ATOM      1  C   UNL     1     -37.213  24.706   3.694  0.00  0.00    +0.153 C 
ENDROOT
BRANCH   1   6
ATOM      2  O   UNL     1     -39.451  23.882   3.317  0.00  0.00    -0.273 OA
ATOM      3  N   UNL     1     -38.813  25.935   2.374  0.00  0.00    -0.267 N 
ATOM      4  N   UNL     1     -41.284  27.434   0.454  0.00  0.00    -0.206 N 
ATOM      5  N   UNL     1     -40.039  27.464   0.959  0.00  0.00    -0.163 NA
ATOM      6  C   UNL     1     -38.633  24.780   3.130  0.00  0.00    +0.245 C 
ATOM      7  C   UNL     1     -39.967  26.328   1.658  0.00  0.00    +0.153 C 
ATOM      8  C   UNL     1     -41.157  25.579   1.600  0.00  0.00    +0.054 C 
ATOM      9  C   UNL     1     -41.996  26.326   0.809  0.00  0.00    +0.087 C 
ATOM     10  H   UNL     1     -38.045  26.550   2.333  0.00  0.00    +0.156 HD
BRANCH   4  11
ATOM     11  C   UNL     1     -41.747  28.518  -0.378  0.00  0.00    +0.148 C 
BRANCH  11  12
ATOM     12  C   UNL     1     -42.185  29.735   0.444  0.00  0.00    +0.161 C 
BRANCH  12  13
ATOM     13  O   UNL     1     -41.924  29.468   1.825  0.00  0.00    -0.380 OA
ATOM     14  H   UNL     1     -41.010  29.161   1.928  0.00  0.00    +0.211 HD
ENDBRANCH  12  13
BRANCH  12  15
ATOM     15  C   UNL     1     -41.401  30.980   0.038  0.00  0.00    +0.168 C 
BRANCH  15  16
ATOM     16  O   UNL     1     -40.397  31.258   1.011  0.00  0.00    -0.379 OA
ATOM     17  H   UNL     1     -39.839  30.475   1.132  0.00  0.00    +0.211 HD
ENDBRANCH  15  16
ENDBRANCH  12  15
ENDBRANCH  11  12
ENDBRANCH   4  11
ENDBRANCH   1   6
BRANCH   1  19
ATOM     18  O   UNL     1     -35.971  22.551   5.330  0.00  0.00    -0.270 OA
ATOM     19  N   UNL     1     -36.644  23.458   3.257  0.00  0.00    -0.262 N 
ATOM     20  C   UNL     1     -36.586  23.037   1.874  0.00  0.00    +0.159 C 
ATOM     21  C   UNL     1     -36.085  22.515   4.116  0.00  0.00    +0.253 C 
ATOM     22  C   UNL     1     -35.919  21.718   2.019  0.00  0.00    +0.147 C 
ATOM     23  C   UNL     1     -35.620  21.390   3.280  0.00  0.00    +0.093 C 
BRANCH  22  24
ATOM     24  O   UNL     1     -35.657  20.948   0.923  0.00  0.00    -0.455 OA
BRANCH  24  26
ATOM     25 CL   UNL     1     -33.786  22.785  -0.555  0.00  0.00    -0.079 Cl
ATOM     26  C   UNL     1     -34.375  20.484   0.770  0.00  0.00    +0.155 C 
ATOM     27  C   UNL     1     -33.408  21.236   0.102  0.00  0.00    +0.092 C 
ATOM     28  C   UNL     1     -34.047  19.234   1.294  0.00  0.00    +0.038 C 
ATOM     29  C   UNL     1     -32.113  20.739  -0.041  0.00  0.00    +0.014 C 
ATOM     30  C   UNL     1     -32.751  18.736   1.150  0.00  0.00    +0.003 C 
ATOM     31  C   UNL     1     -31.784  19.488   0.483  0.00  0.00    +0.001 C 
ENDBRANCH  24  26
ENDBRANCH  22  24
ENDBRANCH   1  19
BRANCH   1  32
ATOM     32  C   UNL     1     -36.392  25.914   3.224  0.00  0.00    +0.029 C 
BRANCH  32  33
ATOM     33  C   UNL     1     -35.274  26.352   4.192  0.00  0.00    +0.002 C 
ATOM     34  C   UNL     1     -33.928  25.708   3.858  0.00  0.00    +0.000 C 
ATOM     35  C   UNL     1     -35.670  26.002   5.630  0.00  0.00    +0.000 C 
ENDBRANCH  32  33
ENDBRANCH   1  32
TORSDOF 11
ENDMDL
MODEL 3
REMARK VINA RESULT:      -6.7      4.147      7.134
REMARK  Name = 57920094
REMARK  11 active torsions:
REMARK  status: ('A' for Active; 'I' for Inactive)
REMARK    1  A    between atoms: C_1  and  C_6
REMARK    2  A    between atoms: C_1  and  N_19
REMARK    3  A    between atoms: C_1  and  C_32
REMARK    4  A    between atoms: N_4  and  C_11
REMARK    5  A    between atoms: C_11  and  C_12
REMARK    6  A    between atoms: C_12  and  O_13
REMARK    7  A    between atoms: C_12  and  C_15
REMARK    8  A    between atoms: C_15  and  O_16
REMARK    9  A    between atoms: C_22  and  O_24
REMARK   10  A    between atoms: O_24  and  C_26
REMARK   11  A    between atoms: C_32  and  C_33
REMARK                            x       y       z     vdW  Elec       q    Type
REMARK                         _______ _______ _______ _____ _____    ______ ____
ROOT
ATOM      1  C   UNL     1     -35.953  24.573   3.842  0.00  0.00    +0.153 C 
ENDROOT
BRANCH   1   6
ATOM      2  O   UNL     1     -35.918  26.743   2.785  0.00  0.00    -0.273 OA
ATOM      3  N   UNL     1     -34.126  26.113   4.165  0.00  0.00    -0.267 N 
ATOM      4  N   UNL     1     -31.603  28.487   4.372  0.00  0.00    -0.206 N 
ATOM      5  N   UNL     1     -32.089  27.285   4.729  0.00  0.00    -0.163 NA
ATOM      6  C   UNL     1     -35.357  25.948   3.535  0.00  0.00    +0.245 C 
ATOM      7  C   UNL     1     -33.255  27.224   4.081  0.00  0.00    +0.153 C 
ATOM      8  C   UNL     1     -33.513  28.378   3.317  0.00  0.00    +0.054 C 
ATOM      9  C   UNL     1     -32.419  29.182   3.528  0.00  0.00    +0.087 C 
ATOM     10  H   UNL     1     -33.827  25.368   4.735  0.00  0.00    +0.156 HD
BRANCH   4  11
ATOM     11  C   UNL     1     -30.328  28.925   4.884  0.00  0.00    +0.148 C 
BRANCH  11  12
ATOM     12  C   UNL     1     -30.240  28.801   6.408  0.00  0.00    +0.161 C 
BRANCH  12  13
ATOM     13  O   UNL     1     -30.097  27.419   6.745  0.00  0.00    -0.380 OA
ATOM     14  H   UNL     1     -29.216  27.112   6.479  0.00  0.00    +0.211 HD
ENDBRANCH  12  13
BRANCH  12  15
ATOM     15  C   UNL     1     -29.029  29.557   6.950  0.00  0.00    +0.168 C 
BRANCH  15  16
ATOM     16  O   UNL     1     -28.823  29.222   8.319  0.00  0.00    -0.379 OA
ATOM     17  H   UNL     1     -28.273  28.426   8.379  0.00  0.00    +0.211 HD
ENDBRANCH  15  16
ENDBRANCH  12  15
ENDBRANCH  11  12
ENDBRANCH   4  11
ENDBRANCH   1   6
BRANCH   1  19
ATOM     18  O   UNL     1     -38.363  23.731   2.311  0.00  0.00    -0.270 OA
ATOM     19  N   UNL     1     -36.023  23.850   2.598  0.00  0.00    -0.262 N 
ATOM     20  C   UNL     1     -34.863  23.397   1.861  0.00  0.00    +0.159 C 
ATOM     21  C   UNL     1     -37.214  23.506   1.965  0.00  0.00    +0.253 C 
ATOM     22  C   UNL     1     -35.519  22.737   0.704  0.00  0.00    +0.147 C 
ATOM     23  C   UNL     1     -36.855  22.780   0.731  0.00  0.00    +0.093 C 
BRANCH  22  24
ATOM     24  O   UNL     1     -34.771  22.150  -0.276  0.00  0.00    -0.455 OA
BRANCH  24  26
ATOM     25 CL   UNL     1     -31.862  22.494  -0.968  0.00  0.00    -0.079 Cl
ATOM     26  C   UNL     1     -33.952  21.112   0.091  0.00  0.00    +0.155 C 
ATOM     27  C   UNL     1     -32.582  21.144  -0.172  0.00  0.00    +0.092 C 
ATOM     28  C   UNL     1     -34.512  20.010   0.736  0.00  0.00    +0.038 C 
ATOM     29  C   UNL     1     -31.773  20.074   0.210  0.00  0.00    +0.014 C 
ATOM     30  C   UNL     1     -33.703  18.939   1.118  0.00  0.00    +0.003 C 
ATOM     31  C   UNL     1     -32.333  18.972   0.855  0.00  0.00    +0.001 C 
ENDBRANCH  24  26
ENDBRANCH  22  24
ENDBRANCH   1  19
BRANCH   1  32
ATOM     32  C   UNL     1     -35.098  23.846   4.888  0.00  0.00    +0.029 C 
BRANCH  32  33
ATOM     33  C   UNL     1     -35.668  22.495   5.364  0.00  0.00    +0.002 C 
ATOM     34  C   UNL     1     -35.361  22.219   6.837  0.00  0.00    +0.000 C 
ATOM     35  C   UNL     1     -35.104  21.363   4.500  0.00  0.00    +0.000 C 
ENDBRANCH  32  33
ENDBRANCH   1  32
TORSDOF 11
ENDMDL
MODEL 4
REMARK VINA RESULT:      -6.7      4.098     10.858
REMARK  Name = 57920094
REMARK  11 active torsions:
REMARK  status: ('A' for Active; 'I' for Inactive)
REMARK    1  A    between atoms: C_1  and  C_6
REMARK    2  A    between atoms: C_1  and  N_19
REMARK    3  A    between atoms: C_1  and  C_32
REMARK    4  A    between atoms: N_4  and  C_11
REMARK    5  A    between atoms: C_11  and  C_12
REMARK    6  A    between atoms: C_12  and  O_13
REMARK    7  A    between atoms: C_12  and  C_15
REMARK    8  A    between atoms: C_15  and  O_16
REMARK    9  A    between atoms: C_22  and  O_24
REMARK   10  A    between atoms: O_24  and  C_26
REMARK   11  A    between atoms: C_32  and  C_33
REMARK                            x       y       z     vdW  Elec       q    Type
REMARK                         _______ _______ _______ _____ _____    ______ ____
ROOT
ATOM      1  C   UNL     1     -42.322  26.018   2.485  0.00  0.00    +0.153 C 
ENDROOT
BRANCH   1   6
ATOM      2  O   UNL     1     -40.432  27.157   1.505  0.00  0.00    -0.273 OA
ATOM      3  N   UNL     1     -40.058  25.534   3.159  0.00  0.00    -0.267 N 
ATOM      4  N   UNL     1     -36.705  24.983   3.862  0.00  0.00    -0.206 N 
ATOM      5  N   UNL     1     -37.996  24.693   4.099  0.00  0.00    -0.163 NA
ATOM      6  C   UNL     1     -40.834  26.331   2.320  0.00  0.00    +0.245 C 
ATOM      7  C   UNL     1     -38.648  25.498   3.256  0.00  0.00    +0.153 C 
ATOM      8  C   UNL     1     -37.780  26.297   2.488  0.00  0.00    +0.054 C 
ATOM      9  C   UNL     1     -36.521  25.939   2.906  0.00  0.00    +0.087 C 
ATOM     10  H   UNL     1     -40.550  24.923   3.754  0.00  0.00    +0.156 HD
BRANCH   4  11
ATOM     11  C   UNL     1     -35.670  24.299   4.599  0.00  0.00    +0.148 C 
BRANCH  11  12
ATOM     12  C   UNL     1     -36.147  22.956   5.160  0.00  0.00    +0.161 C 
BRANCH  12  13
ATOM     13  O   UNL     1     -36.639  22.161   4.079  0.00  0.00    -0.380 OA
ATOM     14  H   UNL     1     -35.893  21.785   3.588  0.00  0.00    +0.211 HD
ENDBRANCH  12  13
BRANCH  12  15
ATOM     15  C   UNL     1     -34.998  22.203   5.827  0.00  0.00    +0.168 C 
BRANCH  15  16
ATOM     16  O   UNL     1     -35.154  20.802   5.620  0.00  0.00    -0.379 OA
ATOM     17  H   UNL     1     -34.460  20.325   6.101  0.00  0.00    +0.211 HD
ENDBRANCH  15  16
ENDBRANCH  12  15
ENDBRANCH  11  12
ENDBRANCH   4  11
ENDBRANCH   1   6
BRANCH   1  19
ATOM     18  O   UNL     1     -45.019  26.083   3.743  0.00  0.00    -0.270 OA
ATOM     19  N   UNL     1     -42.859  26.976   3.416  0.00  0.00    -0.262 N 
ATOM     20  C   UNL     1     -42.125  28.121   3.911  0.00  0.00    +0.159 C 
ATOM     21  C   UNL     1     -44.145  26.909   3.945  0.00  0.00    +0.253 C 
ATOM     22  C   UNL     1     -43.141  28.729   4.805  0.00  0.00    +0.147 C 
ATOM     23  C   UNL     1     -44.302  28.066   4.849  0.00  0.00    +0.093 C 
BRANCH  22  24
ATOM     24  O   UNL     1     -42.861  29.870   5.500  0.00  0.00    -0.455 OA
BRANCH  24  26
ATOM     25 CL   UNL     1     -44.731  31.718   4.033  0.00  0.00    -0.079 Cl
ATOM     26  C   UNL     1     -43.870  30.411   6.258  0.00  0.00    +0.155 C 
ATOM     27  C   UNL     1     -44.804  31.285   5.701  0.00  0.00    +0.092 C 
ATOM     28  C   UNL     1     -43.948  30.075   7.609  0.00  0.00    +0.038 C 
ATOM     29  C   UNL     1     -45.817  31.822   6.495  0.00  0.00    +0.014 C 
ATOM     30  C   UNL     1     -44.961  30.613   8.404  0.00  0.00    +0.003 C 
ATOM     31  C   UNL     1     -45.895  31.486   7.847  0.00  0.00    +0.001 C 
ENDBRANCH  24  26
ENDBRANCH  22  24
ENDBRANCH   1  19
BRANCH   1  32
ATOM     32  C   UNL     1     -43.028  26.071   1.125  0.00  0.00    +0.029 C 
BRANCH  32  33
ATOM     33  C   UNL     1     -43.682  24.746   0.683  0.00  0.00    +0.002 C 
ATOM     34  C   UNL     1     -42.816  23.972  -0.311  0.00  0.00    +0.000 C 
ATOM     35  C   UNL     1     -45.052  25.030   0.059  0.00  0.00    +0.000 C 
ENDBRANCH  32  33
ENDBRANCH   1  32
TORSDOF 11
ENDMDL
MODEL 5
REMARK VINA RESULT:      -6.5      4.902      9.639
REMARK  Name = 57920094
REMARK  11 active torsions:
REMARK  status: ('A' for Active; 'I' for Inactive)
REMARK    1  A    between atoms: C_1  and  C_6
REMARK    2  A    between atoms: C_1  and  N_19
REMARK    3  A    between atoms: C_1  and  C_32
REMARK    4  A    between atoms: N_4  and  C_11
REMARK    5  A    between atoms: C_11  and  C_12
REMARK    6  A    between atoms: C_12  and  O_13
REMARK    7  A    between atoms: C_12  and  C_15
REMARK    8  A    between atoms: C_15  and  O_16
REMARK    9  A    between atoms: C_22  and  O_24
REMARK   10  A    between atoms: O_24  and  C_26
REMARK   11  A    between atoms: C_32  and  C_33
REMARK                            x       y       z     vdW  Elec       q    Type
REMARK                         _______ _______ _______ _____ _____    ______ ____
ROOT
ATOM      1  C   UNL     1     -34.498  19.529   0.204  0.00  0.00    +0.153 C 
ENDROOT
BRANCH   1   6
ATOM      2  O   UNL     1     -36.170  19.801  -1.517  0.00  0.00    -0.273 OA
ATOM      3  N   UNL     1     -36.279  17.933  -0.099  0.00  0.00    -0.267 N 
ATOM      4  N   UNL     1     -38.994  15.859  -0.707  0.00  0.00    -0.206 N 
ATOM      5  N   UNL     1     -37.887  16.131   0.005  0.00  0.00    -0.163 NA
ATOM      6  C   UNL     1     -35.734  19.115  -0.595  0.00  0.00    +0.245 C 
ATOM      7  C   UNL     1     -37.445  17.267  -0.542  0.00  0.00    +0.153 C 
ATOM      8  C   UNL     1     -38.264  17.717  -1.595  0.00  0.00    +0.054 C 
ATOM      9  C   UNL     1     -39.264  16.778  -1.679  0.00  0.00    +0.087 C 
ATOM     10  H   UNL     1     -35.796  17.513   0.649  0.00  0.00    +0.156 HD
BRANCH   4  11
ATOM     11  C   UNL     1     -39.767  14.679  -0.407  0.00  0.00    +0.148 C 
BRANCH  11  12
ATOM     12  C   UNL     1     -39.504  13.543  -1.400  0.00  0.00    +0.161 C 
BRANCH  12  13
ATOM     13  O   UNL     1     -38.090  13.388  -1.550  0.00  0.00    -0.380 OA
ATOM     14  H   UNL     1     -37.690  13.225  -0.682  0.00  0.00    +0.211 HD
ENDBRANCH  12  13
BRANCH  12  15
ATOM     15  C   UNL     1     -40.081  12.225  -0.890  0.00  0.00    +0.168 C 
BRANCH  15  16
ATOM     16  O   UNL     1     -40.089  12.219   0.534  0.00  0.00    -0.379 OA
ATOM     17  H   UNL     1     -39.178  12.180   0.862  0.00  0.00    +0.211 HD
ENDBRANCH  15  16
ENDBRANCH  12  15
ENDBRANCH  11  12
ENDBRANCH   4  11
ENDBRANCH   1   6
BRANCH   1  19
ATOM     18  O   UNL     1     -33.542  22.344   0.046  0.00  0.00    -0.270 OA
ATOM     19  N   UNL     1     -34.874  20.656   1.019  0.00  0.00    -0.262 N 
ATOM     20  C   UNL     1     -35.831  20.585   2.102  0.00  0.00    +0.159 C 
ATOM     21  C   UNL     1     -34.359  21.939   0.856  0.00  0.00    +0.253 C 
ATOM     22  C   UNL     1     -35.820  21.996   2.565  0.00  0.00    +0.147 C 
ATOM     23  C   UNL     1     -34.995  22.793   1.879  0.00  0.00    +0.093 C 
BRANCH  22  24
ATOM     24  O   UNL     1     -36.606  22.391   3.609  0.00  0.00    -0.455 OA
BRANCH  24  26
ATOM     25 CL   UNL     1     -34.766  22.042   5.965  0.00  0.00    -0.079 Cl
ATOM     26  C   UNL     1     -36.257  23.547   4.260  0.00  0.00    +0.155 C 
ATOM     27  C   UNL     1     -35.411  23.526   5.370  0.00  0.00    +0.092 C 
ATOM     28  C   UNL     1     -36.768  24.759   3.796  0.00  0.00    +0.038 C 
ATOM     29  C   UNL     1     -35.075  24.717   6.014  0.00  0.00    +0.014 C 
ATOM     30  C   UNL     1     -36.432  25.950   4.440  0.00  0.00    +0.003 C 
ATOM     31  C   UNL     1     -35.586  25.929   5.549  0.00  0.00    +0.001 C 
ENDBRANCH  24  26
ENDBRANCH  22  24
ENDBRANCH   1  19
BRANCH   1  32
ATOM     32  C   UNL     1     -33.989  18.350   1.043  0.00  0.00    +0.029 C 
BRANCH  32  33
ATOM     33  C   UNL     1     -32.460  18.152   1.021  0.00  0.00    +0.002 C 
ATOM     34  C   UNL     1     -31.724  19.358   0.437  0.00  0.00    +0.000 C 
ATOM     35  C   UNL     1     -32.115  16.897   0.212  0.00  0.00    +0.000 C 
ENDBRANCH  32  33
ENDBRANCH   1  32
TORSDOF 11
ENDMDL
MODEL 6
REMARK VINA RESULT:      -6.5      3.930      6.854
REMARK  Name = 57920094
REMARK  11 active torsions:
REMARK  status: ('A' for Active; 'I' for Inactive)
REMARK    1  A    between atoms: C_1  and  C_6
REMARK    2  A    between atoms: C_1  and  N_19
REMARK    3  A    between atoms: C_1  and  C_32
REMARK    4  A    between atoms: N_4  and  C_11
REMARK    5  A    between atoms: C_11  and  C_12
REMARK    6  A    between atoms: C_12  and  O_13
REMARK    7  A    between atoms: C_12  and  C_15
REMARK    8  A    between atoms: C_15  and  O_16
REMARK    9  A    between atoms: C_22  and  O_24
REMARK   10  A    between atoms: O_24  and  C_26
REMARK   11  A    between atoms: C_32  and  C_33
REMARK                            x       y       z     vdW  Elec       q    Type
REMARK                         _______ _______ _______ _____ _____    ______ ____
ROOT
ATOM      1  C   UNL     1     -36.003  25.070   2.316  0.00  0.00    +0.153 C 
ENDROOT
BRANCH   1   6
ATOM      2  O   UNL     1     -33.708  25.240   1.585  0.00  0.00    -0.273 OA
ATOM      3  N   UNL     1     -34.488  26.694   3.255  0.00  0.00    -0.267 N 
ATOM      4  N   UNL     1     -32.069  28.858   4.482  0.00  0.00    -0.206 N 
ATOM      5  N   UNL     1     -33.338  28.415   4.503  0.00  0.00    -0.163 NA
ATOM      6  C   UNL     1     -34.598  25.673   2.314  0.00  0.00    +0.245 C 
ATOM      7  C   UNL     1     -33.339  27.451   3.579  0.00  0.00    +0.153 C 
ATOM      8  C   UNL     1     -32.080  27.280   2.972  0.00  0.00    +0.054 C 
ATOM      9  C   UNL     1     -31.275  28.212   3.581  0.00  0.00    +0.087 C 
ATOM     10  H   UNL     1     -35.308  26.913   3.755  0.00  0.00    +0.156 HD
BRANCH   4  11
ATOM     11  C   UNL     1     -31.669  29.927   5.365  0.00  0.00    +0.148 C 
BRANCH  11  12
ATOM     12  C   UNL     1     -31.257  29.414   6.749  0.00  0.00    +0.161 C 
BRANCH  12  13
ATOM     13  O   UNL     1     -32.051  28.268   7.064  0.00  0.00    -0.380 OA
ATOM     14  H   UNL     1     -31.987  27.623   6.343  0.00  0.00    +0.211 HD
ENDBRANCH  12  13
BRANCH  12  15
ATOM     15  C   UNL     1     -29.787  29.001   6.764  0.00  0.00    +0.168 C 
BRANCH  15  16
ATOM     16  O   UNL     1     -29.684  27.580   6.742  0.00  0.00    -0.379 OA
ATOM     17  H   UNL     1     -30.192  27.208   7.480  0.00  0.00    +0.211 HD
ENDBRANCH  15  16
ENDBRANCH  12  15
ENDBRANCH  11  12
ENDBRANCH   4  11
ENDBRANCH   1   6
BRANCH   1  19
ATOM     18  O   UNL     1     -35.117  24.049   4.969  0.00  0.00    -0.270 OA
ATOM     19  N   UNL     1     -35.882  23.706   2.762  0.00  0.00    -0.262 N 
ATOM     20  C   UNL     1     -36.191  22.557   1.938  0.00  0.00    +0.159 C 
ATOM     21  C   UNL     1     -35.454  23.339   4.035  0.00  0.00    +0.253 C 
ATOM     22  C   UNL     1     -35.891  21.455   2.887  0.00  0.00    +0.147 C 
ATOM     23  C   UNL     1     -35.469  21.864   4.088  0.00  0.00    +0.093 C 
BRANCH  22  24
ATOM     24  O   UNL     1     -36.049  20.152   2.511  0.00  0.00    -0.455 OA
BRANCH  24  26
ATOM     25 CL   UNL     1     -37.574  19.546  -0.012  0.00  0.00    -0.079 Cl
ATOM     26  C   UNL     1     -35.291  19.703   1.458  0.00  0.00    +0.155 C 
ATOM     27  C   UNL     1     -35.875  19.384   0.232  0.00  0.00    +0.092 C 
ATOM     28  C   UNL     1     -33.915  19.564   1.633  0.00  0.00    +0.038 C 
ATOM     29  C   UNL     1     -35.081  18.927  -0.821  0.00  0.00    +0.014 C 
ATOM     30  C   UNL     1     -33.121  19.106   0.581  0.00  0.00    +0.003 C 
ATOM     31  C   UNL     1     -33.704  18.788  -0.646  0.00  0.00    +0.001 C 
ENDBRANCH  24  26
ENDBRANCH  22  24
ENDBRANCH   1  19
BRANCH   1  32
ATOM     32  C   UNL     1     -36.932  25.894   3.216  0.00  0.00    +0.029 C 
BRANCH  32  33
ATOM     33  C   UNL     1     -38.394  25.979   2.732  0.00  0.00    +0.002 C 
ATOM     34  C   UNL     1     -39.239  24.802   3.219  0.00  0.00    +0.000 C 
ATOM     35  C   UNL     1     -38.428  26.039   1.202  0.00  0.00    +0.000 C 
ENDBRANCH  32  33
ENDBRANCH   1  32
TORSDOF 11
ENDMDL
MODEL 7
REMARK VINA RESULT:      -6.5      2.037      2.763
REMARK  Name = 57920094
REMARK  11 active torsions:
REMARK  status: ('A' for Active; 'I' for Inactive)
REMARK    1  A    between atoms: C_1  and  C_6
REMARK    2  A    between atoms: C_1  and  N_19
REMARK    3  A    between atoms: C_1  and  C_32
REMARK    4  A    between atoms: N_4  and  C_11
REMARK    5  A    between atoms: C_11  and  C_12
REMARK    6  A    between atoms: C_12  and  O_13
REMARK    7  A    between atoms: C_12  and  C_15
REMARK    8  A    between atoms: C_15  and  O_16
REMARK    9  A    between atoms: C_22  and  O_24
REMARK   10  A    between atoms: O_24  and  C_26
REMARK   11  A    between atoms: C_32  and  C_33
REMARK                            x       y       z     vdW  Elec       q    Type
REMARK                         _______ _______ _______ _____ _____    ______ ____
ROOT
ATOM      1  C   UNL     1     -36.682  22.429   3.106  0.00  0.00    +0.153 C 
ENDROOT
BRANCH   1   6
ATOM      2  O   UNL     1     -36.487  24.334   1.635  0.00  0.00    -0.273 OA
ATOM      3  N   UNL     1     -38.547  23.893   2.668  0.00  0.00    -0.267 N 
ATOM      4  N   UNL     1     -41.021  26.212   1.929  0.00  0.00    -0.206 N 
ATOM      5  N   UNL     1     -40.643  25.093   2.573  0.00  0.00    -0.163 NA
ATOM      6  C   UNL     1     -37.210  23.657   2.361  0.00  0.00    +0.245 C 
ATOM      7  C   UNL     1     -39.363  24.956   2.217  0.00  0.00    +0.153 C 
ATOM      8  C   UNL     1     -38.927  25.978   1.353  0.00  0.00    +0.054 C 
ATOM      9  C   UNL     1     -40.030  26.780   1.183  0.00  0.00    +0.087 C 
ATOM     10  H   UNL     1     -38.975  23.243   3.272  0.00  0.00    +0.156 HD
BRANCH   4  11
ATOM     11  C   UNL     1     -42.373  26.696   2.067  0.00  0.00    +0.148 C 
BRANCH  11  12
ATOM     12  C   UNL     1     -42.623  27.340   3.434  0.00  0.00    +0.161 C 
BRANCH  12  13
ATOM     13  O   UNL     1     -41.385  27.387   4.148  0.00  0.00    -0.380 OA
ATOM     14  H   UNL     1     -41.477  27.971   4.916  0.00  0.00    +0.211 HD
ENDBRANCH  12  13
BRANCH  12  15
ATOM     15  C   UNL     1     -43.144  28.767   3.280  0.00  0.00    +0.168 C 
BRANCH  15  16
ATOM     16  O   UNL     1     -42.347  29.473   2.334  0.00  0.00    -0.379 OA
ATOM     17  H   UNL     1     -41.571  29.846   2.779  0.00  0.00    +0.211 HD
ENDBRANCH  15  16
ENDBRANCH  12  15
ENDBRANCH  11  12
ENDBRANCH   4  11
ENDBRANCH   1   6
BRANCH   1  19
ATOM     18  O   UNL     1     -38.688  21.103   1.350  0.00  0.00    -0.270 OA
ATOM     19  N   UNL     1     -36.478  21.392   2.127  0.00  0.00    -0.262 N 
ATOM     20  C   UNL     1     -35.190  20.802   1.833  0.00  0.00    +0.159 C 
ATOM     21  C   UNL     1     -37.496  20.839   1.356  0.00  0.00    +0.253 C 
ATOM     22  C   UNL     1     -35.573  19.824   0.783  0.00  0.00    +0.147 C 
ATOM     23  C   UNL     1     -36.876  19.819   0.487  0.00  0.00    +0.093 C 
BRANCH  22  24
ATOM     24  O   UNL     1     -34.631  19.023   0.204  0.00  0.00    -0.455 OA
BRANCH  24  26
ATOM     25 CL   UNL     1     -32.163  18.007   1.594  0.00  0.00    -0.079 Cl
ATOM     26  C   UNL     1     -33.454  19.611  -0.184  0.00  0.00    +0.155 C 
ATOM     27  C   UNL     1     -32.236  19.233   0.383  0.00  0.00    +0.092 C 
ATOM     28  C   UNL     1     -33.489  20.604  -1.161  0.00  0.00    +0.038 C 
ATOM     29  C   UNL     1     -31.054  19.849  -0.028  0.00  0.00    +0.014 C 
ATOM     30  C   UNL     1     -32.307  21.221  -1.573  0.00  0.00    +0.003 C 
ATOM     31  C   UNL     1     -31.090  20.844  -1.005  0.00  0.00    +0.001 C 
ENDBRANCH  24  26
ENDBRANCH  22  24
ENDBRANCH   1  19
BRANCH   1  32
ATOM     32  C   UNL     1     -35.393  22.779   3.858  0.00  0.00    +0.029 C 
BRANCH  32  33
ATOM     33  C   UNL     1     -35.604  23.317   5.288  0.00  0.00    +0.002 C 
ATOM     34  C   UNL     1     -34.794  24.585   5.559  0.00  0.00    +0.000 C 
ATOM     35  C   UNL     1     -35.227  22.237   6.307  0.00  0.00    +0.000 C 
ENDBRANCH  32  33
ENDBRANCH   1  32
TORSDOF 11
ENDMDL
MODEL 8
REMARK VINA RESULT:      -6.5      3.827      4.910
REMARK  Name = 57920094
REMARK  11 active torsions:
REMARK  status: ('A' for Active; 'I' for Inactive)
REMARK    1  A    between atoms: C_1  and  C_6
REMARK    2  A    between atoms: C_1  and  N_19
REMARK    3  A    between atoms: C_1  and  C_32
REMARK    4  A    between atoms: N_4  and  C_11
REMARK    5  A    between atoms: C_11  and  C_12
REMARK    6  A    between atoms: C_12  and  O_13
REMARK    7  A    between atoms: C_12  and  C_15
REMARK    8  A    between atoms: C_15  and  O_16
REMARK    9  A    between atoms: C_22  and  O_24
REMARK   10  A    between atoms: O_24  and  C_26
REMARK   11  A    between atoms: C_32  and  C_33
REMARK                            x       y       z     vdW  Elec       q    Type
REMARK                         _______ _______ _______ _____ _____    ______ ____
ROOT
ATOM      1  C   UNL     1     -36.772  23.409   3.107  0.00  0.00    +0.153 C 
ENDROOT
BRANCH   1   6
ATOM      2  O   UNL     1     -38.161  24.893   1.803  0.00  0.00    -0.273 OA
ATOM      3  N   UNL     1     -36.070  25.649   2.557  0.00  0.00    -0.267 N 
ATOM      4  N   UNL     1     -35.288  28.874   1.540  0.00  0.00    -0.206 N 
ATOM      5  N   UNL     1     -34.944  27.760   2.211  0.00  0.00    -0.163 NA
ATOM      6  C   UNL     1     -37.110  24.733   2.420  0.00  0.00    +0.245 C 
ATOM      7  C   UNL     1     -35.993  26.955   2.020  0.00  0.00    +0.153 C 
ATOM      8  C   UNL     1     -36.998  27.550   1.234  0.00  0.00    +0.054 C 
ATOM      9  C   UNL     1     -36.510  28.799   0.938  0.00  0.00    +0.087 C 
ATOM     10  H   UNL     1     -35.297  25.352   3.089  0.00  0.00    +0.156 HD
BRANCH   4  11
ATOM     11  C   UNL     1     -34.387  30.000   1.513  0.00  0.00    +0.148 C 
BRANCH  11  12
ATOM     12  C   UNL     1     -34.325  30.727   2.860  0.00  0.00    +0.161 C 
BRANCH  12  13
ATOM     13  O   UNL     1     -35.426  30.292   3.662  0.00  0.00    -0.380 OA
ATOM     14  H   UNL     1     -35.934  29.623   3.178  0.00  0.00    +0.211 HD
ENDBRANCH  12  13
BRANCH  12  15
ATOM     15  C   UNL     1     -33.031  30.398   3.600  0.00  0.00    +0.168 C 
BRANCH  15  16
ATOM     16  O   UNL     1     -33.178  29.172   4.311  0.00  0.00    -0.379 OA
ATOM     17  H   UNL     1     -32.395  29.022   4.862  0.00  0.00    +0.211 HD
ENDBRANCH  15  16
ENDBRANCH  12  15
ENDBRANCH  11  12
ENDBRANCH   4  11
ENDBRANCH   1   6
BRANCH   1  19
ATOM     18  O   UNL     1     -38.868  21.510   2.180  0.00  0.00    -0.270 OA
ATOM     19  N   UNL     1     -36.686  22.404   2.079  0.00  0.00    -0.262 N 
ATOM     20  C   UNL     1     -35.496  22.151   1.295  0.00  0.00    +0.159 C 
ATOM     21  C   UNL     1     -37.737  21.563   1.724  0.00  0.00    +0.253 C 
ATOM     22  C   UNL     1     -35.975  21.048   0.425  0.00  0.00    +0.147 C 
ATOM     23  C   UNL     1     -37.245  20.688   0.642  0.00  0.00    +0.093 C 
BRANCH  22  24
ATOM     24  O   UNL     1     -35.146  20.483  -0.502  0.00  0.00    -0.455 OA
BRANCH  24  26
ATOM     25 CL   UNL     1     -32.587  21.878  -1.253  0.00  0.00    -0.079 Cl
ATOM     26  C   UNL     1     -33.997  19.891  -0.043  0.00  0.00    +0.155 C 
ATOM     27  C   UNL     1     -32.742  20.435  -0.321  0.00  0.00    +0.092 C 
ATOM     28  C   UNL     1     -34.098  18.723   0.712  0.00  0.00    +0.038 C 
ATOM     29  C   UNL     1     -31.590  19.811   0.156  0.00  0.00    +0.014 C 
ATOM     30  C   UNL     1     -32.946  18.098   1.189  0.00  0.00    +0.003 C 
ATOM     31  C   UNL     1     -31.691  18.642   0.911  0.00  0.00    +0.001 C 
ENDBRANCH  24  26
ENDBRANCH  22  24
ENDBRANCH   1  19
BRANCH   1  32
ATOM     32  C   UNL     1     -35.465  23.542   3.899  0.00  0.00    +0.029 C 
BRANCH  32  33
ATOM     33  C   UNL     1     -35.647  23.789   5.411  0.00  0.00    +0.002 C 
ATOM     34  C   UNL     1     -34.848  24.996   5.904  0.00  0.00    +0.000 C 
ATOM     35  C   UNL     1     -35.229  22.540   6.192  0.00  0.00    +0.000 C 
ENDBRANCH  32  33
ENDBRANCH   1  32
TORSDOF 11
ENDMDL
MODEL 9
REMARK VINA RESULT:      -6.5     11.179     14.853
REMARK  Name = 57920094
REMARK  11 active torsions:
REMARK  status: ('A' for Active; 'I' for Inactive)
REMARK    1  A    between atoms: C_1  and  C_6
REMARK    2  A    between atoms: C_1  and  N_19
REMARK    3  A    between atoms: C_1  and  C_32
REMARK    4  A    between atoms: N_4  and  C_11
REMARK    5  A    between atoms: C_11  and  C_12
REMARK    6  A    between atoms: C_12  and  O_13
REMARK    7  A    between atoms: C_12  and  C_15
REMARK    8  A    between atoms: C_15  and  O_16
REMARK    9  A    between atoms: C_22  and  O_24
REMARK   10  A    between atoms: O_24  and  C_26
REMARK   11  A    between atoms: C_32  and  C_33
REMARK                            x       y       z     vdW  Elec       q    Type
REMARK                         _______ _______ _______ _____ _____    ______ ____
ROOT
ATOM      1  C   UNL     1     -41.339  35.292   0.589  0.00  0.00    +0.153 C 
ENDROOT
BRANCH   1   6
ATOM      2  O   UNL     1     -43.511  34.345   0.124  0.00  0.00    -0.273 OA
ATOM      3  N   UNL     1     -42.688  34.299   2.322  0.00  0.00    -0.267 N 
ATOM      4  N   UNL     1     -44.879  32.894   4.618  0.00  0.00    -0.206 N 
ATOM      5  N   UNL     1     -43.692  33.470   4.359  0.00  0.00    -0.163 NA
ATOM      6  C   UNL     1     -42.639  34.576   0.959  0.00  0.00    +0.245 C 
ATOM      7  C   UNL     1     -43.744  33.694   3.043  0.00  0.00    +0.153 C 
ATOM      8  C   UNL     1     -44.954  33.264   2.466  0.00  0.00    +0.054 C 
ATOM      9  C   UNL     1     -45.672  32.746   3.517  0.00  0.00    +0.087 C 
ATOM     10  H   UNL     1     -41.895  34.555   2.846  0.00  0.00    +0.156 HD
BRANCH   4  11
ATOM     11  C   UNL     1     -45.203  32.495   5.966  0.00  0.00    +0.148 C 
BRANCH  11  12
ATOM     12  C   UNL     1     -44.510  31.190   6.368  0.00  0.00    +0.161 C 
BRANCH  12  13
ATOM     13  O   UNL     1     -43.126  31.284   6.023  0.00  0.00    -0.380 OA
ATOM     14  H   UNL     1     -42.599  30.777   6.660  0.00  0.00    +0.211 HD
ENDBRANCH  12  13
BRANCH  12  15
ATOM     15  C   UNL     1     -44.616  30.955   7.873  0.00  0.00    +0.168 C 
BRANCH  15  16
ATOM     16  O   UNL     1     -43.370  30.487   8.378  0.00  0.00    -0.379 OA
ATOM     17  H   UNL     1     -42.701  30.527   7.677  0.00  0.00    +0.211 HD
ENDBRANCH  15  16
ENDBRANCH  12  15
ENDBRANCH  11  12
ENDBRANCH   4  11
ENDBRANCH   1   6
BRANCH   1  19
ATOM     18  O   UNL     1     -40.858  35.247  -2.349  0.00  0.00    -0.270 OA
ATOM     19  N   UNL     1     -41.666  36.293  -0.393  0.00  0.00    -0.262 N 
ATOM     20  C   UNL     1     -42.318  37.547  -0.081  0.00  0.00    +0.159 C 
ATOM     21  C   UNL     1     -41.393  36.167  -1.753  0.00  0.00    +0.253 C 
ATOM     22  C   UNL     1     -42.398  38.154  -1.434  0.00  0.00    +0.147 C 
ATOM     23  C   UNL     1     -41.882  37.397  -2.408  0.00  0.00    +0.093 C 
BRANCH  22  24
ATOM     24  O   UNL     1     -42.961  39.386  -1.611  0.00  0.00    -0.455 OA
BRANCH  24  26
ATOM     25 CL   UNL     1     -45.239  39.681  -3.555  0.00  0.00    -0.079 Cl
ATOM     26  C   UNL     1     -42.662  40.056  -2.770  0.00  0.00    +0.155 C 
ATOM     27  C   UNL     1     -43.627  40.261  -3.756  0.00  0.00    +0.092 C 
ATOM     28  C   UNL     1     -41.365  40.534  -2.954  0.00  0.00    +0.038 C 
ATOM     29  C   UNL     1     -43.295  40.944  -4.926  0.00  0.00    +0.014 C 
ATOM     30  C   UNL     1     -41.032  41.217  -4.124  0.00  0.00    +0.003 C 
ATOM     31  C   UNL     1     -41.998  41.421  -5.111  0.00  0.00    +0.001 C 
ENDBRANCH  24  26
ENDBRANCH  22  24
ENDBRANCH   1  19
BRANCH   1  32
ATOM     32  C   UNL     1     -40.692  35.897   1.841  0.00  0.00    +0.029 C 
BRANCH  32  33
ATOM     33  C   UNL     1     -39.187  35.599   2.000  0.00  0.00    +0.002 C 
ATOM     34  C   UNL     1     -38.345  36.247   0.900  0.00  0.00    +0.000 C 
ATOM     35  C   UNL     1     -38.958  34.084   1.999  0.00  0.00    +0.000 C 
ENDBRANCH  32  33
ENDBRANCH   1  32
TORSDOF 11
ENDMDL
