MODEL 1
REMARK VINA RESULT:      -5.4      0.000      0.000
REMARK  Name = 5487163
REMARK  14 active torsions:
REMARK  status: ('A' for Active; 'I' for Inactive)
REMARK    1  A    between atoms: C_2  and  C_3
REMARK    2  A    between atoms: C_2  and  C_18
REMARK    3  A    between atoms: C_3  and  C_4
REMARK    4  A    between atoms: C_4  and  C_6
REMARK    5  A    between atoms: C_4  and  C_9
REMARK    6  A    between atoms: C_6  and  O_7
REMARK    7  A    between atoms: C_9  and  C_10
REMARK    8  A    between atoms: C_15  and  O_16
REMARK    9  A    between atoms: C_18  and  N_19
REMARK   10  A    between atoms: C_18  and  C_23
REMARK   11  A    between atoms: C_23  and  C_24
REMARK   12  A    between atoms: C_24  and  C_25
REMARK   13  A    between atoms: C_25  and  N_26
REMARK   14  A    between atoms: N_26  and  C_29
REMARK                            x       y       z     vdW  Elec       q    Type
REMARK                         _______ _______ _______ _____ _____    ______ ____
ROOT
ATOM      1  O   UNL     1     -36.835  21.736  -0.732  0.00  0.00    -0.298 OA
ATOM      2  C   UNL     1     -37.258  21.329   0.351  0.00  0.00    +0.131 C 
ENDROOT
BRANCH   2   3
ATOM      3  C   UNL     1     -36.488  20.329   1.208  0.00  0.00    +0.074 C 
BRANCH   3   4
ATOM      4  C   UNL     1     -35.151  20.828   1.779  0.00  0.00    +0.110 C 
BRANCH   4   6
ATOM      5  O   UNL     1     -34.929  23.195   2.341  0.00  0.00    -0.250 OA
ATOM      6  C   UNL     1     -35.362  22.085   2.616  0.00  0.00    +0.314 C 
BRANCH   6   7
ATOM      7  O   UNL     1     -36.107  21.843   3.726  0.00  0.00    -0.480 OA
ATOM      8  H   UNL     1     -37.023  21.664   3.646  0.00  0.00    +0.295 HD
ENDBRANCH   6   7
ENDBRANCH   4   6
BRANCH   4   9
ATOM      9  C   UNL     1     -34.079  21.015   0.685  0.00  0.00    +0.038 C 
BRANCH   9  10
ATOM     10  C   UNL     1     -32.998  19.959   0.727  0.00  0.00    -0.021 C 
ATOM     11  C   UNL     1     -33.209  18.772   1.427  0.00  0.00    -0.001 C 
ATOM     12  C   UNL     1     -31.790  20.172   0.064  0.00  0.00    -0.001 C 
ATOM     13  C   UNL     1     -32.212  17.798   1.465  0.00  0.00    +0.036 C 
ATOM     14  C   UNL     1     -30.792  19.198   0.101  0.00  0.00    +0.036 C 
ATOM     15  C   UNL     1     -31.003  18.011   0.802  0.00  0.00    +0.134 C 
BRANCH  15  16
ATOM     16  O   UNL     1     -30.030  17.059   0.839  0.00  0.00    -0.506 OA
ATOM     17  H   UNL     1     -29.203  17.220   0.429  0.00  0.00    +0.292 HD
ENDBRANCH  15  16
ENDBRANCH   9  10
ENDBRANCH   4   9
ENDBRANCH   3   4
ENDBRANCH   2   3
BRANCH   2  18
ATOM     18  C   UNL     1     -38.552  21.873   0.949  0.00  0.00    -0.006 C 
BRANCH  18  19
ATOM     19  N   UNL     1     -38.749  21.152   2.204  0.00  0.00    +0.386 N 
ATOM     20  H   UNL     1     -39.490  21.600   2.741  0.00  0.00    -0.089 HD
ATOM     21  H   UNL     1     -37.883  21.166   2.743  0.00  0.00    -0.089 HD
ATOM     22  H   UNL     1     -39.008  20.186   2.004  0.00  0.00    -0.089 HD
ENDBRANCH  18  19
BRANCH  18  23
ATOM     23  C   UNL     1     -38.486  23.388   1.188  0.00  0.00    -0.013 C 
BRANCH  23  24
ATOM     24  C   UNL     1     -38.862  23.759   2.631  0.00  0.00    +0.025 C 
BRANCH  24  25
ATOM     25  C   UNL     1     -38.002  24.890   3.183  0.00  0.00    +0.129 C 
BRANCH  25  26
ATOM     26  N   UNL     1     -37.380  24.475   4.442  0.00  0.00    -0.240 NA
BRANCH  26  29
ATOM     27  N   UNL     1     -36.420  26.544   5.195  0.00  0.00    -0.370 N 
ATOM     28  N   UNL     1     -35.157  24.650   5.072  0.00  0.00    -0.370 N 
ATOM     29  C   UNL     1     -36.400  25.204   4.877  0.00  0.00    +0.189 C 
ATOM     30  H   UNL     1     -37.253  27.059   5.099  0.00  0.00    +0.159 HD
ATOM     31  H   UNL     1     -35.602  26.985   5.518  0.00  0.00    +0.159 HD
ATOM     32  H   UNL     1     -35.008  23.696   4.882  0.00  0.00    +0.159 HD
ATOM     33  H   UNL     1     -34.416  25.208   5.404  0.00  0.00    +0.159 HD
ENDBRANCH  26  29
ENDBRANCH  25  26
ENDBRANCH  24  25
ENDBRANCH  23  24
ENDBRANCH  18  23
ENDBRANCH   2  18
TORSDOF 14
ENDMDL
MODEL 2
REMARK VINA RESULT:      -5.4      1.939      3.287
REMARK  Name = 5487163
REMARK  14 active torsions:
REMARK  status: ('A' for Active; 'I' for Inactive)
REMARK    1  A    between atoms: C_2  and  C_3
REMARK    2  A    between atoms: C_2  and  C_18
REMARK    3  A    between atoms: C_3  and  C_4
REMARK    4  A    between atoms: C_4  and  C_6
REMARK    5  A    between atoms: C_4  and  C_9
REMARK    6  A    between atoms: C_6  and  O_7
REMARK    7  A    between atoms: C_9  and  C_10
REMARK    8  A    between atoms: C_15  and  O_16
REMARK    9  A    between atoms: C_18  and  N_19
REMARK   10  A    between atoms: C_18  and  C_23
REMARK   11  A    between atoms: C_23  and  C_24
REMARK   12  A    between atoms: C_24  and  C_25
REMARK   13  A    between atoms: C_25  and  N_26
REMARK   14  A    between atoms: N_26  and  C_29
REMARK                            x       y       z     vdW  Elec       q    Type
REMARK                         _______ _______ _______ _____ _____    ______ ____
ROOT
ATOM      1  O   UNL     1     -35.170  20.601   4.238  0.00  0.00    -0.298 OA
ATOM      2  C   UNL     1     -35.536  21.745   3.969  0.00  0.00    +0.131 C 
ENDROOT
BRANCH   2   3
ATOM      3  C   UNL     1     -35.862  22.188   2.546  0.00  0.00    +0.074 C 
BRANCH   3   4
ATOM      4  C   UNL     1     -34.652  22.504   1.651  0.00  0.00    +0.110 C 
BRANCH   4   6
ATOM      5  O   UNL     1     -33.768  24.780   1.572  0.00  0.00    -0.250 OA
ATOM      6  C   UNL     1     -34.641  23.979   1.267  0.00  0.00    +0.314 C 
BRANCH   6   7
ATOM      7  O   UNL     1     -35.725  24.324   0.524  0.00  0.00    -0.480 OA
ATOM      8  H   UNL     1     -36.573  23.999   0.753  0.00  0.00    +0.295 HD
ENDBRANCH   6   7
ENDBRANCH   4   6
BRANCH   4   9
ATOM      9  C   UNL     1     -34.570  21.570   0.426  0.00  0.00    +0.038 C 
BRANCH   9  10
ATOM     10  C   UNL     1     -33.552  20.464   0.591  0.00  0.00    -0.021 C 
ATOM     11  C   UNL     1     -32.282  20.595   0.032  0.00  0.00    -0.001 C 
ATOM     12  C   UNL     1     -33.886  19.312   1.303  0.00  0.00    -0.001 C 
ATOM     13  C   UNL     1     -31.344  19.574   0.184  0.00  0.00    +0.036 C 
ATOM     14  C   UNL     1     -32.948  18.290   1.456  0.00  0.00    +0.036 C 
ATOM     15  C   UNL     1     -31.677  18.421   0.896  0.00  0.00    +0.134 C 
BRANCH  15  16
ATOM     16  O   UNL     1     -30.761  17.425   1.046  0.00  0.00    -0.506 OA
ATOM     17  H   UNL     1     -31.034  16.530   1.009  0.00  0.00    +0.292 HD
ENDBRANCH  15  16
ENDBRANCH   9  10
ENDBRANCH   4   9
ENDBRANCH   3   4
ENDBRANCH   2   3
BRANCH   2  18
ATOM     18  C   UNL     1     -35.773  22.778   5.067  0.00  0.00    -0.006 C 
BRANCH  18  19
ATOM     19  N   UNL     1     -35.958  22.017   6.300  0.00  0.00    +0.386 N 
ATOM     20  H   UNL     1     -36.948  22.000   6.544  0.00  0.00    -0.089 HD
ATOM     21  H   UNL     1     -35.431  22.458   7.055  0.00  0.00    -0.089 HD
ATOM     22  H   UNL     1     -35.623  21.063   6.165  0.00  0.00    -0.089 HD
ENDBRANCH  18  19
BRANCH  18  23
ATOM     23  C   UNL     1     -34.602  23.762   5.197  0.00  0.00    -0.013 C 
BRANCH  23  24
ATOM     24  C   UNL     1     -35.045  25.215   4.972  0.00  0.00    +0.025 C 
BRANCH  24  25
ATOM     25  C   UNL     1     -36.543  25.334   4.718  0.00  0.00    +0.129 C 
BRANCH  25  26
ATOM     26  N   UNL     1     -36.783  25.741   3.332  0.00  0.00    -0.240 NA
BRANCH  26  29
ATOM     27  N   UNL     1     -39.144  26.149   3.504  0.00  0.00    -0.370 N 
ATOM     28  N   UNL     1     -38.284  25.031   1.714  0.00  0.00    -0.370 N 
ATOM     29  C   UNL     1     -38.005  25.662   2.903  0.00  0.00    +0.189 C 
ATOM     30  H   UNL     1     -39.082  26.623   4.364  0.00  0.00    +0.159 HD
ATOM     31  H   UNL     1     -40.020  26.023   3.073  0.00  0.00    +0.159 HD
ATOM     32  H   UNL     1     -37.555  24.638   1.183  0.00  0.00    +0.159 HD
ATOM     33  H   UNL     1     -39.213  24.975   1.392  0.00  0.00    +0.159 HD
ENDBRANCH  26  29
ENDBRANCH  25  26
ENDBRANCH  24  25
ENDBRANCH  23  24
ENDBRANCH  18  23
ENDBRANCH   2  18
TORSDOF 14
ENDMDL
MODEL 3
REMARK VINA RESULT:      -5.4      2.394      3.787
REMARK  Name = 5487163
REMARK  14 active torsions:
REMARK  status: ('A' for Active; 'I' for Inactive)
REMARK    1  A    between atoms: C_2  and  C_3
REMARK    2  A    between atoms: C_2  and  C_18
REMARK    3  A    between atoms: C_3  and  C_4
REMARK    4  A    between atoms: C_4  and  C_6
REMARK    5  A    between atoms: C_4  and  C_9
REMARK    6  A    between atoms: C_6  and  O_7
REMARK    7  A    between atoms: C_9  and  C_10
REMARK    8  A    between atoms: C_15  and  O_16
REMARK    9  A    between atoms: C_18  and  N_19
REMARK   10  A    between atoms: C_18  and  C_23
REMARK   11  A    between atoms: C_23  and  C_24
REMARK   12  A    between atoms: C_24  and  C_25
REMARK   13  A    between atoms: C_25  and  N_26
REMARK   14  A    between atoms: N_26  and  C_29
REMARK                            x       y       z     vdW  Elec       q    Type
REMARK                         _______ _______ _______ _____ _____    ______ ____
ROOT
ATOM      1  O   UNL     1     -35.170  20.694   4.238  0.00  0.00    -0.298 OA
ATOM      2  C   UNL     1     -35.541  21.838   3.972  0.00  0.00    +0.131 C 
ENDROOT
BRANCH   2   3
ATOM      3  C   UNL     1     -35.877  22.281   2.552  0.00  0.00    +0.074 C 
BRANCH   3   4
ATOM      4  C   UNL     1     -34.676  22.482   1.613  0.00  0.00    +0.110 C 
BRANCH   4   6
ATOM      5  O   UNL     1     -34.455  24.904   1.841  0.00  0.00    -0.250 OA
ATOM      6  C   UNL     1     -34.613  23.925   1.125  0.00  0.00    +0.314 C 
BRANCH   6   7
ATOM      7  O   UNL     1     -34.746  24.016  -0.224  0.00  0.00    -0.480 OA
ATOM      8  H   UNL     1     -35.567  23.819  -0.628  0.00  0.00    +0.295 HD
ENDBRANCH   6   7
ENDBRANCH   4   6
BRANCH   4   9
ATOM      9  C   UNL     1     -34.659  21.462   0.455  0.00  0.00    +0.038 C 
BRANCH   9  10
ATOM     10  C   UNL     1     -33.595  20.401   0.615  0.00  0.00    -0.021 C 
ATOM     11  C   UNL     1     -32.336  20.582   0.043  0.00  0.00    -0.001 C 
ATOM     12  C   UNL     1     -33.873  19.239   1.336  0.00  0.00    -0.001 C 
ATOM     13  C   UNL     1     -31.355  19.602   0.191  0.00  0.00    +0.036 C 
ATOM     14  C   UNL     1     -32.891  18.258   1.485  0.00  0.00    +0.036 C 
ATOM     15  C   UNL     1     -31.632  18.440   0.911  0.00  0.00    +0.134 C 
BRANCH  15  16
ATOM     16  O   UNL     1     -30.674  17.484   1.056  0.00  0.00    -0.506 OA
ATOM     17  H   UNL     1     -30.588  17.027   1.869  0.00  0.00    +0.292 HD
ENDBRANCH  15  16
ENDBRANCH   9  10
ENDBRANCH   4   9
ENDBRANCH   3   4
ENDBRANCH   2   3
BRANCH   2  18
ATOM     18  C   UNL     1     -35.774  22.869   5.073  0.00  0.00    -0.006 C 
BRANCH  18  19
ATOM     19  N   UNL     1     -35.982  22.105   6.301  0.00  0.00    +0.386 N 
ATOM     20  H   UNL     1     -35.367  22.463   7.031  0.00  0.00    -0.089 HD
ATOM     21  H   UNL     1     -35.769  21.122   6.129  0.00  0.00    -0.089 HD
ATOM     22  H   UNL     1     -36.953  22.196   6.597  0.00  0.00    -0.089 HD
ENDBRANCH  18  19
BRANCH  18  23
ATOM     23  C   UNL     1     -34.591  23.836   5.218  0.00  0.00    -0.013 C 
BRANCH  23  24
ATOM     24  C   UNL     1     -35.055  25.279   5.464  0.00  0.00    +0.025 C 
BRANCH  24  25
ATOM     25  C   UNL     1     -34.006  26.306   5.050  0.00  0.00    +0.129 C 
BRANCH  25  26
ATOM     26  N   UNL     1     -33.241  26.737   6.221  0.00  0.00    -0.240 NA
BRANCH  26  29
ATOM     27  N   UNL     1     -31.387  28.128   6.853  0.00  0.00    -0.370 N 
ATOM     28  N   UNL     1     -32.615  28.600   4.992  0.00  0.00    -0.370 N 
ATOM     29  C   UNL     1     -32.447  27.750   6.059  0.00  0.00    +0.189 C 
ATOM     30  H   UNL     1     -31.160  27.601   7.653  0.00  0.00    +0.159 HD
ATOM     31  H   UNL     1     -30.858  28.924   6.620  0.00  0.00    +0.159 HD
ATOM     32  H   UNL     1     -33.340  28.441   4.346  0.00  0.00    +0.159 HD
ATOM     33  H   UNL     1     -32.009  29.367   4.873  0.00  0.00    +0.159 HD
ENDBRANCH  26  29
ENDBRANCH  25  26
ENDBRANCH  24  25
ENDBRANCH  23  24
ENDBRANCH  18  23
ENDBRANCH   2  18
TORSDOF 14
ENDMDL
MODEL 4
REMARK VINA RESULT:      -5.4      2.138      3.121
REMARK  Name = 5487163
REMARK  14 active torsions:
REMARK  status: ('A' for Active; 'I' for Inactive)
REMARK    1  A    between atoms: C_2  and  C_3
REMARK    2  A    between atoms: C_2  and  C_18
REMARK    3  A    between atoms: C_3  and  C_4
REMARK    4  A    between atoms: C_4  and  C_6
REMARK    5  A    between atoms: C_4  and  C_9
REMARK    6  A    between atoms: C_6  and  O_7
REMARK    7  A    between atoms: C_9  and  C_10
REMARK    8  A    between atoms: C_15  and  O_16
REMARK    9  A    between atoms: C_18  and  N_19
REMARK   10  A    between atoms: C_18  and  C_23
REMARK   11  A    between atoms: C_23  and  C_24
REMARK   12  A    between atoms: C_24  and  C_25
REMARK   13  A    between atoms: C_25  and  N_26
REMARK   14  A    between atoms: N_26  and  C_29
REMARK                            x       y       z     vdW  Elec       q    Type
REMARK                         _______ _______ _______ _____ _____    ______ ____
ROOT
ATOM      1  O   UNL     1     -34.836  22.505   1.288  0.00  0.00    -0.298 OA
ATOM      2  C   UNL     1     -35.254  21.864   2.253  0.00  0.00    +0.131 C 
ENDROOT
BRANCH   2   3
ATOM      3  C   UNL     1     -35.221  20.340   2.301  0.00  0.00    +0.074 C 
BRANCH   3   4
ATOM      4  C   UNL     1     -34.606  19.646   1.075  0.00  0.00    +0.110 C 
BRANCH   4   6
ATOM      5  O   UNL     1     -35.550  18.488  -0.858  0.00  0.00    -0.250 OA
ATOM      6  C   UNL     1     -35.678  18.904   0.285  0.00  0.00    +0.314 C 
BRANCH   6   7
ATOM      7  O   UNL     1     -36.821  18.740   1.001  0.00  0.00    -0.480 OA
ATOM      8  H   UNL     1     -36.822  18.194   1.763  0.00  0.00    +0.295 HD
ENDBRANCH   6   7
ENDBRANCH   4   6
BRANCH   4   9
ATOM      9  C   UNL     1     -33.413  18.742   1.450  0.00  0.00    +0.038 C 
BRANCH   9  10
ATOM     10  C   UNL     1     -32.134  19.123   0.740  0.00  0.00    -0.021 C 
ATOM     11  C   UNL     1     -31.035  18.266   0.773  0.00  0.00    -0.001 C 
ATOM     12  C   UNL     1     -32.054  20.333   0.050  0.00  0.00    -0.001 C 
ATOM     13  C   UNL     1     -29.855  18.619   0.117  0.00  0.00    +0.036 C 
ATOM     14  C   UNL     1     -30.875  20.687  -0.606  0.00  0.00    +0.036 C 
ATOM     15  C   UNL     1     -29.775  19.829  -0.572  0.00  0.00    +0.134 C 
BRANCH  15  16
ATOM     16  O   UNL     1     -28.624  20.172  -1.213  0.00  0.00    -0.506 OA
ATOM     17  H   UNL     1     -28.310  19.649  -1.924  0.00  0.00    +0.292 HD
ENDBRANCH  15  16
ENDBRANCH   9  10
ENDBRANCH   4   9
ENDBRANCH   3   4
ENDBRANCH   2   3
BRANCH   2  18
ATOM     18  C   UNL     1     -35.756  22.568   3.511  0.00  0.00    -0.006 C 
BRANCH  18  19
ATOM     19  N   UNL     1     -37.214  22.548   3.427  0.00  0.00    +0.386 N 
ATOM     20  H   UNL     1     -37.546  23.446   3.075  0.00  0.00    -0.089 HD
ATOM     21  H   UNL     1     -37.606  22.381   4.354  0.00  0.00    -0.089 HD
ATOM     22  H   UNL     1     -37.508  21.804   2.794  0.00  0.00    -0.089 HD
ENDBRANCH  18  19
BRANCH  18  23
ATOM     23  C   UNL     1     -35.269  21.877   4.793  0.00  0.00    -0.013 C 
BRANCH  23  24
ATOM     24  C   UNL     1     -35.183  22.854   5.975  0.00  0.00    +0.025 C 
BRANCH  24  25
ATOM     25  C   UNL     1     -34.922  24.288   5.526  0.00  0.00    +0.129 C 
BRANCH  25  26
ATOM     26  N   UNL     1     -36.147  25.080   5.650  0.00  0.00    -0.240 NA
BRANCH  26  29
ATOM     27  N   UNL     1     -37.448  26.125   3.922  0.00  0.00    -0.370 N 
ATOM     28  N   UNL     1     -35.409  26.956   4.507  0.00  0.00    -0.370 N 
ATOM     29  C   UNL     1     -36.352  25.984   4.743  0.00  0.00    +0.189 C 
ATOM     30  H   UNL     1     -38.198  25.490   3.990  0.00  0.00    +0.159 HD
ATOM     31  H   UNL     1     -37.483  26.860   3.268  0.00  0.00    +0.159 HD
ATOM     32  H   UNL     1     -34.574  26.969   5.028  0.00  0.00    +0.159 HD
ATOM     33  H   UNL     1     -35.569  27.641   3.817  0.00  0.00    +0.159 HD
ENDBRANCH  26  29
ENDBRANCH  25  26
ENDBRANCH  24  25
ENDBRANCH  23  24
ENDBRANCH  18  23
ENDBRANCH   2  18
TORSDOF 14
ENDMDL
MODEL 5
REMARK VINA RESULT:      -5.3      3.682      5.951
REMARK  Name = 5487163
REMARK  14 active torsions:
REMARK  status: ('A' for Active; 'I' for Inactive)
REMARK    1  A    between atoms: C_2  and  C_3
REMARK    2  A    between atoms: C_2  and  C_18
REMARK    3  A    between atoms: C_3  and  C_4
REMARK    4  A    between atoms: C_4  and  C_6
REMARK    5  A    between atoms: C_4  and  C_9
REMARK    6  A    between atoms: C_6  and  O_7
REMARK    7  A    between atoms: C_9  and  C_10
REMARK    8  A    between atoms: C_15  and  O_16
REMARK    9  A    between atoms: C_18  and  N_19
REMARK   10  A    between atoms: C_18  and  C_23
REMARK   11  A    between atoms: C_23  and  C_24
REMARK   12  A    between atoms: C_24  and  C_25
REMARK   13  A    between atoms: C_25  and  N_26
REMARK   14  A    between atoms: N_26  and  C_29
REMARK                            x       y       z     vdW  Elec       q    Type
REMARK                         _______ _______ _______ _____ _____    ______ ____
ROOT
ATOM      1  O   UNL     1     -33.934  26.540   6.122  0.00  0.00    -0.298 OA
ATOM      2  C   UNL     1     -34.636  26.159   5.185  0.00  0.00    +0.131 C 
ENDROOT
BRANCH   2   3
ATOM      3  C   UNL     1     -35.832  25.233   5.379  0.00  0.00    +0.074 C 
BRANCH   3   4
ATOM      4  C   UNL     1     -36.287  24.457   4.132  0.00  0.00    +0.110 C 
BRANCH   4   6
ATOM      5  O   UNL     1     -38.594  24.071   3.429  0.00  0.00    -0.250 OA
ATOM      6  C   UNL     1     -37.708  24.852   3.744  0.00  0.00    +0.314 C 
BRANCH   6   7
ATOM      7  O   UNL     1     -37.897  26.196   3.793  0.00  0.00    -0.480 OA
ATOM      8  H   UNL     1     -37.164  26.776   3.724  0.00  0.00    +0.295 HD
ENDBRANCH   6   7
ENDBRANCH   4   6
BRANCH   4   9
ATOM      9  C   UNL     1     -36.117  22.932   4.296  0.00  0.00    +0.038 C 
BRANCH   9  10
ATOM     10  C   UNL     1     -35.507  22.270   3.081  0.00  0.00    -0.021 C 
ATOM     11  C   UNL     1     -35.447  20.879   3.001  0.00  0.00    -0.001 C 
ATOM     12  C   UNL     1     -35.004  23.051   2.041  0.00  0.00    -0.001 C 
ATOM     13  C   UNL     1     -34.884  20.269   1.880  0.00  0.00    +0.036 C 
ATOM     14  C   UNL     1     -34.440  22.442   0.920  0.00  0.00    +0.036 C 
ATOM     15  C   UNL     1     -34.380  21.050   0.840  0.00  0.00    +0.134 C 
BRANCH  15  16
ATOM     16  O   UNL     1     -33.831  20.454  -0.254  0.00  0.00    -0.506 OA
ATOM     17  H   UNL     1     -33.542  19.564  -0.207  0.00  0.00    +0.292 HD
ENDBRANCH  15  16
ENDBRANCH   9  10
ENDBRANCH   4   9
ENDBRANCH   3   4
ENDBRANCH   2   3
BRANCH   2  18
ATOM     18  C   UNL     1     -34.402  26.668   3.765  0.00  0.00    -0.006 C 
BRANCH  18  19
ATOM     19  N   UNL     1     -35.216  27.873   3.631  0.00  0.00    +0.386 N 
ATOM     20  H   UNL     1     -35.768  28.006   4.478  0.00  0.00    -0.089 HD
ATOM     21  H   UNL     1     -35.841  27.774   2.830  0.00  0.00    -0.089 HD
ATOM     22  H   UNL     1     -34.609  28.680   3.489  0.00  0.00    -0.089 HD
ENDBRANCH  18  19
BRANCH  18  23
ATOM     23  C   UNL     1     -32.921  26.971   3.497  0.00  0.00    -0.013 C 
BRANCH  23  24
ATOM     24  C   UNL     1     -32.684  28.458   3.197  0.00  0.00    +0.025 C 
BRANCH  24  25
ATOM     25  C   UNL     1     -31.815  29.133   4.253  0.00  0.00    +0.129 C 
BRANCH  25  26
ATOM     26  N   UNL     1     -31.088  28.121   5.022  0.00  0.00    -0.240 NA
BRANCH  26  29
ATOM     27  N   UNL     1     -31.907  28.563   7.236  0.00  0.00    -0.370 N 
ATOM     28  N   UNL     1     -29.670  28.409   6.832  0.00  0.00    -0.370 N 
ATOM     29  C   UNL     1     -30.931  28.351   6.288  0.00  0.00    +0.189 C 
ATOM     30  H   UNL     1     -32.857  28.547   6.976  0.00  0.00    +0.159 HD
ATOM     31  H   UNL     1     -31.656  28.728   8.173  0.00  0.00    +0.159 HD
ATOM     32  H   UNL     1     -28.880  28.275   6.259  0.00  0.00    +0.159 HD
ATOM     33  H   UNL     1     -29.556  28.584   7.794  0.00  0.00    +0.159 HD
ENDBRANCH  26  29
ENDBRANCH  25  26
ENDBRANCH  24  25
ENDBRANCH  23  24
ENDBRANCH  18  23
ENDBRANCH   2  18
TORSDOF 14
ENDMDL
MODEL 6
REMARK VINA RESULT:      -5.3      3.564      7.522
REMARK  Name = 5487163
REMARK  14 active torsions:
REMARK  status: ('A' for Active; 'I' for Inactive)
REMARK    1  A    between atoms: C_2  and  C_3
REMARK    2  A    between atoms: C_2  and  C_18
REMARK    3  A    between atoms: C_3  and  C_4
REMARK    4  A    between atoms: C_4  and  C_6
REMARK    5  A    between atoms: C_4  and  C_9
REMARK    6  A    between atoms: C_6  and  O_7
REMARK    7  A    between atoms: C_9  and  C_10
REMARK    8  A    between atoms: C_15  and  O_16
REMARK    9  A    between atoms: C_18  and  N_19
REMARK   10  A    between atoms: C_18  and  C_23
REMARK   11  A    between atoms: C_23  and  C_24
REMARK   12  A    between atoms: C_24  and  C_25
REMARK   13  A    between atoms: C_25  and  N_26
REMARK   14  A    between atoms: N_26  and  C_29
REMARK                            x       y       z     vdW  Elec       q    Type
REMARK                         _______ _______ _______ _____ _____    ______ ____
ROOT
ATOM      1  O   UNL     1     -34.764  22.432   1.451  0.00  0.00    -0.298 OA
ATOM      2  C   UNL     1     -35.364  21.748   2.281  0.00  0.00    +0.131 C 
ENDROOT
BRANCH   2   3
ATOM      3  C   UNL     1     -36.216  22.361   3.388  0.00  0.00    +0.074 C 
BRANCH   3   4
ATOM      4  C   UNL     1     -35.445  22.896   4.606  0.00  0.00    +0.110 C 
BRANCH   4   6
ATOM      5  O   UNL     1     -36.121  22.071   6.803  0.00  0.00    -0.250 OA
ATOM      6  C   UNL     1     -35.507  21.901   5.759  0.00  0.00    +0.314 C 
BRANCH   6   7
ATOM      7  O   UNL     1     -34.800  20.771   5.500  0.00  0.00    -0.480 OA
ATOM      8  H   UNL     1     -33.903  20.709   5.763  0.00  0.00    +0.295 HD
ENDBRANCH   6   7
ENDBRANCH   4   6
BRANCH   4   9
ATOM      9  C   UNL     1     -35.904  24.311   5.016  0.00  0.00    +0.038 C 
BRANCH   9  10
ATOM     10  C   UNL     1     -34.838  25.364   4.811  0.00  0.00    -0.021 C 
ATOM     11  C   UNL     1     -34.243  25.977   5.913  0.00  0.00    -0.001 C 
ATOM     12  C   UNL     1     -34.450  25.720   3.520  0.00  0.00    -0.001 C 
ATOM     13  C   UNL     1     -33.260  26.948   5.724  0.00  0.00    +0.036 C 
ATOM     14  C   UNL     1     -33.467  26.691   3.330  0.00  0.00    +0.036 C 
ATOM     15  C   UNL     1     -32.872  27.306   4.432  0.00  0.00    +0.134 C 
BRANCH  15  16
ATOM     16  O   UNL     1     -31.911  28.253   4.248  0.00  0.00    -0.506 OA
ATOM     17  H   UNL     1     -31.516  28.668   4.988  0.00  0.00    +0.292 HD
ENDBRANCH  15  16
ENDBRANCH   9  10
ENDBRANCH   4   9
ENDBRANCH   3   4
ENDBRANCH   2   3
BRANCH   2  18
ATOM     18  C   UNL     1     -35.362  20.224   2.198  0.00  0.00    -0.006 C 
BRANCH  18  19
ATOM     19  N   UNL     1     -36.765  19.818   2.232  0.00  0.00    +0.386 N 
ATOM     20  H   UNL     1     -37.017  19.394   1.340  0.00  0.00    -0.089 HD
ATOM     21  H   UNL     1     -37.352  20.637   2.396  0.00  0.00    -0.089 HD
ATOM     22  H   UNL     1     -36.906  19.143   2.983  0.00  0.00    -0.089 HD
ENDBRANCH  18  19
BRANCH  18  23
ATOM     23  C   UNL     1     -34.671  19.716   0.925  0.00  0.00    -0.013 C 
BRANCH  23  24
ATOM     24  C   UNL     1     -33.289  19.115   1.222  0.00  0.00    +0.025 C 
BRANCH  24  25
ATOM     25  C   UNL     1     -33.190  17.651   0.810  0.00  0.00    +0.129 C 
BRANCH  25  26
ATOM     26  N   UNL     1     -34.363  17.276   0.018  0.00  0.00    -0.240 NA
BRANCH  26  29
ATOM     27  N   UNL     1     -33.800  15.002  -0.515  0.00  0.00    -0.370 N 
ATOM     28  N   UNL     1     -35.861  15.530   0.301  0.00  0.00    -0.370 N 
ATOM     29  C   UNL     1     -34.627  16.009  -0.071  0.00  0.00    +0.189 C 
ATOM     30  H   UNL     1     -32.885  15.212  -0.812  0.00  0.00    +0.159 HD
ATOM     31  H   UNL     1     -34.122  14.072  -0.533  0.00  0.00    +0.159 HD
ATOM     32  H   UNL     1     -36.548  16.149   0.638  0.00  0.00    +0.159 HD
ATOM     33  H   UNL     1     -36.056  14.567   0.233  0.00  0.00    +0.159 HD
ENDBRANCH  26  29
ENDBRANCH  25  26
ENDBRANCH  24  25
ENDBRANCH  23  24
ENDBRANCH  18  23
ENDBRANCH   2  18
TORSDOF 14
ENDMDL
MODEL 7
REMARK VINA RESULT:      -5.3      3.707      5.673
REMARK  Name = 5487163
REMARK  14 active torsions:
REMARK  status: ('A' for Active; 'I' for Inactive)
REMARK    1  A    between atoms: C_2  and  C_3
REMARK    2  A    between atoms: C_2  and  C_18
REMARK    3  A    between atoms: C_3  and  C_4
REMARK    4  A    between atoms: C_4  and  C_6
REMARK    5  A    between atoms: C_4  and  C_9
REMARK    6  A    between atoms: C_6  and  O_7
REMARK    7  A    between atoms: C_9  and  C_10
REMARK    8  A    between atoms: C_15  and  O_16
REMARK    9  A    between atoms: C_18  and  N_19
REMARK   10  A    between atoms: C_18  and  C_23
REMARK   11  A    between atoms: C_23  and  C_24
REMARK   12  A    between atoms: C_24  and  C_25
REMARK   13  A    between atoms: C_25  and  N_26
REMARK   14  A    between atoms: N_26  and  C_29
REMARK                            x       y       z     vdW  Elec       q    Type
REMARK                         _______ _______ _______ _____ _____    ______ ____
ROOT
ATOM      1  O   UNL     1     -35.619  23.026   1.509  0.00  0.00    -0.298 OA
ATOM      2  C   UNL     1     -36.413  22.406   2.218  0.00  0.00    +0.131 C 
ENDROOT
BRANCH   2   3
ATOM      3  C   UNL     1     -36.718  22.814   3.656  0.00  0.00    +0.074 C 
BRANCH   3   4
ATOM      4  C   UNL     1     -35.496  23.024   4.565  0.00  0.00    +0.110 C 
BRANCH   4   6
ATOM      5  O   UNL     1     -35.040  20.659   4.971  0.00  0.00    -0.250 OA
ATOM      6  C   UNL     1     -35.236  21.783   5.411  0.00  0.00    +0.314 C 
BRANCH   6   7
ATOM      7  O   UNL     1     -35.237  22.061   6.741  0.00  0.00    -0.480 OA
ATOM      8  H   UNL     1     -34.440  22.008   7.231  0.00  0.00    +0.295 HD
ENDBRANCH   6   7
ENDBRANCH   4   6
BRANCH   4   9
ATOM      9  C   UNL     1     -35.610  24.309   5.412  0.00  0.00    +0.038 C 
BRANCH   9  10
ATOM     10  C   UNL     1     -34.611  25.372   5.015  0.00  0.00    -0.021 C 
ATOM     11  C   UNL     1     -34.020  26.174   5.990  0.00  0.00    -0.001 C 
ATOM     12  C   UNL     1     -34.282  25.551   3.671  0.00  0.00    -0.001 C 
ATOM     13  C   UNL     1     -33.099  27.155   5.623  0.00  0.00    +0.036 C 
ATOM     14  C   UNL     1     -33.361  26.532   3.303  0.00  0.00    +0.036 C 
ATOM     15  C   UNL     1     -32.770  27.334   4.280  0.00  0.00    +0.134 C 
BRANCH  15  16
ATOM     16  O   UNL     1     -31.870  28.291   3.921  0.00  0.00    -0.506 OA
ATOM     17  H   UNL     1     -31.032  28.325   4.338  0.00  0.00    +0.292 HD
ENDBRANCH  15  16
ENDBRANCH   9  10
ENDBRANCH   4   9
ENDBRANCH   3   4
ENDBRANCH   2   3
BRANCH   2  18
ATOM     18  C   UNL     1     -37.214  21.231   1.666  0.00  0.00    -0.006 C 
BRANCH  18  19
ATOM     19  N   UNL     1     -36.781  20.059   2.424  0.00  0.00    +0.386 N 
ATOM     20  H   UNL     1     -35.766  19.978   2.374  0.00  0.00    -0.089 HD
ATOM     21  H   UNL     1     -37.209  19.221   2.028  0.00  0.00    -0.089 HD
ATOM     22  H   UNL     1     -37.068  20.159   3.398  0.00  0.00    -0.089 HD
ENDBRANCH  18  19
BRANCH  18  23
ATOM     23  C   UNL     1     -38.728  21.447   1.803  0.00  0.00    -0.013 C 
BRANCH  23  24
ATOM     24  C   UNL     1     -39.231  22.580   0.896  0.00  0.00    +0.025 C 
BRANCH  24  25
ATOM     25  C   UNL     1     -39.988  23.653   1.671  0.00  0.00    +0.129 C 
BRANCH  25  26
ATOM     26  N   UNL     1     -39.158  24.852   1.804  0.00  0.00    -0.240 NA
BRANCH  26  29
ATOM     27  N   UNL     1     -38.075  26.222   3.453  0.00  0.00    -0.370 N 
ATOM     28  N   UNL     1     -39.934  25.015   3.981  0.00  0.00    -0.370 N 
ATOM     29  C   UNL     1     -39.037  25.349   2.995  0.00  0.00    +0.189 C 
ATOM     30  H   UNL     1     -37.371  26.541   2.843  0.00  0.00    +0.159 HD
ATOM     31  H   UNL     1     -38.093  26.529   4.388  0.00  0.00    +0.159 HD
ATOM     32  H   UNL     1     -40.674  24.396   3.785  0.00  0.00    +0.159 HD
ATOM     33  H   UNL     1     -39.838  25.396   4.884  0.00  0.00    +0.159 HD
ENDBRANCH  26  29
ENDBRANCH  25  26
ENDBRANCH  24  25
ENDBRANCH  23  24
ENDBRANCH  18  23
ENDBRANCH   2  18
TORSDOF 14
ENDMDL
MODEL 8
REMARK VINA RESULT:      -5.3      3.226      5.513
REMARK  Name = 5487163
REMARK  14 active torsions:
REMARK  status: ('A' for Active; 'I' for Inactive)
REMARK    1  A    between atoms: C_2  and  C_3
REMARK    2  A    between atoms: C_2  and  C_18
REMARK    3  A    between atoms: C_3  and  C_4
REMARK    4  A    between atoms: C_4  and  C_6
REMARK    5  A    between atoms: C_4  and  C_9
REMARK    6  A    between atoms: C_6  and  O_7
REMARK    7  A    between atoms: C_9  and  C_10
REMARK    8  A    between atoms: C_15  and  O_16
REMARK    9  A    between atoms: C_18  and  N_19
REMARK   10  A    between atoms: C_18  and  C_23
REMARK   11  A    between atoms: C_23  and  C_24
REMARK   12  A    between atoms: C_24  and  C_25
REMARK   13  A    between atoms: C_25  and  N_26
REMARK   14  A    between atoms: N_26  and  C_29
REMARK                            x       y       z     vdW  Elec       q    Type
REMARK                         _______ _______ _______ _____ _____    ______ ____
ROOT
ATOM      1  O   UNL     1     -37.175  23.852   0.754  0.00  0.00    -0.298 OA
ATOM      2  C   UNL     1     -37.732  23.674   1.838  0.00  0.00    +0.131 C 
ENDROOT
BRANCH   2   3
ATOM      3  C   UNL     1     -37.475  22.441   2.698  0.00  0.00    +0.074 C 
BRANCH   3   4
ATOM      4  C   UNL     1     -35.998  22.073   2.913  0.00  0.00    +0.110 C 
BRANCH   4   6
ATOM      5  O   UNL     1     -34.686  20.155   2.158  0.00  0.00    -0.250 OA
ATOM      6  C   UNL     1     -35.750  20.613   2.550  0.00  0.00    +0.314 C 
BRANCH   6   7
ATOM      7  O   UNL     1     -36.860  19.848   2.719  0.00  0.00    -0.480 OA
ATOM      8  H   UNL     1     -36.775  18.938   2.927  0.00  0.00    +0.295 HD
ENDBRANCH   6   7
ENDBRANCH   4   6
BRANCH   4   9
ATOM      9  C   UNL     1     -35.507  22.423   4.334  0.00  0.00    +0.038 C 
BRANCH   9  10
ATOM     10  C   UNL     1     -34.972  23.833   4.445  0.00  0.00    -0.021 C 
ATOM     11  C   UNL     1     -35.160  24.560   5.619  0.00  0.00    -0.001 C 
ATOM     12  C   UNL     1     -34.289  24.405   3.372  0.00  0.00    -0.001 C 
ATOM     13  C   UNL     1     -34.666  25.860   5.721  0.00  0.00    +0.036 C 
ATOM     14  C   UNL     1     -33.794  25.705   3.473  0.00  0.00    +0.036 C 
ATOM     15  C   UNL     1     -33.983  26.434   4.648  0.00  0.00    +0.134 C 
BRANCH  15  16
ATOM     16  O   UNL     1     -33.500  27.702   4.748  0.00  0.00    -0.506 OA
ATOM     17  H   UNL     1     -33.664  28.321   4.065  0.00  0.00    +0.292 HD
ENDBRANCH  15  16
ENDBRANCH   9  10
ENDBRANCH   4   9
ENDBRANCH   3   4
ENDBRANCH   2   3
BRANCH   2  18
ATOM     18  C   UNL     1     -38.660  24.729   2.433  0.00  0.00    -0.006 C 
BRANCH  18  19
ATOM     19  N   UNL     1     -38.406  24.721   3.871  0.00  0.00    +0.386 N 
ATOM     20  H   UNL     1     -39.088  24.121   4.334  0.00  0.00    -0.089 HD
ATOM     21  H   UNL     1     -38.486  25.670   4.237  0.00  0.00    -0.089 HD
ATOM     22  H   UNL     1     -37.465  24.368   4.049  0.00  0.00    -0.089 HD
ENDBRANCH  18  19
BRANCH  18  23
ATOM     23  C   UNL     1     -38.409  26.121   1.837  0.00  0.00    -0.013 C 
BRANCH  23  24
ATOM     24  C   UNL     1     -37.104  26.743   2.358  0.00  0.00    +0.025 C 
BRANCH  24  25
ATOM     25  C   UNL     1     -36.293  27.406   1.250  0.00  0.00    +0.129 C 
BRANCH  25  26
ATOM     26  N   UNL     1     -36.180  28.842   1.507  0.00  0.00    -0.240 NA
BRANCH  26  29
ATOM     27  N   UNL     1     -35.221  29.920   3.427  0.00  0.00    -0.370 N 
ATOM     28  N   UNL     1     -33.890  28.957   1.848  0.00  0.00    -0.370 N 
ATOM     29  C   UNL     1     -35.181  29.229   2.237  0.00  0.00    +0.189 C 
ATOM     30  H   UNL     1     -36.088  30.177   3.817  0.00  0.00    +0.159 HD
ATOM     31  H   UNL     1     -34.384  30.156   3.889  0.00  0.00    +0.159 HD
ATOM     32  H   UNL     1     -33.722  28.466   1.012  0.00  0.00    +0.159 HD
ATOM     33  H   UNL     1     -33.135  29.252   2.407  0.00  0.00    +0.159 HD
ENDBRANCH  26  29
ENDBRANCH  25  26
ENDBRANCH  24  25
ENDBRANCH  23  24
ENDBRANCH  18  23
ENDBRANCH   2  18
TORSDOF 14
ENDMDL
MODEL 9
REMARK VINA RESULT:      -5.3      3.080      5.140
REMARK  Name = 5487163
REMARK  14 active torsions:
REMARK  status: ('A' for Active; 'I' for Inactive)
REMARK    1  A    between atoms: C_2  and  C_3
REMARK    2  A    between atoms: C_2  and  C_18
REMARK    3  A    between atoms: C_3  and  C_4
REMARK    4  A    between atoms: C_4  and  C_6
REMARK    5  A    between atoms: C_4  and  C_9
REMARK    6  A    between atoms: C_6  and  O_7
REMARK    7  A    between atoms: C_9  and  C_10
REMARK    8  A    between atoms: C_15  and  O_16
REMARK    9  A    between atoms: C_18  and  N_19
REMARK   10  A    between atoms: C_18  and  C_23
REMARK   11  A    between atoms: C_23  and  C_24
REMARK   12  A    between atoms: C_24  and  C_25
REMARK   13  A    between atoms: C_25  and  N_26
REMARK   14  A    between atoms: N_26  and  C_29
REMARK                            x       y       z     vdW  Elec       q    Type
REMARK                         _______ _______ _______ _____ _____    ______ ____
ROOT
ATOM      1  O   UNL     1     -37.293  23.092   0.475  0.00  0.00    -0.298 OA
ATOM      2  C   UNL     1     -37.982  22.698   1.416  0.00  0.00    +0.131 C 
ENDROOT
BRANCH   2   3
ATOM      3  C   UNL     1     -37.421  22.518   2.823  0.00  0.00    +0.074 C 
BRANCH   3   4
ATOM      4  C   UNL     1     -35.945  22.096   2.905  0.00  0.00    +0.110 C 
BRANCH   4   6
ATOM      5  O   UNL     1     -34.787  20.184   1.920  0.00  0.00    -0.250 OA
ATOM      6  C   UNL     1     -35.778  20.644   2.469  0.00  0.00    +0.314 C 
BRANCH   6   7
ATOM      7  O   UNL     1     -36.868  19.891   2.767  0.00  0.00    -0.480 OA
ATOM      8  H   UNL     1     -37.308  19.415   2.090  0.00  0.00    +0.295 HD
ENDBRANCH   6   7
ENDBRANCH   4   6
BRANCH   4   9
ATOM      9  C   UNL     1     -35.332  22.373   4.294  0.00  0.00    +0.038 C 
BRANCH   9  10
ATOM     10  C   UNL     1     -34.852  23.797   4.457  0.00  0.00    -0.021 C 
ATOM     11  C   UNL     1     -35.056  24.470   5.661  0.00  0.00    -0.001 C 
ATOM     12  C   UNL     1     -34.204  24.438   3.401  0.00  0.00    -0.001 C 
ATOM     13  C   UNL     1     -34.612  25.784   5.810  0.00  0.00    +0.036 C 
ATOM     14  C   UNL     1     -33.760  25.753   3.549  0.00  0.00    +0.036 C 
ATOM     15  C   UNL     1     -33.965  26.426   4.754  0.00  0.00    +0.134 C 
BRANCH  15  16
ATOM     16  O   UNL     1     -33.531  27.708   4.900  0.00  0.00    -0.506 OA
ATOM     17  H   UNL     1     -32.737  27.983   4.487  0.00  0.00    +0.292 HD
ENDBRANCH  15  16
ENDBRANCH   9  10
ENDBRANCH   4   9
ENDBRANCH   3   4
ENDBRANCH   2   3
BRANCH   2  18
ATOM     18  C   UNL     1     -39.478  22.445   1.249  0.00  0.00    -0.006 C 
BRANCH  18  19
ATOM     19  N   UNL     1     -39.754  21.194   1.951  0.00  0.00    +0.386 N 
ATOM     20  H   UNL     1     -39.738  21.357   2.957  0.00  0.00    -0.089 HD
ATOM     21  H   UNL     1     -39.042  20.504   1.708  0.00  0.00    -0.089 HD
ATOM     22  H   UNL     1     -40.672  20.845   1.676  0.00  0.00    -0.089 HD
ENDBRANCH  18  19
BRANCH  18  23
ATOM     23  C   UNL     1     -40.324  23.593   1.817  0.00  0.00    -0.013 C 
BRANCH  23  24
ATOM     24  C   UNL     1     -40.153  24.888   1.008  0.00  0.00    +0.025 C 
BRANCH  24  25
ATOM     25  C   UNL     1     -40.151  26.130   1.893  0.00  0.00    +0.129 C 
BRANCH  25  26
ATOM     26  N   UNL     1     -38.919  26.890   1.681  0.00  0.00    -0.240 NA
BRANCH  26  29
ATOM     27  N   UNL     1     -36.697  26.001   1.472  0.00  0.00    -0.370 N 
ATOM     28  N   UNL     1     -37.702  26.153   3.511  0.00  0.00    -0.370 N 
ATOM     29  C   UNL     1     -37.828  26.379   2.161  0.00  0.00    +0.189 C 
ATOM     30  H   UNL     1     -36.658  26.111   0.494  0.00  0.00    +0.159 HD
ATOM     31  H   UNL     1     -35.929  25.622   1.956  0.00  0.00    +0.159 HD
ATOM     32  H   UNL     1     -38.442  26.380   4.119  0.00  0.00    +0.159 HD
ATOM     33  H   UNL     1     -36.871  25.765   3.871  0.00  0.00    +0.159 HD
ENDBRANCH  26  29
ENDBRANCH  25  26
ENDBRANCH  24  25
ENDBRANCH  23  24
ENDBRANCH  18  23
ENDBRANCH   2  18
TORSDOF 14
ENDMDL
