MODEL 1
REMARK VINA RESULT:      -4.3      0.000      0.000
REMARK  Name = 198161
REMARK  10 active torsions:
REMARK  status: ('A' for Active; 'I' for Inactive)
REMARK    1  A    between atoms: N_1  and  C_4
REMARK    2  A    between atoms: N_1  and  C_12
REMARK    3  A    between atoms: C_4  and  C_5
REMARK    4  A    between atoms: C_5  and  C_6
REMARK    5  A    between atoms: C_6  and  O_7
REMARK    6  A    between atoms: O_7  and  S_8
REMARK    7  A    between atoms: C_12  and  C_13
REMARK    8  A    between atoms: C_13  and  C_14
REMARK    9  A    between atoms: C_14  and  O_15
REMARK   10  A    between atoms: O_15  and  S_16
REMARK                            x       y       z     vdW  Elec       q    Type
REMARK                         _______ _______ _______ _____ _____    ______ ____
ROOT
ATOM      1  N   UNL     1     -36.014  23.100   5.033  0.00  0.00    +0.386 N 
ATOM      2  C   UNL     1     -35.531  22.214   6.094  0.00  0.00    -0.101 C 
ATOM      3  H   UNL     1     -37.006  22.916   4.884  0.00  0.00    -0.080 HD
ENDROOT
BRANCH   1   4
ATOM      4  C   UNL     1     -35.853  24.500   5.430  0.00  0.00    -0.075 C 
BRANCH   4   5
ATOM      5  C   UNL     1     -34.403  24.936   5.257  0.00  0.00    +0.012 C 
BRANCH   5   6
ATOM      6  C   UNL     1     -34.108  26.214   6.031  0.00  0.00    +0.170 C 
BRANCH   6   7
ATOM      7  O   UNL     1     -32.859  26.736   5.600  0.00  0.00    -0.242 OA
BRANCH   7   8
ATOM      8  S   UNL     1     -32.794  27.551   4.187  0.00  0.00    -0.005 S 
ATOM      9  O   UNL     1     -34.092  28.129   3.904  0.00  0.00    -0.072 OA
ATOM     10  O   UNL     1     -32.075  26.760   3.208  0.00  0.00    -0.072 OA
ATOM     11  C   UNL     1     -31.721  28.849   4.745  0.00  0.00    +0.181 C 
ENDBRANCH   7   8
ENDBRANCH   6   7
ENDBRANCH   5   6
ENDBRANCH   4   5
ENDBRANCH   1   4
BRANCH   1  12
ATOM     12  C   UNL     1     -35.309  22.836   3.784  0.00  0.00    -0.075 C 
BRANCH  12  13
ATOM     13  C   UNL     1     -36.038  21.763   2.981  0.00  0.00    +0.012 C 
BRANCH  13  14
ATOM     14  C   UNL     1     -37.323  22.301   2.367  0.00  0.00    +0.170 C 
BRANCH  14  15
ATOM     15  O   UNL     1     -37.144  23.676   2.055  0.00  0.00    -0.242 OA
BRANCH  15  16
ATOM     16  S   UNL     1     -38.335  24.726   2.432  0.00  0.00    -0.005 S 
ATOM     17  O   UNL     1     -38.789  24.475   3.785  0.00  0.00    -0.072 OA
ATOM     18  O   UNL     1     -39.258  24.829   1.320  0.00  0.00    -0.072 OA
ATOM     19  C   UNL     1     -37.326  26.186   2.450  0.00  0.00    +0.181 C 
ENDBRANCH  15  16
ENDBRANCH  14  15
ENDBRANCH  13  14
ENDBRANCH  12  13
ENDBRANCH   1  12
TORSDOF 10
ENDMDL
MODEL 2
REMARK VINA RESULT:      -4.2      3.271      7.151
REMARK  Name = 198161
REMARK  10 active torsions:
REMARK  status: ('A' for Active; 'I' for Inactive)
REMARK    1  A    between atoms: N_1  and  C_4
REMARK    2  A    between atoms: N_1  and  C_12
REMARK    3  A    between atoms: C_4  and  C_5
REMARK    4  A    between atoms: C_5  and  C_6
REMARK    5  A    between atoms: C_6  and  O_7
REMARK    6  A    between atoms: O_7  and  S_8
REMARK    7  A    between atoms: C_12  and  C_13
REMARK    8  A    between atoms: C_13  and  C_14
REMARK    9  A    between atoms: C_14  and  O_15
REMARK   10  A    between atoms: O_15  and  S_16
REMARK                            x       y       z     vdW  Elec       q    Type
REMARK                         _______ _______ _______ _____ _____    ______ ____
ROOT
ATOM      1  N   UNL     1     -37.720  25.736   3.761  0.00  0.00    +0.386 N 
ATOM      2  C   UNL     1     -37.088  26.387   2.612  0.00  0.00    -0.101 C 
ATOM      3  H   UNL     1     -38.137  26.455   4.352  0.00  0.00    -0.080 HD
ENDROOT
BRANCH   1   4
ATOM      4  C   UNL     1     -38.779  24.830   3.312  0.00  0.00    -0.075 C 
BRANCH   4   5
ATOM      5  C   UNL     1     -39.819  25.594   2.500  0.00  0.00    +0.012 C 
BRANCH   5   6
ATOM      6  C   UNL     1     -41.001  26.014   3.362  0.00  0.00    +0.170 C 
BRANCH   6   7
ATOM      7  O   UNL     1     -41.239  27.402   3.174  0.00  0.00    -0.242 OA
BRANCH   7   8
ATOM      8  S   UNL     1     -42.555  28.075   3.867  0.00  0.00    -0.005 S 
ATOM      9  O   UNL     1     -42.136  29.092   4.809  0.00  0.00    -0.072 OA
ATOM     10  O   UNL     1     -43.493  27.031   4.230  0.00  0.00    -0.072 OA
ATOM     11  C   UNL     1     -43.165  28.885   2.411  0.00  0.00    +0.181 C 
ENDBRANCH   7   8
ENDBRANCH   6   7
ENDBRANCH   5   6
ENDBRANCH   4   5
ENDBRANCH   1   4
BRANCH   1  12
ATOM     12  C   UNL     1     -36.729  25.016   4.551  0.00  0.00    -0.075 C 
BRANCH  12  13
ATOM     13  C   UNL     1     -36.014  25.971   5.502  0.00  0.00    +0.012 C 
BRANCH  13  14
ATOM     14  C   UNL     1     -34.534  25.636   5.623  0.00  0.00    +0.170 C 
BRANCH  14  15
ATOM     15  O   UNL     1     -33.792  26.846   5.685  0.00  0.00    -0.242 OA
BRANCH  15  16
ATOM     16  S   UNL     1     -33.138  27.436   4.310  0.00  0.00    -0.005 S 
ATOM     17  O   UNL     1     -34.102  28.288   3.645  0.00  0.00    -0.072 OA
ATOM     18  O   UNL     1     -32.442  26.373   3.613  0.00  0.00    -0.072 OA
ATOM     19  C   UNL     1     -31.925  28.474   5.087  0.00  0.00    +0.181 C 
ENDBRANCH  15  16
ENDBRANCH  14  15
ENDBRANCH  13  14
ENDBRANCH  12  13
ENDBRANCH   1  12
TORSDOF 10
ENDMDL
MODEL 3
REMARK VINA RESULT:      -4.2      2.249      6.253
REMARK  Name = 198161
REMARK  10 active torsions:
REMARK  status: ('A' for Active; 'I' for Inactive)
REMARK    1  A    between atoms: N_1  and  C_4
REMARK    2  A    between atoms: N_1  and  C_12
REMARK    3  A    between atoms: C_4  and  C_5
REMARK    4  A    between atoms: C_5  and  C_6
REMARK    5  A    between atoms: C_6  and  O_7
REMARK    6  A    between atoms: O_7  and  S_8
REMARK    7  A    between atoms: C_12  and  C_13
REMARK    8  A    between atoms: C_13  and  C_14
REMARK    9  A    between atoms: C_14  and  O_15
REMARK   10  A    between atoms: O_15  and  S_16
REMARK                            x       y       z     vdW  Elec       q    Type
REMARK                         _______ _______ _______ _____ _____    ______ ____
ROOT
ATOM      1  N   UNL     1     -35.424  26.366   4.340  0.00  0.00    +0.386 N 
ATOM      2  C   UNL     1     -36.290  26.286   3.162  0.00  0.00    -0.101 C 
ATOM      3  H   UNL     1     -35.393  27.336   4.653  0.00  0.00    -0.080 HD
ENDROOT
BRANCH   1   4
ATOM      4  C   UNL     1     -35.965  25.543   5.424  0.00  0.00    -0.075 C 
BRANCH   4   5
ATOM      5  C   UNL     1     -34.974  24.448   5.801  0.00  0.00    +0.012 C 
BRANCH   5   6
ATOM      6  C   UNL     1     -35.596  23.064   5.675  0.00  0.00    +0.170 C 
BRANCH   6   7
ATOM      7  O   UNL     1     -36.389  23.022   4.497  0.00  0.00    -0.242 OA
BRANCH   7   8
ATOM      8  S   UNL     1     -35.834  22.187   3.208  0.00  0.00    -0.005 S 
ATOM      9  O   UNL     1     -35.466  20.849   3.622  0.00  0.00    -0.072 OA
ATOM     10  O   UNL     1     -34.938  23.029   2.441  0.00  0.00    -0.072 OA
ATOM     11  C   UNL     1     -37.380  22.092   2.342  0.00  0.00    +0.181 C 
ENDBRANCH   7   8
ENDBRANCH   6   7
ENDBRANCH   5   6
ENDBRANCH   4   5
ENDBRANCH   1   4
BRANCH   1  12
ATOM     12  C   UNL     1     -34.067  25.951   4.008  0.00  0.00    -0.075 C 
BRANCH  12  13
ATOM     13  C   UNL     1     -33.570  26.702   2.777  0.00  0.00    +0.012 C 
BRANCH  13  14
ATOM     14  C   UNL     1     -32.637  27.844   3.156  0.00  0.00    +0.170 C 
BRANCH  14  15
ATOM     15  O   UNL     1     -33.064  28.393   4.395  0.00  0.00    -0.242 OA
BRANCH  15  16
ATOM     16  S   UNL     1     -31.963  28.591   5.585  0.00  0.00    -0.005 S 
ATOM     17  O   UNL     1     -31.814  27.347   6.314  0.00  0.00    -0.072 OA
ATOM     18  O   UNL     1     -32.201  29.852   6.258  0.00  0.00    -0.072 OA
ATOM     19  C   UNL     1     -30.549  28.785   4.529  0.00  0.00    +0.181 C 
ENDBRANCH  15  16
ENDBRANCH  14  15
ENDBRANCH  13  14
ENDBRANCH  12  13
ENDBRANCH   1  12
TORSDOF 10
ENDMDL
MODEL 4
REMARK VINA RESULT:      -4.1      1.777      2.376
REMARK  Name = 198161
REMARK  10 active torsions:
REMARK  status: ('A' for Active; 'I' for Inactive)
REMARK    1  A    between atoms: N_1  and  C_4
REMARK    2  A    between atoms: N_1  and  C_12
REMARK    3  A    between atoms: C_4  and  C_5
REMARK    4  A    between atoms: C_5  and  C_6
REMARK    5  A    between atoms: C_6  and  O_7
REMARK    6  A    between atoms: O_7  and  S_8
REMARK    7  A    between atoms: C_12  and  C_13
REMARK    8  A    between atoms: C_13  and  C_14
REMARK    9  A    between atoms: C_14  and  O_15
REMARK   10  A    between atoms: O_15  and  S_16
REMARK                            x       y       z     vdW  Elec       q    Type
REMARK                         _______ _______ _______ _____ _____    ______ ____
ROOT
ATOM      1  N   UNL     1     -36.059  22.566   4.611  0.00  0.00    +0.386 N 
ATOM      2  C   UNL     1     -35.294  21.786   5.585  0.00  0.00    -0.101 C 
ATOM      3  H   UNL     1     -37.015  22.211   4.590  0.00  0.00    -0.080 HD
ENDROOT
BRANCH   1   4
ATOM      4  C   UNL     1     -36.095  23.976   5.007  0.00  0.00    -0.075 C 
BRANCH   4   5
ATOM      5  C   UNL     1     -34.678  24.522   5.148  0.00  0.00    +0.012 C 
BRANCH   5   6
ATOM      6  C   UNL     1     -34.679  25.942   5.695  0.00  0.00    +0.170 C 
BRANCH   6   7
ATOM      7  O   UNL     1     -34.565  26.854   4.611  0.00  0.00    -0.242 OA
BRANCH   7   8
ATOM      8  S   UNL     1     -33.106  27.510   4.288  0.00  0.00    -0.005 S 
ATOM      9  O   UNL     1     -32.296  26.551   3.564  0.00  0.00    -0.072 OA
ATOM     10  O   UNL     1     -32.615  28.195   5.467  0.00  0.00    -0.072 OA
ATOM     11  C   UNL     1     -33.678  28.732   3.136  0.00  0.00    +0.181 C 
ENDBRANCH   7   8
ENDBRANCH   6   7
ENDBRANCH   5   6
ENDBRANCH   4   5
ENDBRANCH   1   4
BRANCH   1  12
ATOM     12  C   UNL     1     -35.490  22.422   3.277  0.00  0.00    -0.075 C 
BRANCH  12  13
ATOM     13  C   UNL     1     -35.534  20.961   2.838  0.00  0.00    +0.012 C 
BRANCH  13  14
ATOM     14  C   UNL     1     -36.722  20.688   1.925  0.00  0.00    +0.170 C 
BRANCH  14  15
ATOM     15  O   UNL     1     -37.861  21.364   2.438  0.00  0.00    -0.242 OA
BRANCH  15  16
ATOM     16  S   UNL     1     -38.888  22.076   1.387  0.00  0.00    -0.005 S 
ATOM     17  O   UNL     1     -38.228  23.199   0.754  0.00  0.00    -0.072 OA
ATOM     18  O   UNL     1     -40.196  22.201   2.000  0.00  0.00    -0.072 OA
ATOM     19  C   UNL     1     -38.950  20.741   0.220  0.00  0.00    +0.181 C 
ENDBRANCH  15  16
ENDBRANCH  14  15
ENDBRANCH  13  14
ENDBRANCH  12  13
ENDBRANCH   1  12
TORSDOF 10
ENDMDL
MODEL 5
REMARK VINA RESULT:      -4.1      5.556      7.989
REMARK  Name = 198161
REMARK  10 active torsions:
REMARK  status: ('A' for Active; 'I' for Inactive)
REMARK    1  A    between atoms: N_1  and  C_4
REMARK    2  A    between atoms: N_1  and  C_12
REMARK    3  A    between atoms: C_4  and  C_5
REMARK    4  A    between atoms: C_5  and  C_6
REMARK    5  A    between atoms: C_6  and  O_7
REMARK    6  A    between atoms: O_7  and  S_8
REMARK    7  A    between atoms: C_12  and  C_13
REMARK    8  A    between atoms: C_13  and  C_14
REMARK    9  A    between atoms: C_14  and  O_15
REMARK   10  A    between atoms: O_15  and  S_16
REMARK                            x       y       z     vdW  Elec       q    Type
REMARK                         _______ _______ _______ _____ _____    ______ ____
ROOT
ATOM      1  N   UNL     1     -41.142  26.219   1.963  0.00  0.00    +0.386 N 
ATOM      2  C   UNL     1     -41.899  25.098   1.405  0.00  0.00    -0.101 C 
ATOM      3  H   UNL     1     -40.494  26.558   1.253  0.00  0.00    -0.080 HD
ENDROOT
BRANCH   1   4
ATOM      4  C   UNL     1     -42.048  27.311   2.327  0.00  0.00    -0.075 C 
BRANCH   4   5
ATOM      5  C   UNL     1     -42.107  27.468   3.842  0.00  0.00    +0.012 C 
BRANCH   5   6
ATOM      6  C   UNL     1     -43.177  28.467   4.259  0.00  0.00    +0.170 C 
BRANCH   6   7
ATOM      7  O   UNL     1     -42.628  29.355   5.222  0.00  0.00    -0.242 OA
BRANCH   7   8
ATOM      8  S   UNL     1     -43.640  30.307   6.080  0.00  0.00    -0.005 S 
ATOM      9  O   UNL     1     -43.750  31.599   5.434  0.00  0.00    -0.072 OA
ATOM     10  O   UNL     1     -43.341  30.176   7.492  0.00  0.00    -0.072 OA
ATOM     11  C   UNL     1     -45.122  29.391   5.741  0.00  0.00    +0.181 C 
ENDBRANCH   7   8
ENDBRANCH   6   7
ENDBRANCH   5   6
ENDBRANCH   4   5
ENDBRANCH   1   4
BRANCH   1  12
ATOM     12  C   UNL     1     -40.367  25.789   3.120  0.00  0.00    -0.075 C 
BRANCH  12  13
ATOM     13  C   UNL     1     -39.165  24.961   2.674  0.00  0.00    +0.012 C 
BRANCH  13  14
ATOM     14  C   UNL     1     -37.927  25.284   3.499  0.00  0.00    +0.170 C 
BRANCH  14  15
ATOM     15  O   UNL     1     -37.450  24.087   4.099  0.00  0.00    -0.242 OA
BRANCH  15  16
ATOM     16  S   UNL     1     -35.967  24.090   4.782  0.00  0.00    -0.005 S 
ATOM     17  O   UNL     1     -34.958  24.063   3.742  0.00  0.00    -0.072 OA
ATOM     18  O   UNL     1     -35.947  23.164   5.896  0.00  0.00    -0.072 OA
ATOM     19  C   UNL     1     -36.043  25.739   5.434  0.00  0.00    +0.181 C 
ENDBRANCH  15  16
ENDBRANCH  14  15
ENDBRANCH  13  14
ENDBRANCH  12  13
ENDBRANCH   1  12
TORSDOF 10
ENDMDL
MODEL 6
REMARK VINA RESULT:      -4.0      3.796      4.851
REMARK  Name = 198161
REMARK  10 active torsions:
REMARK  status: ('A' for Active; 'I' for Inactive)
REMARK    1  A    between atoms: N_1  and  C_4
REMARK    2  A    between atoms: N_1  and  C_12
REMARK    3  A    between atoms: C_4  and  C_5
REMARK    4  A    between atoms: C_5  and  C_6
REMARK    5  A    between atoms: C_6  and  O_7
REMARK    6  A    between atoms: O_7  and  S_8
REMARK    7  A    between atoms: C_12  and  C_13
REMARK    8  A    between atoms: C_13  and  C_14
REMARK    9  A    between atoms: C_14  and  O_15
REMARK   10  A    between atoms: O_15  and  S_16
REMARK                            x       y       z     vdW  Elec       q    Type
REMARK                         _______ _______ _______ _____ _____    ______ ____
ROOT
ATOM      1  N   UNL     1     -35.391  23.326   3.184  0.00  0.00    +0.386 N 
ATOM      2  C   UNL     1     -35.486  23.970   1.874  0.00  0.00    -0.101 C 
ATOM      3  H   UNL     1     -34.493  23.571   3.602  0.00  0.00    -0.080 HD
ENDROOT
BRANCH   1   4
ATOM      4  C   UNL     1     -36.459  23.805   4.063  0.00  0.00    -0.075 C 
BRANCH   4   5
ATOM      5  C   UNL     1     -35.874  24.330   5.370  0.00  0.00    +0.012 C 
BRANCH   5   6
ATOM      6  C   UNL     1     -36.008  25.843   5.472  0.00  0.00    +0.170 C 
BRANCH   6   7
ATOM      7  O   UNL     1     -35.350  26.440   4.364  0.00  0.00    -0.242 OA
BRANCH   7   8
ATOM      8  S   UNL     1     -33.733  26.656   4.434  0.00  0.00    -0.005 S 
ATOM      9  O   UNL     1     -33.070  25.533   3.805  0.00  0.00    -0.072 OA
ATOM     10  O   UNL     1     -33.368  27.122   5.757  0.00  0.00    -0.072 OA
ATOM     11  C   UNL     1     -33.660  28.036   3.322  0.00  0.00    +0.181 C 
ENDBRANCH   7   8
ENDBRANCH   6   7
ENDBRANCH   5   6
ENDBRANCH   4   5
ENDBRANCH   1   4
BRANCH   1  12
ATOM     12  C   UNL     1     -35.449  21.876   3.048  0.00  0.00    -0.075 C 
BRANCH  12  13
ATOM     13  C   UNL     1     -35.265  21.473   1.588  0.00  0.00    +0.012 C 
BRANCH  13  14
ATOM     14  C   UNL     1     -35.225  19.960   1.426  0.00  0.00    +0.170 C 
BRANCH  14  15
ATOM     15  O   UNL     1     -34.036  19.464   2.027  0.00  0.00    -0.242 OA
BRANCH  15  16
ATOM     16  S   UNL     1     -32.845  18.904   1.061  0.00  0.00    -0.005 S 
ATOM     17  O   UNL     1     -32.189  17.784   1.706  0.00  0.00    -0.072 OA
ATOM     18  O   UNL     1     -32.100  20.021   0.516  0.00  0.00    -0.072 OA
ATOM     19  C   UNL     1     -33.898  18.265  -0.217  0.00  0.00    +0.181 C 
ENDBRANCH  15  16
ENDBRANCH  14  15
ENDBRANCH  13  14
ENDBRANCH  12  13
ENDBRANCH   1  12
TORSDOF 10
ENDMDL
MODEL 7
REMARK VINA RESULT:      -4.0      3.331      7.847
REMARK  Name = 198161
REMARK  10 active torsions:
REMARK  status: ('A' for Active; 'I' for Inactive)
REMARK    1  A    between atoms: N_1  and  C_4
REMARK    2  A    between atoms: N_1  and  C_12
REMARK    3  A    between atoms: C_4  and  C_5
REMARK    4  A    between atoms: C_5  and  C_6
REMARK    5  A    between atoms: C_6  and  O_7
REMARK    6  A    between atoms: O_7  and  S_8
REMARK    7  A    between atoms: C_12  and  C_13
REMARK    8  A    between atoms: C_13  and  C_14
REMARK    9  A    between atoms: C_14  and  O_15
REMARK   10  A    between atoms: O_15  and  S_16
REMARK                            x       y       z     vdW  Elec       q    Type
REMARK                         _______ _______ _______ _____ _____    ______ ____
ROOT
ATOM      1  N   UNL     1     -33.560  27.787   4.426  0.00  0.00    +0.386 N 
ATOM      2  C   UNL     1     -34.079  28.374   3.189  0.00  0.00    -0.101 C 
ATOM      3  H   UNL     1     -34.082  28.173   5.212  0.00  0.00    -0.080 HD
ENDROOT
BRANCH   1   4
ATOM      4  C   UNL     1     -33.743  26.334   4.413  0.00  0.00    -0.075 C 
BRANCH   4   5
ATOM      5  C   UNL     1     -34.457  25.880   5.681  0.00  0.00    +0.012 C 
BRANCH   5   6
ATOM      6  C   UNL     1     -35.955  25.726   5.453  0.00  0.00    +0.170 C 
BRANCH   6   7
ATOM      7  O   UNL     1     -36.169  25.152   4.171  0.00  0.00    -0.242 OA
BRANCH   7   8
ATOM      8  S   UNL     1     -36.083  23.530   4.013  0.00  0.00    -0.005 S 
ATOM      9  O   UNL     1     -36.310  22.908   5.301  0.00  0.00    -0.072 OA
ATOM     10  O   UNL     1     -34.944  23.187   3.185  0.00  0.00    -0.072 OA
ATOM     11  C   UNL     1     -37.553  23.338   3.038  0.00  0.00    +0.181 C 
ENDBRANCH   7   8
ENDBRANCH   6   7
ENDBRANCH   5   6
ENDBRANCH   4   5
ENDBRANCH   1   4
BRANCH   1  12
ATOM     12  C   UNL     1     -32.153  28.126   4.603  0.00  0.00    -0.075 C 
BRANCH  12  13
ATOM     13  C   UNL     1     -31.866  28.442   6.068  0.00  0.00    +0.012 C 
BRANCH  13  14
ATOM     14  C   UNL     1     -30.406  28.816   6.284  0.00  0.00    +0.170 C 
BRANCH  14  15
ATOM     15  O   UNL     1     -29.637  27.626   6.386  0.00  0.00    -0.242 OA
BRANCH  15  16
ATOM     16  S   UNL     1     -28.077  27.657   5.905  0.00  0.00    -0.005 S 
ATOM     17  O   UNL     1     -27.749  28.982   5.420  0.00  0.00    -0.072 OA
ATOM     18  O   UNL     1     -27.785  26.464   5.137  0.00  0.00    -0.072 OA
ATOM     19  C   UNL     1     -27.360  27.465   7.518  0.00  0.00    +0.181 C 
ENDBRANCH  15  16
ENDBRANCH  14  15
ENDBRANCH  13  14
ENDBRANCH  12  13
ENDBRANCH   1  12
TORSDOF 10
ENDMDL
MODEL 8
REMARK VINA RESULT:      -4.0      3.519      6.466
REMARK  Name = 198161
REMARK  10 active torsions:
REMARK  status: ('A' for Active; 'I' for Inactive)
REMARK    1  A    between atoms: N_1  and  C_4
REMARK    2  A    between atoms: N_1  and  C_12
REMARK    3  A    between atoms: C_4  and  C_5
REMARK    4  A    between atoms: C_5  and  C_6
REMARK    5  A    between atoms: C_6  and  O_7
REMARK    6  A    between atoms: O_7  and  S_8
REMARK    7  A    between atoms: C_12  and  C_13
REMARK    8  A    between atoms: C_13  and  C_14
REMARK    9  A    between atoms: C_14  and  O_15
REMARK   10  A    between atoms: O_15  and  S_16
REMARK                            x       y       z     vdW  Elec       q    Type
REMARK                         _______ _______ _______ _____ _____    ______ ____
ROOT
ATOM      1  N   UNL     1     -36.391  22.749   4.558  0.00  0.00    +0.386 N 
ATOM      2  C   UNL     1     -36.767  23.607   3.433  0.00  0.00    -0.101 C 
ATOM      3  H   UNL     1     -37.243  22.390   4.990  0.00  0.00    -0.080 HD
ENDROOT
BRANCH   1   4
ATOM      4  C   UNL     1     -35.595  21.614   4.086  0.00  0.00    -0.075 C 
BRANCH   4   5
ATOM      5  C   UNL     1     -35.552  21.596   2.562  0.00  0.00    +0.012 C 
BRANCH   5   6
ATOM      6  C   UNL     1     -35.511  20.172   2.022  0.00  0.00    +0.170 C 
BRANCH   6   7
ATOM      7  O   UNL     1     -34.242  19.605   2.316  0.00  0.00    -0.242 OA
BRANCH   7   8
ATOM      8  S   UNL     1     -33.452  18.795   1.138  0.00  0.00    -0.005 S 
ATOM      9  O   UNL     1     -34.409  18.300   0.170  0.00  0.00    -0.072 OA
ATOM     10  O   UNL     1     -32.448  17.938   1.735  0.00  0.00    -0.072 OA
ATOM     11  C   UNL     1     -32.631  20.202   0.434  0.00  0.00    +0.181 C 
ENDBRANCH   7   8
ENDBRANCH   6   7
ENDBRANCH   5   6
ENDBRANCH   4   5
ENDBRANCH   1   4
BRANCH   1  12
ATOM     12  C   UNL     1     -35.657  23.510   5.561  0.00  0.00    -0.075 C 
BRANCH  12  13
ATOM     13  C   UNL     1     -34.481  24.237   4.917  0.00  0.00    +0.012 C 
BRANCH  13  14
ATOM     14  C   UNL     1     -34.327  25.648   5.468  0.00  0.00    +0.170 C 
BRANCH  14  15
ATOM     15  O   UNL     1     -33.172  26.243   4.892  0.00  0.00    -0.242 OA
BRANCH  15  16
ATOM     16  S   UNL     1     -33.368  27.482   3.847  0.00  0.00    -0.005 S 
ATOM     17  O   UNL     1     -33.285  28.737   4.568  0.00  0.00    -0.072 OA
ATOM     18  O   UNL     1     -34.464  27.185   2.946  0.00  0.00    -0.072 OA
ATOM     19  C   UNL     1     -31.847  27.251   2.963  0.00  0.00    +0.181 C 
ENDBRANCH  15  16
ENDBRANCH  14  15
ENDBRANCH  13  14
ENDBRANCH  12  13
ENDBRANCH   1  12
TORSDOF 10
ENDMDL
MODEL 9
REMARK VINA RESULT:      -3.9      4.185      6.708
REMARK  Name = 198161
REMARK  10 active torsions:
REMARK  status: ('A' for Active; 'I' for Inactive)
REMARK    1  A    between atoms: N_1  and  C_4
REMARK    2  A    between atoms: N_1  and  C_12
REMARK    3  A    between atoms: C_4  and  C_5
REMARK    4  A    between atoms: C_5  and  C_6
REMARK    5  A    between atoms: C_6  and  O_7
REMARK    6  A    between atoms: O_7  and  S_8
REMARK    7  A    between atoms: C_12  and  C_13
REMARK    8  A    between atoms: C_13  and  C_14
REMARK    9  A    between atoms: C_14  and  O_15
REMARK   10  A    between atoms: O_15  and  S_16
REMARK                            x       y       z     vdW  Elec       q    Type
REMARK                         _______ _______ _______ _____ _____    ______ ____
ROOT
ATOM      1  N   UNL     1     -36.884  21.722   2.910  0.00  0.00    +0.386 N 
ATOM      2  C   UNL     1     -37.426  22.062   1.593  0.00  0.00    -0.101 C 
ATOM      3  H   UNL     1     -37.584  21.183   3.419  0.00  0.00    -0.080 HD
ENDROOT
BRANCH   1   4
ATOM      4  C   UNL     1     -35.678  20.904   2.767  0.00  0.00    -0.075 C 
BRANCH   4   5
ATOM      5  C   UNL     1     -35.821  19.954   1.583  0.00  0.00    +0.012 C 
BRANCH   5   6
ATOM      6  C   UNL     1     -34.530  19.864   0.782  0.00  0.00    +0.170 C 
BRANCH   6   7
ATOM      7  O   UNL     1     -33.518  19.295   1.600  0.00  0.00    -0.242 OA
BRANCH   7   8
ATOM      8  S   UNL     1     -32.205  18.641   0.884  0.00  0.00    -0.005 S 
ATOM      9  O   UNL     1     -31.652  17.611   1.740  0.00  0.00    -0.072 OA
ATOM     10  O   UNL     1     -31.385  19.697   0.326  0.00  0.00    -0.072 OA
ATOM     11  C   UNL     1     -33.068  17.848  -0.448  0.00  0.00    +0.181 C 
ENDBRANCH   7   8
ENDBRANCH   6   7
ENDBRANCH   5   6
ENDBRANCH   4   5
ENDBRANCH   1   4
BRANCH   1  12
ATOM     12  C   UNL     1     -36.598  22.931   3.673  0.00  0.00    -0.075 C 
BRANCH  12  13
ATOM     13  C   UNL     1     -35.557  22.642   4.751  0.00  0.00    +0.012 C 
BRANCH  13  14
ATOM     14  C   UNL     1     -35.245  23.884   5.575  0.00  0.00    +0.170 C 
BRANCH  14  15
ATOM     15  O   UNL     1     -34.084  24.508   5.045  0.00  0.00    -0.242 OA
BRANCH  15  16
ATOM     16  S   UNL     1     -34.046  26.137   4.947  0.00  0.00    -0.005 S 
ATOM     17  O   UNL     1     -32.963  26.643   5.765  0.00  0.00    -0.072 OA
ATOM     18  O   UNL     1     -35.394  26.658   5.048  0.00  0.00    -0.072 OA
ATOM     19  C   UNL     1     -33.543  26.230   3.247  0.00  0.00    +0.181 C 
ENDBRANCH  15  16
ENDBRANCH  14  15
ENDBRANCH  13  14
ENDBRANCH  12  13
ENDBRANCH   1  12
TORSDOF 10
ENDMDL
