MODEL 1
REMARK VINA RESULT:      -6.1      0.000      0.000
REMARK  Name = 5311230
REMARK  17 active torsions:
REMARK  status: ('A' for Active; 'I' for Inactive)
REMARK    1  A    between atoms: C_2  and  C_9
REMARK    2  A    between atoms: C_3  and  O_7
REMARK    3  A    between atoms: C_4  and  S_25
REMARK    4  A    between atoms: C_10  and  C_11
REMARK    5  A    between atoms: C_11  and  O_12
REMARK    6  A    between atoms: C_11  and  C_14
REMARK    7  A    between atoms: C_14  and  C_15
REMARK    8  A    between atoms: C_15  and  C_16
REMARK    9  A    between atoms: C_17  and  C_22
REMARK   10  A    between atoms: C_22  and  O_23
REMARK   11  A    between atoms: S_25  and  C_26
REMARK   12  A    between atoms: C_26  and  C_27
REMARK   13  A    between atoms: C_27  and  C_28
REMARK   14  A    between atoms: C_28  and  S_29
REMARK   15  A    between atoms: S_29  and  C_30
REMARK   16  A    between atoms: C_30  and  C_32
REMARK   17  A    between atoms: C_32  and  O_33
REMARK                            x       y       z     vdW  Elec       q    Type
REMARK                         _______ _______ _______ _____ _____    ______ ____
ROOT
ATOM      1  O   UNL     1     -32.945  25.839   3.699  0.00  0.00    -0.295 OA
ATOM      2  C   UNL     1     -36.130  24.223   3.827  0.00  0.00    +0.066 C 
ATOM      3  C   UNL     1     -35.948  24.765   5.252  0.00  0.00    +0.123 C 
ATOM      4  C   UNL     1     -35.085  24.966   2.972  0.00  0.00    +0.111 C 
ATOM      5  C   UNL     1     -34.459  25.063   5.406  0.00  0.00    +0.095 C 
ATOM      6  C   UNL     1     -34.033  25.353   3.988  0.00  0.00    +0.163 C 
ENDROOT
BRANCH   3   7
ATOM      7  O   UNL     1     -36.707  25.958   5.430  0.00  0.00    -0.384 OA
ATOM      8  H   UNL     1     -36.942  26.055   6.366  0.00  0.00    +0.210 HD
ENDBRANCH   3   7
BRANCH   2   9
ATOM      9  C   UNL     1     -35.904  22.738   3.793  0.00  0.00    -0.025 C 
ATOM     10  C   UNL     1     -35.788  22.026   2.663  0.00  0.00    -0.002 C 
BRANCH  10  11
ATOM     11  C   UNL     1     -35.562  20.540   2.635  0.00  0.00    +0.132 C 
BRANCH  11  12
ATOM     12  O   UNL     1     -36.817  19.885   2.817  0.00  0.00    -0.380 OA
ATOM     13  H   UNL     1     -37.343  20.373   3.469  0.00  0.00    +0.211 HD
ENDBRANCH  11  12
BRANCH  11  14
ATOM     14  C   UNL     1     -34.962  20.105   1.290  0.00  0.00    +0.038 C 
BRANCH  14  15
ATOM     15  C   UNL     1     -33.627  19.356   1.416  0.00  0.00    +0.029 C 
BRANCH  15  16
ATOM     16  C   UNL     1     -32.521  19.937   0.571  0.00  0.00    -0.024 C 
ATOM     17  C   UNL     1     -31.348  19.221   0.333  0.00  0.00    +0.003 C 
ATOM     18  C   UNL     1     -32.684  21.209   0.023  0.00  0.00    -0.004 C 
ATOM     19  C   UNL     1     -30.338  19.777  -0.453  0.00  0.00    -0.002 C 
ATOM     20  C   UNL     1     -31.675  21.765  -0.763  0.00  0.00    -0.000 C 
ATOM     21  C   UNL     1     -30.501  21.049  -1.001  0.00  0.00    -0.000 C 
BRANCH  17  22
ATOM     22  C   UNL     1     -31.150  17.857   0.910  0.00  0.00    +0.168 C 
BRANCH  22  23
ATOM     23  O   UNL     1     -31.494  16.881  -0.064  0.00  0.00    -0.346 OA
ATOM     24  C   UNL     1     -30.466  15.913  -0.218  0.00  0.00    +0.175 C 
ENDBRANCH  22  23
ENDBRANCH  17  22
ENDBRANCH  15  16
ENDBRANCH  14  15
ENDBRANCH  11  14
ENDBRANCH  10  11
ENDBRANCH   2   9
BRANCH   4  25
ATOM     25  S   UNL     1     -35.736  26.485   2.218  0.00  0.00    -0.133 S 
BRANCH  25  26
ATOM     26  C   UNL     1     -37.486  26.032   2.169  0.00  0.00    +0.059 C 
BRANCH  26  27
ATOM     27  C   UNL     1     -37.909  25.682   0.744  0.00  0.00    +0.023 C 
BRANCH  27  28
ATOM     28  C   UNL     1     -39.397  25.337   0.696  0.00  0.00    +0.059 C 
BRANCH  28  29
ATOM     29  S   UNL     1     -39.777  23.971   1.830  0.00  0.00    -0.129 S 
BRANCH  29  30
ATOM     30  C   UNL     1     -38.918  22.649   0.947  0.00  0.00    +0.167 C 
BRANCH  30  32
ATOM     31  O   UNL     1     -40.425  21.191   2.134  0.00  0.00    -0.249 OA
ATOM     32  C   UNL     1     -39.515  21.325   1.326  0.00  0.00    +0.325 C 
BRANCH  32  33
ATOM     33  O   UNL     1     -38.948  20.285   0.663  0.00  0.00    -0.480 OA
ATOM     34  H   UNL     1     -38.746  20.365  -0.248  0.00  0.00    +0.295 HD
ENDBRANCH  32  33
ENDBRANCH  30  32
ENDBRANCH  29  30
ENDBRANCH  28  29
ENDBRANCH  27  28
ENDBRANCH  26  27
ENDBRANCH  25  26
ENDBRANCH   4  25
TORSDOF 17
ENDMDL
MODEL 2
REMARK VINA RESULT:      -5.9      1.671      2.739
REMARK  Name = 5311230
REMARK  17 active torsions:
REMARK  status: ('A' for Active; 'I' for Inactive)
REMARK    1  A    between atoms: C_2  and  C_9
REMARK    2  A    between atoms: C_3  and  O_7
REMARK    3  A    between atoms: C_4  and  S_25
REMARK    4  A    between atoms: C_10  and  C_11
REMARK    5  A    between atoms: C_11  and  O_12
REMARK    6  A    between atoms: C_11  and  C_14
REMARK    7  A    between atoms: C_14  and  C_15
REMARK    8  A    between atoms: C_15  and  C_16
REMARK    9  A    between atoms: C_17  and  C_22
REMARK   10  A    between atoms: C_22  and  O_23
REMARK   11  A    between atoms: S_25  and  C_26
REMARK   12  A    between atoms: C_26  and  C_27
REMARK   13  A    between atoms: C_27  and  C_28
REMARK   14  A    between atoms: C_28  and  S_29
REMARK   15  A    between atoms: S_29  and  C_30
REMARK   16  A    between atoms: C_30  and  C_32
REMARK   17  A    between atoms: C_32  and  O_33
REMARK                            x       y       z     vdW  Elec       q    Type
REMARK                         _______ _______ _______ _____ _____    ______ ____
ROOT
ATOM      1  O   UNL     1     -33.121  26.669   3.470  0.00  0.00    -0.295 OA
ATOM      2  C   UNL     1     -36.126  24.853   4.136  0.00  0.00    +0.066 C 
ATOM      3  C   UNL     1     -35.839  25.568   5.465  0.00  0.00    +0.123 C 
ATOM      4  C   UNL     1     -35.245  25.567   3.092  0.00  0.00    +0.111 C 
ATOM      5  C   UNL     1     -34.373  25.988   5.413  0.00  0.00    +0.095 C 
ATOM      6  C   UNL     1     -34.127  26.143   3.933  0.00  0.00    +0.163 C 
ENDROOT
BRANCH   3   7
ATOM      7  O   UNL     1     -36.673  26.715   5.602  0.00  0.00    -0.384 OA
ATOM      8  H   UNL     1     -36.155  27.450   5.965  0.00  0.00    +0.210 HD
ENDBRANCH   3   7
BRANCH   2   9
ATOM      9  C   UNL     1     -35.780  23.395   4.234  0.00  0.00    -0.025 C 
ATOM     10  C   UNL     1     -35.573  22.603   3.172  0.00  0.00    -0.002 C 
BRANCH  10  11
ATOM     11  C   UNL     1     -35.228  21.143   3.276  0.00  0.00    +0.132 C 
BRANCH  11  12
ATOM     12  O   UNL     1     -35.443  20.719   4.622  0.00  0.00    -0.380 OA
ATOM     13  H   UNL     1     -36.269  20.213   4.672  0.00  0.00    +0.211 HD
ENDBRANCH  11  12
BRANCH  11  14
ATOM     14  C   UNL     1     -36.111  20.306   2.339  0.00  0.00    +0.038 C 
BRANCH  14  15
ATOM     15  C   UNL     1     -35.624  20.280   0.883  0.00  0.00    +0.029 C 
BRANCH  15  16
ATOM     16  C   UNL     1     -34.163  19.933   0.737  0.00  0.00    -0.024 C 
ATOM     17  C   UNL     1     -33.266  20.833   0.159  0.00  0.00    +0.003 C 
ATOM     18  C   UNL     1     -33.713  18.693   1.189  0.00  0.00    -0.004 C 
ATOM     19  C   UNL     1     -31.919  20.492   0.035  0.00  0.00    -0.002 C 
ATOM     20  C   UNL     1     -32.366  18.352   1.064  0.00  0.00    -0.000 C 
ATOM     21  C   UNL     1     -31.469  19.252   0.486  0.00  0.00    -0.000 C 
BRANCH  17  22
ATOM     22  C   UNL     1     -33.725  22.166  -0.332  0.00  0.00    +0.168 C 
BRANCH  22  23
ATOM     23  O   UNL     1     -32.662  23.102  -0.215  0.00  0.00    -0.346 OA
ATOM     24  C   UNL     1     -33.116  24.345   0.303  0.00  0.00    +0.175 C 
ENDBRANCH  22  23
ENDBRANCH  17  22
ENDBRANCH  15  16
ENDBRANCH  14  15
ENDBRANCH  11  14
ENDBRANCH  10  11
ENDBRANCH   2   9
BRANCH   4  25
ATOM     25  S   UNL     1     -36.099  26.938   2.261  0.00  0.00    -0.133 S 
BRANCH  25  26
ATOM     26  C   UNL     1     -37.744  26.197   2.142  0.00  0.00    +0.059 C 
BRANCH  26  27
ATOM     27  C   UNL     1     -37.991  25.662   0.734  0.00  0.00    +0.023 C 
BRANCH  27  28
ATOM     28  C   UNL     1     -37.139  24.420   0.476  0.00  0.00    +0.059 C 
BRANCH  28  29
ATOM     29  S   UNL     1     -38.144  23.091  -0.247  0.00  0.00    -0.129 S 
BRANCH  29  30
ATOM     30  C   UNL     1     -39.205  22.758   1.177  0.00  0.00    +0.167 C 
BRANCH  30  32
ATOM     31  O   UNL     1     -39.314  20.522   0.287  0.00  0.00    -0.249 OA
ATOM     32  C   UNL     1     -39.598  21.310   1.180  0.00  0.00    +0.325 C 
BRANCH  32  33
ATOM     33  O   UNL     1     -40.294  20.958   2.291  0.00  0.00    -0.480 OA
ATOM     34  H   UNL     1     -40.029  20.213   2.793  0.00  0.00    +0.295 HD
ENDBRANCH  32  33
ENDBRANCH  30  32
ENDBRANCH  29  30
ENDBRANCH  28  29
ENDBRANCH  27  28
ENDBRANCH  26  27
ENDBRANCH  25  26
ENDBRANCH   4  25
TORSDOF 17
ENDMDL
MODEL 3
REMARK VINA RESULT:      -5.8      1.469      2.071
REMARK  Name = 5311230
REMARK  17 active torsions:
REMARK  status: ('A' for Active; 'I' for Inactive)
REMARK    1  A    between atoms: C_2  and  C_9
REMARK    2  A    between atoms: C_3  and  O_7
REMARK    3  A    between atoms: C_4  and  S_25
REMARK    4  A    between atoms: C_10  and  C_11
REMARK    5  A    between atoms: C_11  and  O_12
REMARK    6  A    between atoms: C_11  and  C_14
REMARK    7  A    between atoms: C_14  and  C_15
REMARK    8  A    between atoms: C_15  and  C_16
REMARK    9  A    between atoms: C_17  and  C_22
REMARK   10  A    between atoms: C_22  and  O_23
REMARK   11  A    between atoms: S_25  and  C_26
REMARK   12  A    between atoms: C_26  and  C_27
REMARK   13  A    between atoms: C_27  and  C_28
REMARK   14  A    between atoms: C_28  and  S_29
REMARK   15  A    between atoms: S_29  and  C_30
REMARK   16  A    between atoms: C_30  and  C_32
REMARK   17  A    between atoms: C_32  and  O_33
REMARK                            x       y       z     vdW  Elec       q    Type
REMARK                         _______ _______ _______ _____ _____    ______ ____
ROOT
ATOM      1  O   UNL     1     -33.002  25.605   3.471  0.00  0.00    -0.295 OA
ATOM      2  C   UNL     1     -36.202  24.071   3.893  0.00  0.00    +0.066 C 
ATOM      3  C   UNL     1     -35.864  24.585   5.300  0.00  0.00    +0.123 C 
ATOM      4  C   UNL     1     -35.227  24.801   2.948  0.00  0.00    +0.111 C 
ATOM      5  C   UNL     1     -34.360  24.841   5.309  0.00  0.00    +0.095 C 
ATOM      6  C   UNL     1     -34.069  25.143   3.860  0.00  0.00    +0.163 C 
ENDROOT
BRANCH   3   7
ATOM      7  O   UNL     1     -36.568  25.794   5.570  0.00  0.00    -0.384 OA
ATOM      8  H   UNL     1     -37.347  25.600   6.115  0.00  0.00    +0.210 HD
ENDBRANCH   3   7
BRANCH   2   9
ATOM      9  C   UNL     1     -36.021  22.582   3.816  0.00  0.00    -0.025 C 
ATOM     10  C   UNL     1     -35.722  21.923   2.687  0.00  0.00    -0.002 C 
BRANCH  10  11
ATOM     11  C   UNL     1     -35.544  20.432   2.615  0.00  0.00    +0.132 C 
BRANCH  11  12
ATOM     12  O   UNL     1     -36.827  19.815   2.703  0.00  0.00    -0.380 OA
ATOM     13  H   UNL     1     -37.127  19.567   1.815  0.00  0.00    +0.211 HD
ENDBRANCH  11  12
BRANCH  11  14
ATOM     14  C   UNL     1     -34.882  20.026   1.290  0.00  0.00    +0.038 C 
BRANCH  14  15
ATOM     15  C   UNL     1     -33.579  19.232   1.463  0.00  0.00    +0.029 C 
BRANCH  15  16
ATOM     16  C   UNL     1     -32.441  19.739   0.613  0.00  0.00    -0.024 C 
ATOM     17  C   UNL     1     -31.269  18.997   0.466  0.00  0.00    +0.003 C 
ATOM     18  C   UNL     1     -32.572  20.969  -0.030  0.00  0.00    -0.004 C 
ATOM     19  C   UNL     1     -30.229  19.485  -0.326  0.00  0.00    -0.002 C 
ATOM     20  C   UNL     1     -31.532  21.457  -0.821  0.00  0.00    -0.000 C 
ATOM     21  C   UNL     1     -30.360  20.715  -0.969  0.00  0.00    -0.000 C 
BRANCH  17  22
ATOM     22  C   UNL     1     -31.105  17.677   1.145  0.00  0.00    +0.168 C 
BRANCH  22  23
ATOM     23  O   UNL     1     -31.735  16.667   0.367  0.00  0.00    -0.346 OA
ATOM     24  C   UNL     1     -30.783  15.794  -0.224  0.00  0.00    +0.175 C 
ENDBRANCH  22  23
ENDBRANCH  17  22
ENDBRANCH  15  16
ENDBRANCH  14  15
ENDBRANCH  11  14
ENDBRANCH  10  11
ENDBRANCH   2   9
BRANCH   4  25
ATOM     25  S   UNL     1     -35.907  26.349   2.285  0.00  0.00    -0.133 S 
BRANCH  25  26
ATOM     26  C   UNL     1     -36.519  25.718   0.705  0.00  0.00    +0.059 C 
BRANCH  26  27
ATOM     27  C   UNL     1     -38.032  25.515   0.759  0.00  0.00    +0.023 C 
BRANCH  27  28
ATOM     28  C   UNL     1     -38.368  24.046   1.009  0.00  0.00    +0.059 C 
BRANCH  28  29
ATOM     29  S   UNL     1     -40.006  23.882   1.775  0.00  0.00    -0.129 S 
BRANCH  29  30
ATOM     30  C   UNL     1     -39.802  25.099   3.096  0.00  0.00    +0.167 C 
BRANCH  30  32
ATOM     31  O   UNL     1     -41.773  26.116   2.154  0.00  0.00    -0.249 OA
ATOM     32  C   UNL     1     -40.925  26.094   3.036  0.00  0.00    +0.325 C 
BRANCH  32  33
ATOM     33  O   UNL     1     -40.909  26.964   4.078  0.00  0.00    -0.480 OA
ATOM     34  H   UNL     1     -40.093  27.255   4.433  0.00  0.00    +0.295 HD
ENDBRANCH  32  33
ENDBRANCH  30  32
ENDBRANCH  29  30
ENDBRANCH  28  29
ENDBRANCH  27  28
ENDBRANCH  26  27
ENDBRANCH  25  26
ENDBRANCH   4  25
TORSDOF 17
ENDMDL
MODEL 4
REMARK VINA RESULT:      -5.8      1.726      2.357
REMARK  Name = 5311230
REMARK  17 active torsions:
REMARK  status: ('A' for Active; 'I' for Inactive)
REMARK    1  A    between atoms: C_2  and  C_9
REMARK    2  A    between atoms: C_3  and  O_7
REMARK    3  A    between atoms: C_4  and  S_25
REMARK    4  A    between atoms: C_10  and  C_11
REMARK    5  A    between atoms: C_11  and  O_12
REMARK    6  A    between atoms: C_11  and  C_14
REMARK    7  A    between atoms: C_14  and  C_15
REMARK    8  A    between atoms: C_15  and  C_16
REMARK    9  A    between atoms: C_17  and  C_22
REMARK   10  A    between atoms: C_22  and  O_23
REMARK   11  A    between atoms: S_25  and  C_26
REMARK   12  A    between atoms: C_26  and  C_27
REMARK   13  A    between atoms: C_27  and  C_28
REMARK   14  A    between atoms: C_28  and  S_29
REMARK   15  A    between atoms: S_29  and  C_30
REMARK   16  A    between atoms: C_30  and  C_32
REMARK   17  A    between atoms: C_32  and  O_33
REMARK                            x       y       z     vdW  Elec       q    Type
REMARK                         _______ _______ _______ _____ _____    ______ ____
ROOT
ATOM      1  O   UNL     1     -32.947  26.079   3.736  0.00  0.00    -0.295 OA
ATOM      2  C   UNL     1     -36.065  24.342   3.929  0.00  0.00    +0.066 C 
ATOM      3  C   UNL     1     -35.911  24.954   5.329  0.00  0.00    +0.123 C 
ATOM      4  C   UNL     1     -35.048  25.089   3.043  0.00  0.00    +0.111 C 
ATOM      5  C   UNL     1     -34.435  25.319   5.472  0.00  0.00    +0.095 C 
ATOM      6  C   UNL     1     -34.016  25.563   4.044  0.00  0.00    +0.163 C 
ENDROOT
BRANCH   3   7
ATOM      7  O   UNL     1     -36.718  26.122   5.453  0.00  0.00    -0.384 OA
ATOM      8  H   UNL     1     -37.654  25.873   5.417  0.00  0.00    +0.210 HD
ENDBRANCH   3   7
BRANCH   2   9
ATOM      9  C   UNL     1     -35.779  22.868   3.960  0.00  0.00    -0.025 C 
ATOM     10  C   UNL     1     -35.737  22.092   2.868  0.00  0.00    -0.002 C 
BRANCH  10  11
ATOM     11  C   UNL     1     -35.451  20.616   2.906  0.00  0.00    +0.132 C 
BRANCH  11  12
ATOM     12  O   UNL     1     -36.650  19.912   2.584  0.00  0.00    -0.380 OA
ATOM     13  H   UNL     1     -37.296  20.033   3.296  0.00  0.00    +0.211 HD
ENDBRANCH  11  12
BRANCH  11  14
ATOM     14  C   UNL     1     -34.364  20.246   1.887  0.00  0.00    +0.038 C 
BRANCH  14  15
ATOM     15  C   UNL     1     -34.748  19.084   0.960  0.00  0.00    +0.029 C 
BRANCH  15  16
ATOM     16  C   UNL     1     -33.608  18.143   0.659  0.00  0.00    -0.024 C 
ATOM     17  C   UNL     1     -33.837  16.911   0.045  0.00  0.00    +0.003 C 
ATOM     18  C   UNL     1     -32.311  18.520   1.003  0.00  0.00    -0.004 C 
ATOM     19  C   UNL     1     -32.767  16.058  -0.226  0.00  0.00    -0.002 C 
ATOM     20  C   UNL     1     -31.241  17.667   0.732  0.00  0.00    -0.000 C 
ATOM     21  C   UNL     1     -31.470  16.434   0.118  0.00  0.00    -0.000 C 
BRANCH  17  22
ATOM     22  C   UNL     1     -35.218  16.485  -0.332  0.00  0.00    +0.168 C 
BRANCH  22  23
ATOM     23  O   UNL     1     -35.328  15.075  -0.197  0.00  0.00    -0.346 OA
ATOM     24  C   UNL     1     -35.861  14.479  -1.371  0.00  0.00    +0.175 C 
ENDBRANCH  22  23
ENDBRANCH  17  22
ENDBRANCH  15  16
ENDBRANCH  14  15
ENDBRANCH  11  14
ENDBRANCH  10  11
ENDBRANCH   2   9
BRANCH   4  25
ATOM     25  S   UNL     1     -35.756  26.546   2.222  0.00  0.00    -0.133 S 
BRANCH  25  26
ATOM     26  C   UNL     1     -37.201  25.757   1.474  0.00  0.00    +0.059 C 
BRANCH  26  27
ATOM     27  C   UNL     1     -38.484  26.243   2.143  0.00  0.00    +0.023 C 
BRANCH  27  28
ATOM     28  C   UNL     1     -39.685  25.435   1.652  0.00  0.00    +0.059 C 
BRANCH  28  29
ATOM     29  S   UNL     1     -39.656  23.757   2.344  0.00  0.00    -0.129 S 
BRANCH  29  30
ATOM     30  C   UNL     1     -39.530  22.835   0.795  0.00  0.00    +0.167 C 
BRANCH  30  32
ATOM     31  O   UNL     1     -40.204  20.574   0.301  0.00  0.00    -0.249 OA
ATOM     32  C   UNL     1     -39.681  21.368   1.073  0.00  0.00    +0.325 C 
BRANCH  32  33
ATOM     33  O   UNL     1     -39.159  21.006   2.273  0.00  0.00    -0.480 OA
ATOM     34  H   UNL     1     -39.450  20.222   2.694  0.00  0.00    +0.295 HD
ENDBRANCH  32  33
ENDBRANCH  30  32
ENDBRANCH  29  30
ENDBRANCH  28  29
ENDBRANCH  27  28
ENDBRANCH  26  27
ENDBRANCH  25  26
ENDBRANCH   4  25
TORSDOF 17
ENDMDL
MODEL 5
REMARK VINA RESULT:      -5.7      1.392      2.401
REMARK  Name = 5311230
REMARK  17 active torsions:
REMARK  status: ('A' for Active; 'I' for Inactive)
REMARK    1  A    between atoms: C_2  and  C_9
REMARK    2  A    between atoms: C_3  and  O_7
REMARK    3  A    between atoms: C_4  and  S_25
REMARK    4  A    between atoms: C_10  and  C_11
REMARK    5  A    between atoms: C_11  and  O_12
REMARK    6  A    between atoms: C_11  and  C_14
REMARK    7  A    between atoms: C_14  and  C_15
REMARK    8  A    between atoms: C_15  and  C_16
REMARK    9  A    between atoms: C_17  and  C_22
REMARK   10  A    between atoms: C_22  and  O_23
REMARK   11  A    between atoms: S_25  and  C_26
REMARK   12  A    between atoms: C_26  and  C_27
REMARK   13  A    between atoms: C_27  and  C_28
REMARK   14  A    between atoms: C_28  and  S_29
REMARK   15  A    between atoms: S_29  and  C_30
REMARK   16  A    between atoms: C_30  and  C_32
REMARK   17  A    between atoms: C_32  and  O_33
REMARK                            x       y       z     vdW  Elec       q    Type
REMARK                         _______ _______ _______ _____ _____    ______ ____
ROOT
ATOM      1  O   UNL     1     -32.988  26.039   3.515  0.00  0.00    -0.295 OA
ATOM      2  C   UNL     1     -36.223  24.616   4.048  0.00  0.00    +0.066 C 
ATOM      3  C   UNL     1     -35.868  25.218   5.416  0.00  0.00    +0.123 C 
ATOM      4  C   UNL     1     -35.234  25.256   3.053  0.00  0.00    +0.111 C 
ATOM      5  C   UNL     1     -34.358  25.438   5.404  0.00  0.00    +0.095 C 
ATOM      6  C   UNL     1     -34.065  25.632   3.937  0.00  0.00    +0.163 C 
ENDROOT
BRANCH   3   7
ATOM      7  O   UNL     1     -36.542  26.460   5.602  0.00  0.00    -0.384 OA
ATOM      8  H   UNL     1     -36.746  26.579   6.542  0.00  0.00    +0.210 HD
ENDBRANCH   3   7
BRANCH   2   9
ATOM      9  C   UNL     1     -36.078  23.122   4.074  0.00  0.00    -0.025 C 
ATOM     10  C   UNL     1     -36.362  22.325   3.033  0.00  0.00    -0.002 C 
BRANCH  10  11
ATOM     11  C   UNL     1     -36.217  20.829   3.065  0.00  0.00    +0.132 C 
BRANCH  11  12
ATOM     12  O   UNL     1     -37.131  20.263   2.127  0.00  0.00    -0.380 OA
ATOM     13  H   UNL     1     -36.637  19.804   1.431  0.00  0.00    +0.211 HD
ENDBRANCH  11  12
BRANCH  11  14
ATOM     14  C   UNL     1     -34.788  20.413   2.686  0.00  0.00    +0.038 C 
BRANCH  14  15
ATOM     15  C   UNL     1     -34.679  19.745   1.307  0.00  0.00    +0.029 C 
BRANCH  15  16
ATOM     16  C   UNL     1     -33.263  19.429   0.895  0.00  0.00    -0.024 C 
ATOM     17  C   UNL     1     -32.595  20.217  -0.043  0.00  0.00    +0.003 C 
ATOM     18  C   UNL     1     -32.622  18.330   1.466  0.00  0.00    -0.004 C 
ATOM     19  C   UNL     1     -31.285  19.906  -0.408  0.00  0.00    -0.002 C 
ATOM     20  C   UNL     1     -31.312  18.019   1.100  0.00  0.00    -0.000 C 
ATOM     21  C   UNL     1     -30.643  18.807   0.163  0.00  0.00    -0.000 C 
BRANCH  17  22
ATOM     22  C   UNL     1     -33.261  21.398  -0.667  0.00  0.00    +0.168 C 
BRANCH  22  23
ATOM     23  O   UNL     1     -32.664  22.590  -0.175  0.00  0.00    -0.346 OA
ATOM     24  C   UNL     1     -33.634  23.471   0.375  0.00  0.00    +0.175 C 
ENDBRANCH  22  23
ENDBRANCH  17  22
ENDBRANCH  15  16
ENDBRANCH  14  15
ENDBRANCH  11  14
ENDBRANCH  10  11
ENDBRANCH   2   9
BRANCH   4  25
ATOM     25  S   UNL     1     -35.878  26.770   2.285  0.00  0.00    -0.133 S 
BRANCH  25  26
ATOM     26  C   UNL     1     -37.631  26.326   2.247  0.00  0.00    +0.059 C 
BRANCH  26  27
ATOM     27  C   UNL     1     -37.960  25.549   0.975  0.00  0.00    +0.023 C 
BRANCH  27  28
ATOM     28  C   UNL     1     -39.391  25.839   0.523  0.00  0.00    +0.059 C 
BRANCH  28  29
ATOM     29  S   UNL     1     -40.535  24.586   1.169  0.00  0.00    -0.129 S 
BRANCH  29  30
ATOM     30  C   UNL     1     -39.356  23.231   1.370  0.00  0.00    +0.167 C 
BRANCH  30  32
ATOM     31  O   UNL     1     -40.528  21.677  -0.050  0.00  0.00    -0.249 OA
ATOM     32  C   UNL     1     -40.028  21.931   1.038  0.00  0.00    +0.325 C 
BRANCH  32  33
ATOM     33  O   UNL     1     -40.011  21.053   2.074  0.00  0.00    -0.480 OA
ATOM     34  H   UNL     1     -39.247  20.535   2.235  0.00  0.00    +0.295 HD
ENDBRANCH  32  33
ENDBRANCH  30  32
ENDBRANCH  29  30
ENDBRANCH  28  29
ENDBRANCH  27  28
ENDBRANCH  26  27
ENDBRANCH  25  26
ENDBRANCH   4  25
TORSDOF 17
ENDMDL
MODEL 6
REMARK VINA RESULT:      -5.7      2.833      5.949
REMARK  Name = 5311230
REMARK  17 active torsions:
REMARK  status: ('A' for Active; 'I' for Inactive)
REMARK    1  A    between atoms: C_2  and  C_9
REMARK    2  A    between atoms: C_3  and  O_7
REMARK    3  A    between atoms: C_4  and  S_25
REMARK    4  A    between atoms: C_10  and  C_11
REMARK    5  A    between atoms: C_11  and  O_12
REMARK    6  A    between atoms: C_11  and  C_14
REMARK    7  A    between atoms: C_14  and  C_15
REMARK    8  A    between atoms: C_15  and  C_16
REMARK    9  A    between atoms: C_17  and  C_22
REMARK   10  A    between atoms: C_22  and  O_23
REMARK   11  A    between atoms: S_25  and  C_26
REMARK   12  A    between atoms: C_26  and  C_27
REMARK   13  A    between atoms: C_27  and  C_28
REMARK   14  A    between atoms: C_28  and  S_29
REMARK   15  A    between atoms: S_29  and  C_30
REMARK   16  A    between atoms: C_30  and  C_32
REMARK   17  A    between atoms: C_32  and  O_33
REMARK                            x       y       z     vdW  Elec       q    Type
REMARK                         _______ _______ _______ _____ _____    ______ ____
ROOT
ATOM      1  O   UNL     1     -33.892  27.035   5.718  0.00  0.00    -0.295 OA
ATOM      2  C   UNL     1     -35.593  25.164   3.192  0.00  0.00    +0.066 C 
ATOM      3  C   UNL     1     -36.629  25.262   4.321  0.00  0.00    +0.123 C 
ATOM      4  C   UNL     1     -34.527  26.227   3.524  0.00  0.00    +0.111 C 
ATOM      5  C   UNL     1     -35.851  25.638   5.580  0.00  0.00    +0.095 C 
ATOM      6  C   UNL     1     -34.664  26.384   5.022  0.00  0.00    +0.163 C 
ENDROOT
BRANCH   3   7
ATOM      7  O   UNL     1     -37.594  26.267   4.024  0.00  0.00    -0.384 OA
ATOM      8  H   UNL     1     -37.489  27.009   4.639  0.00  0.00    +0.210 HD
ENDBRANCH   3   7
BRANCH   2   9
ATOM      9  C   UNL     1     -34.992  23.788   3.144  0.00  0.00    -0.025 C 
ATOM     10  C   UNL     1     -35.663  22.668   3.449  0.00  0.00    -0.002 C 
BRANCH  10  11
ATOM     11  C   UNL     1     -35.056  21.294   3.399  0.00  0.00    +0.132 C 
BRANCH  11  12
ATOM     12  O   UNL     1     -35.246  20.666   4.667  0.00  0.00    -0.380 OA
ATOM     13  H   UNL     1     -35.501  19.740   4.533  0.00  0.00    +0.211 HD
ENDBRANCH  11  12
BRANCH  11  14
ATOM     14  C   UNL     1     -35.726  20.441   2.312  0.00  0.00    +0.038 C 
BRANCH  14  15
ATOM     15  C   UNL     1     -35.098  20.601   0.920  0.00  0.00    +0.029 C 
BRANCH  15  16
ATOM     16  C   UNL     1     -33.729  19.979   0.796  0.00  0.00    -0.024 C 
ATOM     17  C   UNL     1     -32.696  20.644   0.133  0.00  0.00    +0.003 C 
ATOM     18  C   UNL     1     -33.503  18.722   1.354  0.00  0.00    -0.004 C 
ATOM     19  C   UNL     1     -31.438  20.051   0.031  0.00  0.00    -0.002 C 
ATOM     20  C   UNL     1     -32.245  18.129   1.252  0.00  0.00    -0.000 C 
ATOM     21  C   UNL     1     -31.212  18.793   0.590  0.00  0.00    -0.000 C 
BRANCH  17  22
ATOM     22  C   UNL     1     -32.915  21.991  -0.473  0.00  0.00    +0.168 C 
BRANCH  22  23
ATOM     23  O   UNL     1     -32.696  21.916  -1.876  0.00  0.00    -0.346 OA
ATOM     24  C   UNL     1     -31.797  22.923  -2.318  0.00  0.00    +0.175 C 
ENDBRANCH  22  23
ENDBRANCH  17  22
ENDBRANCH  15  16
ENDBRANCH  14  15
ENDBRANCH  11  14
ENDBRANCH  10  11
ENDBRANCH   2   9
BRANCH   4  25
ATOM     25  S   UNL     1     -34.864  27.835   2.749  0.00  0.00    -0.133 S 
BRANCH  25  26
ATOM     26  C   UNL     1     -33.157  28.391   2.533  0.00  0.00    +0.059 C 
BRANCH  26  27
ATOM     27  C   UNL     1     -32.191  27.214   2.648  0.00  0.00    +0.023 C 
BRANCH  27  28
ATOM     28  C   UNL     1     -30.853  27.673   3.227  0.00  0.00    +0.059 C 
BRANCH  28  29
ATOM     29  S   UNL     1     -31.065  29.177   4.222  0.00  0.00    -0.129 S 
BRANCH  29  30
ATOM     30  C   UNL     1     -29.585  29.024   5.248  0.00  0.00    +0.167 C 
BRANCH  30  32
ATOM     31  O   UNL     1     -28.859  27.185   6.625  0.00  0.00    -0.249 OA
ATOM     32  C   UNL     1     -29.769  27.901   6.226  0.00  0.00    +0.325 C 
BRANCH  32  33
ATOM     33  O   UNL     1     -31.056  27.769   6.637  0.00  0.00    -0.480 OA
ATOM     34  H   UNL     1     -31.523  26.976   6.465  0.00  0.00    +0.295 HD
ENDBRANCH  32  33
ENDBRANCH  30  32
ENDBRANCH  29  30
ENDBRANCH  28  29
ENDBRANCH  27  28
ENDBRANCH  26  27
ENDBRANCH  25  26
ENDBRANCH   4  25
TORSDOF 17
ENDMDL
MODEL 7
REMARK VINA RESULT:      -5.7      1.819      3.098
REMARK  Name = 5311230
REMARK  17 active torsions:
REMARK  status: ('A' for Active; 'I' for Inactive)
REMARK    1  A    between atoms: C_2  and  C_9
REMARK    2  A    between atoms: C_3  and  O_7
REMARK    3  A    between atoms: C_4  and  S_25
REMARK    4  A    between atoms: C_10  and  C_11
REMARK    5  A    between atoms: C_11  and  O_12
REMARK    6  A    between atoms: C_11  and  C_14
REMARK    7  A    between atoms: C_14  and  C_15
REMARK    8  A    between atoms: C_15  and  C_16
REMARK    9  A    between atoms: C_17  and  C_22
REMARK   10  A    between atoms: C_22  and  O_23
REMARK   11  A    between atoms: S_25  and  C_26
REMARK   12  A    between atoms: C_26  and  C_27
REMARK   13  A    between atoms: C_27  and  C_28
REMARK   14  A    between atoms: C_28  and  S_29
REMARK   15  A    between atoms: S_29  and  C_30
REMARK   16  A    between atoms: C_30  and  C_32
REMARK   17  A    between atoms: C_32  and  O_33
REMARK                            x       y       z     vdW  Elec       q    Type
REMARK                         _______ _______ _______ _____ _____    ______ ____
ROOT
ATOM      1  O   UNL     1     -32.977  25.826   3.477  0.00  0.00    -0.295 OA
ATOM      2  C   UNL     1     -36.348  24.749   3.974  0.00  0.00    +0.066 C 
ATOM      3  C   UNL     1     -35.955  25.330   5.340  0.00  0.00    +0.123 C 
ATOM      4  C   UNL     1     -35.284  25.270   2.988  0.00  0.00    +0.111 C 
ATOM      5  C   UNL     1     -34.430  25.395   5.351  0.00  0.00    +0.095 C 
ATOM      6  C   UNL     1     -34.097  25.537   3.886  0.00  0.00    +0.163 C 
ENDROOT
BRANCH   3   7
ATOM      7  O   UNL     1     -36.502  26.637   5.499  0.00  0.00    -0.384 OA
ATOM      8  H   UNL     1     -35.997  27.118   6.173  0.00  0.00    +0.210 HD
ENDBRANCH   3   7
BRANCH   2   9
ATOM      9  C   UNL     1     -36.358  23.248   4.021  0.00  0.00    -0.025 C 
ATOM     10  C   UNL     1     -36.287  22.465   2.934  0.00  0.00    -0.002 C 
BRANCH  10  11
ATOM     11  C   UNL     1     -36.298  20.963   2.987  0.00  0.00    +0.132 C 
BRANCH  11  12
ATOM     12  O   UNL     1     -37.227  20.480   2.018  0.00  0.00    -0.380 OA
ATOM     13  H   UNL     1     -37.980  21.087   1.963  0.00  0.00    +0.211 HD
ENDBRANCH  11  12
BRANCH  11  14
ATOM     14  C   UNL     1     -34.905  20.397   2.672  0.00  0.00    +0.038 C 
BRANCH  14  15
ATOM     15  C   UNL     1     -34.770  19.832   1.251  0.00  0.00    +0.029 C 
BRANCH  15  16
ATOM     16  C   UNL     1     -33.353  19.482   0.868  0.00  0.00    -0.024 C 
ATOM     17  C   UNL     1     -32.648  20.253  -0.056  0.00  0.00    +0.003 C 
ATOM     18  C   UNL     1     -32.749  18.370   1.453  0.00  0.00    -0.004 C 
ATOM     19  C   UNL     1     -31.338  19.912  -0.394  0.00  0.00    -0.002 C 
ATOM     20  C   UNL     1     -31.440  18.028   1.115  0.00  0.00    -0.000 C 
ATOM     21  C   UNL     1     -30.734  18.799   0.190  0.00  0.00    -0.000 C 
BRANCH  17  22
ATOM     22  C   UNL     1     -33.274  21.449  -0.696  0.00  0.00    +0.168 C 
BRANCH  22  23
ATOM     23  O   UNL     1     -32.637  22.626  -0.216  0.00  0.00    -0.346 OA
ATOM     24  C   UNL     1     -33.560  23.493   0.427  0.00  0.00    +0.175 C 
ENDBRANCH  22  23
ENDBRANCH  17  22
ENDBRANCH  15  16
ENDBRANCH  14  15
ENDBRANCH  11  14
ENDBRANCH  10  11
ENDBRANCH   2   9
BRANCH   4  25
ATOM     25  S   UNL     1     -35.759  26.830   2.190  0.00  0.00    -0.133 S 
BRANCH  25  26
ATOM     26  C   UNL     1     -37.531  26.515   2.016  0.00  0.00    +0.059 C 
BRANCH  26  27
ATOM     27  C   UNL     1     -37.866  26.114   0.581  0.00  0.00    +0.023 C 
BRANCH  27  28
ATOM     28  C   UNL     1     -39.375  26.167   0.348  0.00  0.00    +0.059 C 
BRANCH  28  29
ATOM     29  S   UNL     1     -40.199  24.765   1.155  0.00  0.00    -0.129 S 
BRANCH  29  30
ATOM     30  C   UNL     1     -41.530  25.676   1.971  0.00  0.00    +0.167 C 
BRANCH  30  32
ATOM     31  O   UNL     1     -41.318  27.322   3.718  0.00  0.00    -0.249 OA
ATOM     32  C   UNL     1     -41.036  26.213   3.283  0.00  0.00    +0.325 C 
BRANCH  32  33
ATOM     33  O   UNL     1     -40.250  25.329   3.948  0.00  0.00    -0.480 OA
ATOM     34  H   UNL     1     -39.319  25.362   3.849  0.00  0.00    +0.295 HD
ENDBRANCH  32  33
ENDBRANCH  30  32
ENDBRANCH  29  30
ENDBRANCH  28  29
ENDBRANCH  27  28
ENDBRANCH  26  27
ENDBRANCH  25  26
ENDBRANCH   4  25
TORSDOF 17
ENDMDL
MODEL 8
REMARK VINA RESULT:      -5.6      2.728      5.597
REMARK  Name = 5311230
REMARK  17 active torsions:
REMARK  status: ('A' for Active; 'I' for Inactive)
REMARK    1  A    between atoms: C_2  and  C_9
REMARK    2  A    between atoms: C_3  and  O_7
REMARK    3  A    between atoms: C_4  and  S_25
REMARK    4  A    between atoms: C_10  and  C_11
REMARK    5  A    between atoms: C_11  and  O_12
REMARK    6  A    between atoms: C_11  and  C_14
REMARK    7  A    between atoms: C_14  and  C_15
REMARK    8  A    between atoms: C_15  and  C_16
REMARK    9  A    between atoms: C_17  and  C_22
REMARK   10  A    between atoms: C_22  and  O_23
REMARK   11  A    between atoms: S_25  and  C_26
REMARK   12  A    between atoms: C_26  and  C_27
REMARK   13  A    between atoms: C_27  and  C_28
REMARK   14  A    between atoms: C_28  and  S_29
REMARK   15  A    between atoms: S_29  and  C_30
REMARK   16  A    between atoms: C_30  and  C_32
REMARK   17  A    between atoms: C_32  and  O_33
REMARK                            x       y       z     vdW  Elec       q    Type
REMARK                         _______ _______ _______ _____ _____    ______ ____
ROOT
ATOM      1  O   UNL     1     -33.290  26.103   5.358  0.00  0.00    -0.295 OA
ATOM      2  C   UNL     1     -35.705  24.673   3.147  0.00  0.00    +0.066 C 
ATOM      3  C   UNL     1     -36.448  24.744   4.489  0.00  0.00    +0.123 C 
ATOM      4  C   UNL     1     -34.481  25.595   3.311  0.00  0.00    +0.111 C 
ATOM      5  C   UNL     1     -35.374  24.912   5.560  0.00  0.00    +0.095 C 
ATOM      6  C   UNL     1     -34.264  25.603   4.808  0.00  0.00    +0.163 C 
ENDROOT
BRANCH   3   7
ATOM      7  O   UNL     1     -37.337  25.858   4.507  0.00  0.00    -0.384 OA
ATOM      8  H   UNL     1     -37.019  26.514   5.147  0.00  0.00    +0.210 HD
ENDBRANCH   3   7
BRANCH   2   9
ATOM      9  C   UNL     1     -35.288  23.263   2.846  0.00  0.00    -0.025 C 
ATOM     10  C   UNL     1     -36.037  22.186   3.123  0.00  0.00    -0.002 C 
BRANCH  10  11
ATOM     11  C   UNL     1     -35.614  20.776   2.821  0.00  0.00    +0.132 C 
BRANCH  11  12
ATOM     12  O   UNL     1     -36.775  19.946   2.799  0.00  0.00    -0.380 OA
ATOM     13  H   UNL     1     -37.248  20.032   3.641  0.00  0.00    +0.211 HD
ENDBRANCH  11  12
BRANCH  11  14
ATOM     14  C   UNL     1     -34.917  20.697   1.455  0.00  0.00    +0.038 C 
BRANCH  14  15
ATOM     15  C   UNL     1     -33.926  19.531   1.327  0.00  0.00    +0.029 C 
BRANCH  15  16
ATOM     16  C   UNL     1     -32.662  19.886   0.584  0.00  0.00    -0.024 C 
ATOM     17  C   UNL     1     -31.560  19.031   0.593  0.00  0.00    +0.003 C 
ATOM     18  C   UNL     1     -32.605  21.089  -0.119  0.00  0.00    -0.004 C 
ATOM     19  C   UNL     1     -30.402  19.378  -0.102  0.00  0.00    -0.002 C 
ATOM     20  C   UNL     1     -31.447  21.436  -0.814  0.00  0.00    -0.000 C 
ATOM     21  C   UNL     1     -30.345  20.581  -0.805  0.00  0.00    -0.000 C 
BRANCH  17  22
ATOM     22  C   UNL     1     -31.598  17.737   1.339  0.00  0.00    +0.168 C 
BRANCH  22  23
ATOM     23  O   UNL     1     -31.387  16.664   0.430  0.00  0.00    -0.346 OA
ATOM     24  C   UNL     1     -32.616  16.143  -0.055  0.00  0.00    +0.175 C 
ENDBRANCH  22  23
ENDBRANCH  17  22
ENDBRANCH  15  16
ENDBRANCH  14  15
ENDBRANCH  11  14
ENDBRANCH  10  11
ENDBRANCH   2   9
BRANCH   4  25
ATOM     25  S   UNL     1     -34.798  27.300   2.771  0.00  0.00    -0.133 S 
BRANCH  25  26
ATOM     26  C   UNL     1     -33.151  27.692   2.137  0.00  0.00    +0.059 C 
BRANCH  26  27
ATOM     27  C   UNL     1     -32.972  29.203   2.007  0.00  0.00    +0.023 C 
BRANCH  27  28
ATOM     28  C   UNL     1     -31.616  29.633   2.563  0.00  0.00    +0.059 C 
BRANCH  28  29
ATOM     29  S   UNL     1     -31.002  28.422   3.768  0.00  0.00    -0.129 S 
BRANCH  29  30
ATOM     30  C   UNL     1     -31.556  29.248   5.277  0.00  0.00    +0.167 C 
BRANCH  30  32
ATOM     31  O   UNL     1     -29.599  30.607   5.636  0.00  0.00    -0.249 OA
ATOM     32  C   UNL     1     -30.364  29.742   6.043  0.00  0.00    +0.325 C 
BRANCH  32  33
ATOM     33  O   UNL     1     -30.229  29.135   7.250  0.00  0.00    -0.480 OA
ATOM     34  H   UNL     1     -29.399  29.135   7.684  0.00  0.00    +0.295 HD
ENDBRANCH  32  33
ENDBRANCH  30  32
ENDBRANCH  29  30
ENDBRANCH  28  29
ENDBRANCH  27  28
ENDBRANCH  26  27
ENDBRANCH  25  26
ENDBRANCH   4  25
TORSDOF 17
ENDMDL
MODEL 9
REMARK VINA RESULT:      -5.6      1.108      1.289
REMARK  Name = 5311230
REMARK  17 active torsions:
REMARK  status: ('A' for Active; 'I' for Inactive)
REMARK    1  A    between atoms: C_2  and  C_9
REMARK    2  A    between atoms: C_3  and  O_7
REMARK    3  A    between atoms: C_4  and  S_25
REMARK    4  A    between atoms: C_10  and  C_11
REMARK    5  A    between atoms: C_11  and  O_12
REMARK    6  A    between atoms: C_11  and  C_14
REMARK    7  A    between atoms: C_14  and  C_15
REMARK    8  A    between atoms: C_15  and  C_16
REMARK    9  A    between atoms: C_17  and  C_22
REMARK   10  A    between atoms: C_22  and  O_23
REMARK   11  A    between atoms: S_25  and  C_26
REMARK   12  A    between atoms: C_26  and  C_27
REMARK   13  A    between atoms: C_27  and  C_28
REMARK   14  A    between atoms: C_28  and  S_29
REMARK   15  A    between atoms: S_29  and  C_30
REMARK   16  A    between atoms: C_30  and  C_32
REMARK   17  A    between atoms: C_32  and  O_33
REMARK                            x       y       z     vdW  Elec       q    Type
REMARK                         _______ _______ _______ _____ _____    ______ ____
ROOT
ATOM      1  O   UNL     1     -34.875  26.309   1.750  0.00  0.00    -0.295 OA
ATOM      2  C   UNL     1     -36.713  24.239   4.010  0.00  0.00    +0.066 C 
ATOM      3  C   UNL     1     -35.817  25.071   4.939  0.00  0.00    +0.123 C 
ATOM      4  C   UNL     1     -36.679  24.967   2.652  0.00  0.00    +0.111 C 
ATOM      5  C   UNL     1     -34.705  25.639   4.059  0.00  0.00    +0.095 C 
ATOM      6  C   UNL     1     -35.365  25.714   2.704  0.00  0.00    +0.163 C 
ENDROOT
BRANCH   3   7
ATOM      7  O   UNL     1     -36.562  26.132   5.530  0.00  0.00    -0.384 OA
ATOM      8  H   UNL     1     -36.183  26.983   5.261  0.00  0.00    +0.210 HD
ENDBRANCH   3   7
BRANCH   2   9
ATOM      9  C   UNL     1     -36.192  22.836   3.889  0.00  0.00    -0.025 C 
ATOM     10  C   UNL     1     -36.216  22.125   2.753  0.00  0.00    -0.002 C 
BRANCH  10  11
ATOM     11  C   UNL     1     -35.694  20.720   2.638  0.00  0.00    +0.132 C 
BRANCH  11  12
ATOM     12  O   UNL     1     -36.799  19.818   2.683  0.00  0.00    -0.380 OA
ATOM     13  H   UNL     1     -36.689  19.139   2.000  0.00  0.00    +0.211 HD
ENDBRANCH  11  12
BRANCH  11  14
ATOM     14  C   UNL     1     -34.942  20.525   1.313  0.00  0.00    +0.038 C 
BRANCH  14  15
ATOM     15  C   UNL     1     -33.857  19.440   1.367  0.00  0.00    +0.029 C 
BRANCH  15  16
ATOM     16  C   UNL     1     -32.599  19.800   0.618  0.00  0.00    -0.024 C 
ATOM     17  C   UNL     1     -31.506  18.933   0.591  0.00  0.00    +0.003 C 
ATOM     18  C   UNL     1     -32.537  21.021  -0.054  0.00  0.00    -0.004 C 
ATOM     19  C   UNL     1     -30.352  19.287  -0.109  0.00  0.00    -0.002 C 
ATOM     20  C   UNL     1     -31.383  21.374  -0.754  0.00  0.00    -0.000 C 
ATOM     21  C   UNL     1     -30.290  20.507  -0.781  0.00  0.00    -0.000 C 
BRANCH  17  22
ATOM     22  C   UNL     1     -31.549  17.621   1.303  0.00  0.00    +0.168 C 
BRANCH  22  23
ATOM     23  O   UNL     1     -31.307  16.574   0.373  0.00  0.00    -0.346 OA
ATOM     24  C   UNL     1     -32.516  15.946  -0.031  0.00  0.00    +0.175 C 
ENDBRANCH  22  23
ENDBRANCH  17  22
ENDBRANCH  15  16
ENDBRANCH  14  15
ENDBRANCH  11  14
ENDBRANCH  10  11
ENDBRANCH   2   9
BRANCH   4  25
ATOM     25  S   UNL     1     -38.018  26.179   2.461  0.00  0.00    -0.133 S 
BRANCH  25  26
ATOM     26  C   UNL     1     -38.654  25.627   0.861  0.00  0.00    +0.059 C 
BRANCH  26  27
ATOM     27  C   UNL     1     -40.175  25.501   0.904  0.00  0.00    +0.023 C 
BRANCH  27  28
ATOM     28  C   UNL     1     -40.605  24.078   0.549  0.00  0.00    +0.059 C 
BRANCH  28  29
ATOM     29  S   UNL     1     -39.752  22.868   1.600  0.00  0.00    -0.129 S 
BRANCH  29  30
ATOM     30  C   UNL     1     -38.844  21.990   0.306  0.00  0.00    +0.167 C 
BRANCH  30  32
ATOM     31  O   UNL     1     -40.653  20.494  -0.237  0.00  0.00    -0.249 OA
ATOM     32  C   UNL     1     -39.479  20.650   0.073  0.00  0.00    +0.325 C 
BRANCH  32  33
ATOM     33  O   UNL     1     -38.605  19.623   0.227  0.00  0.00    -0.480 OA
ATOM     34  H   UNL     1     -37.804  19.755   0.694  0.00  0.00    +0.295 HD
ENDBRANCH  32  33
ENDBRANCH  30  32
ENDBRANCH  29  30
ENDBRANCH  28  29
ENDBRANCH  27  28
ENDBRANCH  26  27
ENDBRANCH  25  26
ENDBRANCH   4  25
TORSDOF 17
ENDMDL
