MODEL 1
REMARK VINA RESULT:      -7.2      0.000      0.000
REMARK  Name = 192616
REMARK  7 active torsions:
REMARK  status: ('A' for Active; 'I' for Inactive)
REMARK    1  A    between atoms: N_1  and  C_12
REMARK    2  A    between atoms: C_11  and  O_20
REMARK    3  A    between atoms: C_13  and  O_22
REMARK    4  A    between atoms: C_14  and  C_17
REMARK    5  A    between atoms: N_24  and  C_26
REMARK    6  A    between atoms: C_26  and  C_27
REMARK    7  A    between atoms: C_30  and  N_33
REMARK                            x       y       z     vdW  Elec       q    Type
REMARK                         _______ _______ _______ _____ _____    ______ ____
ROOT
ATOM      1  N   UNL     1     -36.300  23.249   4.115  0.00  0.00    -0.247 N 
ATOM      2  N   UNL     1     -35.182  21.337   4.386  0.00  0.00    -0.242 NA
ATOM      3  N   UNL     1     -36.554  23.242   1.699  0.00  0.00    -0.228 NA
ATOM      4  N   UNL     1     -35.532  21.260   0.705  0.00  0.00    -0.228 NA
ATOM      5  C   UNL     1     -36.134  22.724   2.864  0.00  0.00    +0.152 C 
ATOM      6  C   UNL     1     -35.709  22.378   4.995  0.00  0.00    +0.223 C 
ATOM      7  C   UNL     1     -35.441  21.539   3.054  0.00  0.00    +0.140 C 
ATOM      8  C   UNL     1     -35.140  20.797   1.916  0.00  0.00    +0.146 C 
ATOM      9  C   UNL     1     -36.205  22.436   0.672  0.00  0.00    +0.253 C 
ATOM     10  N   UNL     1     -34.441  19.582   2.016  0.00  0.00    -0.313 N 
ATOM     11  H   UNL     1     -34.168  19.270   2.908  0.00  0.00    +0.149 HD
ENDROOT
BRANCH   1  14
ATOM     12  O   UNL     1     -38.268  24.556   3.822  0.00  0.00    -0.326 OA
ATOM     13  C   UNL     1     -36.208  25.752   4.050  0.00  0.00    +0.187 C 
ATOM     14  C   UNL     1     -36.976  24.500   4.463  0.00  0.00    +0.225 C 
ATOM     15  C   UNL     1     -36.912  26.171   2.774  0.00  0.00    +0.178 C 
ATOM     16  C   UNL     1     -38.344  25.761   3.053  0.00  0.00    +0.222 C 
BRANCH  16  19
ATOM     17  O   UNL     1     -39.255  26.222   0.902  0.00  0.00    -0.272 OA
ATOM     18  N   UNL     1     -39.592  24.121   1.845  0.00  0.00    -0.301 N 
ATOM     19  C   UNL     1     -39.098  25.413   1.814  0.00  0.00    +0.252 C 
ATOM     20  C   UNL     1     -40.377  23.547   0.775  0.00  0.00    +0.111 C 
ATOM     21  H   UNL     1     -39.399  23.565   2.634  0.00  0.00    +0.150 HD
ENDBRANCH  16  19
BRANCH  13  22
ATOM     22  O   UNL     1     -36.397  26.734   5.069  0.00  0.00    -0.378 OA
ATOM     23  H   UNL     1     -35.594  27.275   5.149  0.00  0.00    +0.211 HD
ENDBRANCH  13  22
BRANCH  15  24
ATOM     24  O   UNL     1     -36.782  27.555   2.521  0.00  0.00    -0.379 OA
ATOM     25  H   UNL     1     -37.661  27.944   2.389  0.00  0.00    +0.211 HD
ENDBRANCH  15  24
ENDBRANCH   1  14
BRANCH  10  26
ATOM     26  C   UNL     1     -34.105  18.779   0.878  0.00  0.00    +0.115 C 
BRANCH  26  27
ATOM     27  C   UNL     1     -32.638  18.893   0.566  0.00  0.00    -0.001 C 
ATOM     28  C   UNL     1     -31.774  17.877   0.951  0.00  0.00    +0.011 C 
ATOM     29  C   UNL     1     -32.165  20.015  -0.102  0.00  0.00    -0.003 C 
ATOM     30  C   UNL     1     -30.414  17.985   0.664  0.00  0.00    +0.041 C 
ATOM     31  C   UNL     1     -30.805  20.123  -0.390  0.00  0.00    +0.001 C 
ATOM     32  C   UNL     1     -29.929  19.106  -0.008  0.00  0.00    +0.014 C 
BRANCH  30  33
ATOM     33  N   UNL     1     -29.527  16.957   1.050  0.00  0.00    -0.357 N 
ATOM     34  H   UNL     1     -28.965  17.068   1.850  0.00  0.00    +0.142 HD
ATOM     35  H   UNL     1     -29.472  16.129   0.519  0.00  0.00    +0.142 HD
ENDBRANCH  30  33
ENDBRANCH  26  27
ENDBRANCH  10  26
TORSDOF 7
ENDMDL
MODEL 2
REMARK VINA RESULT:      -7.0      2.005      3.421
REMARK  Name = 192616
REMARK  7 active torsions:
REMARK  status: ('A' for Active; 'I' for Inactive)
REMARK    1  A    between atoms: N_1  and  C_12
REMARK    2  A    between atoms: C_11  and  O_20
REMARK    3  A    between atoms: C_13  and  O_22
REMARK    4  A    between atoms: C_14  and  C_17
REMARK    5  A    between atoms: N_24  and  C_26
REMARK    6  A    between atoms: C_26  and  C_27
REMARK    7  A    between atoms: C_30  and  N_33
REMARK                            x       y       z     vdW  Elec       q    Type
REMARK                         _______ _______ _______ _____ _____    ______ ____
ROOT
ATOM      1  N   UNL     1     -36.082  23.346   2.547  0.00  0.00    -0.247 N 
ATOM      2  N   UNL     1     -35.570  21.266   3.173  0.00  0.00    -0.242 NA
ATOM      3  N   UNL     1     -35.794  23.138   0.144  0.00  0.00    -0.228 NA
ATOM      4  N   UNL     1     -35.112  20.878  -0.477  0.00  0.00    -0.228 NA
ATOM      5  C   UNL     1     -35.784  22.665   1.399  0.00  0.00    +0.152 C 
ATOM      6  C   UNL     1     -35.938  22.462   3.585  0.00  0.00    +0.223 C 
ATOM      7  C   UNL     1     -35.471  21.379   1.809  0.00  0.00    +0.140 C 
ATOM      8  C   UNL     1     -35.125  20.469   0.815  0.00  0.00    +0.146 C 
ATOM      9  C   UNL     1     -35.442  22.168  -0.729  0.00  0.00    +0.253 C 
ATOM     10  N   UNL     1     -34.794  19.143   1.140  0.00  0.00    -0.313 N 
ATOM     11  H   UNL     1     -34.812  18.873   2.086  0.00  0.00    +0.149 HD
ENDROOT
BRANCH   1  14
ATOM     12  O   UNL     1     -35.321  25.601   2.538  0.00  0.00    -0.326 OA
ATOM     13  C   UNL     1     -37.162  25.095   3.980  0.00  0.00    +0.187 C 
ATOM     14  C   UNL     1     -36.480  24.751   2.660  0.00  0.00    +0.225 C 
ATOM     15  C   UNL     1     -36.046  25.743   4.774  0.00  0.00    +0.178 C 
ATOM     16  C   UNL     1     -35.254  26.448   3.692  0.00  0.00    +0.222 C 
BRANCH  16  19
ATOM     17  O   UNL     1     -32.983  25.732   3.681  0.00  0.00    -0.272 OA
ATOM     18  N   UNL     1     -33.537  27.719   4.760  0.00  0.00    -0.301 N 
ATOM     19  C   UNL     1     -33.806  26.578   4.025  0.00  0.00    +0.252 C 
ATOM     20  C   UNL     1     -32.213  28.066   5.229  0.00  0.00    +0.111 C 
ATOM     21  H   UNL     1     -34.283  28.325   4.975  0.00  0.00    +0.150 HD
ENDBRANCH  16  19
BRANCH  13  22
ATOM     22  O   UNL     1     -38.193  26.043   3.702  0.00  0.00    -0.378 OA
ATOM     23  H   UNL     1     -38.819  25.662   3.066  0.00  0.00    +0.211 HD
ENDBRANCH  13  22
BRANCH  15  24
ATOM     24  O   UNL     1     -36.535  26.634   5.756  0.00  0.00    -0.379 OA
ATOM     25  H   UNL     1     -37.376  27.015   5.457  0.00  0.00    +0.211 HD
ENDBRANCH  15  24
ENDBRANCH   1  14
BRANCH  10  26
ATOM     26  C   UNL     1     -34.431  18.165   0.157  0.00  0.00    +0.115 C 
BRANCH  26  27
ATOM     27  C   UNL     1     -32.963  17.848   0.247  0.00  0.00    -0.001 C 
ATOM     28  C   UNL     1     -32.537  16.532   0.122  0.00  0.00    +0.011 C 
ATOM     29  C   UNL     1     -32.051  18.875   0.456  0.00  0.00    -0.003 C 
ATOM     30  C   UNL     1     -31.177  16.238   0.207  0.00  0.00    +0.041 C 
ATOM     31  C   UNL     1     -30.691  18.580   0.541  0.00  0.00    +0.001 C 
ATOM     32  C   UNL     1     -30.254  17.262   0.415  0.00  0.00    +0.014 C 
BRANCH  30  33
ATOM     33  N   UNL     1     -30.733  14.904   0.080  0.00  0.00    -0.357 N 
ATOM     34  H   UNL     1     -31.386  14.181  -0.059  0.00  0.00    +0.142 HD
ATOM     35  H   UNL     1     -29.771  14.699   0.129  0.00  0.00    +0.142 HD
ENDBRANCH  30  33
ENDBRANCH  26  27
ENDBRANCH  10  26
TORSDOF 7
ENDMDL
MODEL 3
REMARK VINA RESULT:      -6.9      5.509      8.194
REMARK  Name = 192616
REMARK  7 active torsions:
REMARK  status: ('A' for Active; 'I' for Inactive)
REMARK    1  A    between atoms: N_1  and  C_12
REMARK    2  A    between atoms: C_11  and  O_20
REMARK    3  A    between atoms: C_13  and  O_22
REMARK    4  A    between atoms: C_14  and  C_17
REMARK    5  A    between atoms: N_24  and  C_26
REMARK    6  A    between atoms: C_26  and  C_27
REMARK    7  A    between atoms: C_30  and  N_33
REMARK                            x       y       z     vdW  Elec       q    Type
REMARK                         _______ _______ _______ _____ _____    ______ ____
ROOT
ATOM      1  N   UNL     1     -32.280  27.901   5.054  0.00  0.00    -0.247 N 
ATOM      2  N   UNL     1     -33.624  26.467   6.111  0.00  0.00    -0.242 NA
ATOM      3  N   UNL     1     -33.331  27.915   2.864  0.00  0.00    -0.228 NA
ATOM      4  N   UNL     1     -35.274  26.439   2.802  0.00  0.00    -0.228 NA
ATOM      5  C   UNL     1     -33.223  27.518   4.141  0.00  0.00    +0.152 C 
ATOM      6  C   UNL     1     -32.565  27.242   6.223  0.00  0.00    +0.223 C 
ATOM      7  C   UNL     1     -34.046  26.631   4.816  0.00  0.00    +0.140 C 
ATOM      8  C   UNL     1     -35.105  26.084   4.098  0.00  0.00    +0.146 C 
ATOM      9  C   UNL     1     -34.391  27.320   2.273  0.00  0.00    +0.253 C 
ATOM     10  N   UNL     1     -35.990  25.176   4.704  0.00  0.00    -0.313 N 
ATOM     11  H   UNL     1     -35.843  24.936   5.647  0.00  0.00    +0.149 HD
ENDROOT
BRANCH   1  14
ATOM     12  O   UNL     1     -29.983  28.111   4.470  0.00  0.00    -0.326 OA
ATOM     13  C   UNL     1     -30.833  29.682   6.062  0.00  0.00    +0.187 C 
ATOM     14  C   UNL     1     -31.175  28.836   4.839  0.00  0.00    +0.225 C 
ATOM     15  C   UNL     1     -29.621  28.972   6.632  0.00  0.00    +0.178 C 
ATOM     16  C   UNL     1     -28.935  28.464   5.380  0.00  0.00    +0.222 C 
BRANCH  16  19
ATOM     17  O   UNL     1     -27.954  26.397   4.719  0.00  0.00    -0.272 OA
ATOM     18  N   UNL     1     -27.729  27.100   6.927  0.00  0.00    -0.301 N 
ATOM     19  C   UNL     1     -28.154  27.214   5.615  0.00  0.00    +0.252 C 
ATOM     20  C   UNL     1     -26.973  25.970   7.419  0.00  0.00    +0.111 C 
ATOM     21  H   UNL     1     -27.951  27.823   7.557  0.00  0.00    +0.150 HD
ENDBRANCH  16  19
BRANCH  13  22
ATOM     22  O   UNL     1     -30.480  30.987   5.605  0.00  0.00    -0.378 OA
ATOM     23  H   UNL     1     -31.218  31.363   5.099  0.00  0.00    +0.211 HD
ENDBRANCH  13  22
BRANCH  15  24
ATOM     24  O   UNL     1     -28.800  29.840   7.387  0.00  0.00    -0.379 OA
ATOM     25  H   UNL     1     -27.874  29.726   7.118  0.00  0.00    +0.211 HD
ENDBRANCH  15  24
ENDBRANCH   1  14
BRANCH  10  26
ATOM     26  C   UNL     1     -37.095  24.584   4.012  0.00  0.00    +0.115 C 
BRANCH  26  27
ATOM     27  C   UNL     1     -36.732  23.211   3.515  0.00  0.00    -0.001 C 
ATOM     28  C   UNL     1     -37.524  22.598   2.553  0.00  0.00    +0.011 C 
ATOM     29  C   UNL     1     -35.610  22.572   4.026  0.00  0.00    -0.003 C 
ATOM     30  C   UNL     1     -37.189  21.325   2.095  0.00  0.00    +0.041 C 
ATOM     31  C   UNL     1     -35.274  21.299   3.567  0.00  0.00    +0.001 C 
ATOM     32  C   UNL     1     -36.064  20.676   2.600  0.00  0.00    +0.014 C 
BRANCH  30  33
ATOM     33  N   UNL     1     -37.986  20.694   1.116  0.00  0.00    -0.357 N 
ATOM     34  H   UNL     1     -37.750  20.772   0.164  0.00  0.00    +0.142 HD
ATOM     35  H   UNL     1     -38.779  20.175   1.387  0.00  0.00    +0.142 HD
ENDBRANCH  30  33
ENDBRANCH  26  27
ENDBRANCH  10  26
TORSDOF 7
ENDMDL
MODEL 4
REMARK VINA RESULT:      -6.8      4.401      9.768
REMARK  Name = 192616
REMARK  7 active torsions:
REMARK  status: ('A' for Active; 'I' for Inactive)
REMARK    1  A    between atoms: N_1  and  C_12
REMARK    2  A    between atoms: C_11  and  O_20
REMARK    3  A    between atoms: C_13  and  O_22
REMARK    4  A    between atoms: C_14  and  C_17
REMARK    5  A    between atoms: N_24  and  C_26
REMARK    6  A    between atoms: C_26  and  C_27
REMARK    7  A    between atoms: C_30  and  N_33
REMARK                            x       y       z     vdW  Elec       q    Type
REMARK                         _______ _______ _______ _____ _____    ______ ____
ROOT
ATOM      1  N   UNL     1     -38.726  24.756   1.822  0.00  0.00    -0.247 N 
ATOM      2  N   UNL     1     -40.419  23.310   1.674  0.00  0.00    -0.242 NA
ATOM      3  N   UNL     1     -39.886  26.810   1.240  0.00  0.00    -0.228 NA
ATOM      4  N   UNL     1     -42.247  26.398   0.782  0.00  0.00    -0.228 NA
ATOM      5  C   UNL     1     -39.824  25.488   1.463  0.00  0.00    +0.152 C 
ATOM      6  C   UNL     1     -39.136  23.452   1.936  0.00  0.00    +0.223 C 
ATOM      7  C   UNL     1     -40.861  24.574   1.378  0.00  0.00    +0.140 C 
ATOM      8  C   UNL     1     -42.111  25.072   1.022  0.00  0.00    +0.146 C 
ATOM      9  C   UNL     1     -41.143  27.174   0.904  0.00  0.00    +0.253 C 
ATOM     10  N   UNL     1     -43.220  24.215   0.914  0.00  0.00    -0.313 N 
ATOM     11  H   UNL     1     -43.092  23.257   1.094  0.00  0.00    +0.149 HD
ENDROOT
BRANCH   1  14
ATOM     12  O   UNL     1     -36.471  24.151   2.283  0.00  0.00    -0.326 OA
ATOM     13  C   UNL     1     -37.247  26.205   3.232  0.00  0.00    +0.187 C 
ATOM     14  C   UNL     1     -37.369  25.256   2.045  0.00  0.00    +0.225 C 
ATOM     15  C   UNL     1     -36.688  25.311   4.321  0.00  0.00    +0.178 C 
ATOM     16  C   UNL     1     -35.804  24.367   3.531  0.00  0.00    +0.222 C 
BRANCH  16  19
ATOM     17  O   UNL     1     -35.592  21.995   3.501  0.00  0.00    -0.272 OA
ATOM     18  N   UNL     1     -35.689  23.096   5.551  0.00  0.00    -0.301 N 
ATOM     19  C   UNL     1     -35.677  23.024   4.169  0.00  0.00    +0.252 C 
ATOM     20  C   UNL     1     -35.602  21.932   6.405  0.00  0.00    +0.111 C 
ATOM     21  H   UNL     1     -35.760  23.982   5.973  0.00  0.00    +0.150 HD
ENDBRANCH  16  19
BRANCH  13  22
ATOM     22  O   UNL     1     -36.303  27.219   2.885  0.00  0.00    -0.378 OA
ATOM     23  H   UNL     1     -35.946  27.618   3.694  0.00  0.00    +0.211 HD
ENDBRANCH  13  22
BRANCH  15  24
ATOM     24  O   UNL     1     -35.970  26.039   5.295  0.00  0.00    -0.379 OA
ATOM     25  H   UNL     1     -36.145  26.988   5.186  0.00  0.00    +0.211 HD
ENDBRANCH  15  24
ENDBRANCH   1  14
BRANCH  10  26
ATOM     26  C   UNL     1     -44.528  24.674   0.551  0.00  0.00    +0.115 C 
BRANCH  26  27
ATOM     27  C   UNL     1     -45.482  24.510   1.703  0.00  0.00    -0.001 C 
ATOM     28  C   UNL     1     -45.388  25.360   2.798  0.00  0.00    +0.011 C 
ATOM     29  C   UNL     1     -46.444  23.510   1.659  0.00  0.00    -0.003 C 
ATOM     30  C   UNL     1     -46.270  25.207   3.866  0.00  0.00    +0.041 C 
ATOM     31  C   UNL     1     -47.327  23.357   2.728  0.00  0.00    +0.001 C 
ATOM     32  C   UNL     1     -47.240  24.206   3.831  0.00  0.00    +0.014 C 
BRANCH  30  33
ATOM     33  N   UNL     1     -46.184  26.066   4.982  0.00  0.00    -0.357 N 
ATOM     34  H   UNL     1     -45.980  25.697   5.871  0.00  0.00    +0.142 HD
ATOM     35  H   UNL     1     -46.327  27.034   4.870  0.00  0.00    +0.142 HD
ENDBRANCH  30  33
ENDBRANCH  26  27
ENDBRANCH  10  26
TORSDOF 7
ENDMDL
MODEL 5
REMARK VINA RESULT:      -6.8      2.767      4.332
REMARK  Name = 192616
REMARK  7 active torsions:
REMARK  status: ('A' for Active; 'I' for Inactive)
REMARK    1  A    between atoms: N_1  and  C_12
REMARK    2  A    between atoms: C_11  and  O_20
REMARK    3  A    between atoms: C_13  and  O_22
REMARK    4  A    between atoms: C_14  and  C_17
REMARK    5  A    between atoms: N_24  and  C_26
REMARK    6  A    between atoms: C_26  and  C_27
REMARK    7  A    between atoms: C_30  and  N_33
REMARK                            x       y       z     vdW  Elec       q    Type
REMARK                         _______ _______ _______ _____ _____    ______ ____
ROOT
ATOM      1  N   UNL     1     -35.897  23.229   2.679  0.00  0.00    -0.247 N 
ATOM      2  N   UNL     1     -35.575  21.114   3.313  0.00  0.00    -0.242 NA
ATOM      3  N   UNL     1     -34.919  23.148   0.456  0.00  0.00    -0.228 NA
ATOM      4  N   UNL     1     -34.071  20.918  -0.060  0.00  0.00    -0.228 NA
ATOM      5  C   UNL     1     -35.273  22.608   1.633  0.00  0.00    +0.152 C 
ATOM      6  C   UNL     1     -36.056  22.289   3.664  0.00  0.00    +0.223 C 
ATOM      7  C   UNL     1     -35.084  21.299   2.045  0.00  0.00    +0.140 C 
ATOM      8  C   UNL     1     -34.457  20.440   1.147  0.00  0.00    +0.146 C 
ATOM      9  C   UNL     1     -34.322  22.223  -0.328  0.00  0.00    +0.253 C 
ATOM     10  N   UNL     1     -34.226  19.096   1.482  0.00  0.00    -0.313 N 
ATOM     11  H   UNL     1     -34.517  18.776   2.366  0.00  0.00    +0.149 HD
ENDROOT
BRANCH   1  14
ATOM     12  O   UNL     1     -35.170  25.495   2.639  0.00  0.00    -0.326 OA
ATOM     13  C   UNL     1     -37.046  24.993   4.037  0.00  0.00    +0.187 C 
ATOM     14  C   UNL     1     -36.320  24.629   2.746  0.00  0.00    +0.225 C 
ATOM     15  C   UNL     1     -35.965  25.677   4.849  0.00  0.00    +0.178 C 
ATOM     16  C   UNL     1     -35.152  26.370   3.774  0.00  0.00    +0.222 C 
BRANCH  16  19
ATOM     17  O   UNL     1     -32.859  25.726   3.789  0.00  0.00    -0.272 OA
ATOM     18  N   UNL     1     -33.501  27.649   4.934  0.00  0.00    -0.301 N 
ATOM     19  C   UNL     1     -33.716  26.531   4.147  0.00  0.00    +0.252 C 
ATOM     20  C   UNL     1     -32.200  28.017   5.448  0.00  0.00    +0.111 C 
ATOM     21  H   UNL     1     -34.271  28.221   5.156  0.00  0.00    +0.150 HD
ENDBRANCH  16  19
BRANCH  13  22
ATOM     22  O   UNL     1     -38.083  25.917   3.707  0.00  0.00    -0.378 OA
ATOM     23  H   UNL     1     -37.741  26.578   3.084  0.00  0.00    +0.211 HD
ENDBRANCH  13  22
BRANCH  15  24
ATOM     24  O   UNL     1     -36.497  26.582   5.794  0.00  0.00    -0.379 OA
ATOM     25  H   UNL     1     -36.236  26.309   6.688  0.00  0.00    +0.211 HD
ENDBRANCH  15  24
ENDBRANCH   1  14
BRANCH  10  26
ATOM     26  C   UNL     1     -33.586  18.169   0.597  0.00  0.00    +0.115 C 
BRANCH  26  27
ATOM     27  C   UNL     1     -34.598  17.240  -0.016  0.00  0.00    -0.001 C 
ATOM     28  C   UNL     1     -34.283  15.898  -0.184  0.00  0.00    +0.011 C 
ATOM     29  C   UNL     1     -35.834  17.737  -0.408  0.00  0.00    -0.003 C 
ATOM     30  C   UNL     1     -35.221  15.038  -0.755  0.00  0.00    +0.041 C 
ATOM     31  C   UNL     1     -36.772  16.876  -0.978  0.00  0.00    +0.001 C 
ATOM     32  C   UNL     1     -36.465  15.526  -1.151  0.00  0.00    +0.014 C 
BRANCH  30  33
ATOM     33  N   UNL     1     -34.912  13.672  -0.929  0.00  0.00    -0.357 N 
ATOM     34  H   UNL     1     -35.312  12.998  -0.334  0.00  0.00    +0.142 HD
ATOM     35  H   UNL     1     -34.296  13.395  -1.647  0.00  0.00    +0.142 HD
ENDBRANCH  30  33
ENDBRANCH  26  27
ENDBRANCH  10  26
TORSDOF 7
ENDMDL
MODEL 6
REMARK VINA RESULT:      -6.6      4.321      7.679
REMARK  Name = 192616
REMARK  7 active torsions:
REMARK  status: ('A' for Active; 'I' for Inactive)
REMARK    1  A    between atoms: N_1  and  C_12
REMARK    2  A    between atoms: C_11  and  O_20
REMARK    3  A    between atoms: C_13  and  O_22
REMARK    4  A    between atoms: C_14  and  C_17
REMARK    5  A    between atoms: N_24  and  C_26
REMARK    6  A    between atoms: C_26  and  C_27
REMARK    7  A    between atoms: C_30  and  N_33
REMARK                            x       y       z     vdW  Elec       q    Type
REMARK                         _______ _______ _______ _____ _____    ______ ____
ROOT
ATOM      1  N   UNL     1     -35.746  23.225   2.675  0.00  0.00    -0.247 N 
ATOM      2  N   UNL     1     -34.294  24.675   1.799  0.00  0.00    -0.242 NA
ATOM      3  N   UNL     1     -36.392  24.442   4.675  0.00  0.00    -0.228 NA
ATOM      4  N   UNL     1     -35.231  26.584   4.824  0.00  0.00    -0.228 NA
ATOM      5  C   UNL     1     -35.705  24.288   3.533  0.00  0.00    +0.152 C 
ATOM      6  C   UNL     1     -34.881  23.505   1.649  0.00  0.00    +0.223 C 
ATOM      7  C   UNL     1     -34.800  25.175   2.972  0.00  0.00    +0.140 C 
ATOM      8  C   UNL     1     -34.572  26.362   3.662  0.00  0.00    +0.146 C 
ATOM      9  C   UNL     1     -36.088  25.626   5.253  0.00  0.00    +0.253 C 
ATOM     10  N   UNL     1     -33.671  27.319   3.165  0.00  0.00    -0.313 N 
ATOM     11  H   UNL     1     -33.207  27.131   2.319  0.00  0.00    +0.149 HD
ENDROOT
BRANCH   1  14
ATOM     12  O   UNL     1     -35.720  20.845   2.673  0.00  0.00    -0.326 OA
ATOM     13  C   UNL     1     -37.675  21.897   1.783  0.00  0.00    +0.187 C 
ATOM     14  C   UNL     1     -36.556  22.013   2.813  0.00  0.00    +0.225 C 
ATOM     15  C   UNL     1     -37.096  20.936   0.764  0.00  0.00    +0.178 C 
ATOM     16  C   UNL     1     -36.259  20.020   1.634  0.00  0.00    +0.222 C 
BRANCH  16  19
ATOM     17  O   UNL     1     -35.098  19.269  -0.305  0.00  0.00    -0.272 OA
ATOM     18  N   UNL     1     -34.041  19.141   1.765  0.00  0.00    -0.301 N 
ATOM     19  C   UNL     1     -35.086  19.448   0.911  0.00  0.00    +0.252 C 
ATOM     20  C   UNL     1     -32.798  18.554   1.317  0.00  0.00    +0.111 C 
ATOM     21  H   UNL     1     -34.149  19.331   2.725  0.00  0.00    +0.150 HD
ENDBRANCH  16  19
BRANCH  13  22
ATOM     22  O   UNL     1     -38.806  21.315   2.433  0.00  0.00    -0.378 OA
ATOM     23  H   UNL     1     -38.554  20.457   2.811  0.00  0.00    +0.211 HD
ENDBRANCH  13  22
BRANCH  15  24
ATOM     24  O   UNL     1     -38.100  20.241   0.053  0.00  0.00    -0.379 OA
ATOM     25  H   UNL     1     -38.523  19.594   0.639  0.00  0.00    +0.211 HD
ENDBRANCH  15  24
ENDBRANCH   1  14
BRANCH  10  26
ATOM     26  C   UNL     1     -33.399  28.556   3.834  0.00  0.00    +0.115 C 
BRANCH  26  27
ATOM     27  C   UNL     1     -31.999  28.560   4.385  0.00  0.00    -0.001 C 
ATOM     28  C   UNL     1     -31.784  28.918   5.709  0.00  0.00    +0.011 C 
ATOM     29  C   UNL     1     -30.938  28.207   3.562  0.00  0.00    -0.003 C 
ATOM     30  C   UNL     1     -30.487  28.924   6.219  0.00  0.00    +0.041 C 
ATOM     31  C   UNL     1     -29.640  28.212   4.072  0.00  0.00    +0.001 C 
ATOM     32  C   UNL     1     -29.415  28.570   5.401  0.00  0.00    +0.014 C 
BRANCH  30  33
ATOM     33  N   UNL     1     -30.258  29.286   7.564  0.00  0.00    -0.357 N 
ATOM     34  H   UNL     1     -29.433  28.998   8.017  0.00  0.00    +0.142 HD
ATOM     35  H   UNL     1     -30.924  29.827   8.048  0.00  0.00    +0.142 HD
ENDBRANCH  30  33
ENDBRANCH  26  27
ENDBRANCH  10  26
TORSDOF 7
ENDMDL
MODEL 7
REMARK VINA RESULT:      -6.6      2.311      3.575
REMARK  Name = 192616
REMARK  7 active torsions:
REMARK  status: ('A' for Active; 'I' for Inactive)
REMARK    1  A    between atoms: N_1  and  C_12
REMARK    2  A    between atoms: C_11  and  O_20
REMARK    3  A    between atoms: C_13  and  O_22
REMARK    4  A    between atoms: C_14  and  C_17
REMARK    5  A    between atoms: N_24  and  C_26
REMARK    6  A    between atoms: C_26  and  C_27
REMARK    7  A    between atoms: C_30  and  N_33
REMARK                            x       y       z     vdW  Elec       q    Type
REMARK                         _______ _______ _______ _____ _____    ______ ____
ROOT
ATOM      1  N   UNL     1     -35.717  23.660   3.486  0.00  0.00    -0.247 N 
ATOM      2  N   UNL     1     -35.556  21.457   3.803  0.00  0.00    -0.242 NA
ATOM      3  N   UNL     1     -35.585  23.740   1.062  0.00  0.00    -0.228 NA
ATOM      4  N   UNL     1     -35.349  21.504   0.111  0.00  0.00    -0.228 NA
ATOM      5  C   UNL     1     -35.601  23.103   2.243  0.00  0.00    +0.152 C 
ATOM      6  C   UNL     1     -35.684  22.628   4.390  0.00  0.00    +0.223 C 
ATOM      7  C   UNL     1     -35.503  21.738   2.461  0.00  0.00    +0.140 C 
ATOM      8  C   UNL     1     -35.373  20.929   1.336  0.00  0.00    +0.146 C 
ATOM      9  C   UNL     1     -35.455  22.854   0.049  0.00  0.00    +0.253 C 
ATOM     10  N   UNL     1     -35.270  19.533   1.465  0.00  0.00    -0.313 N 
ATOM     11  H   UNL     1     -35.291  19.142   2.368  0.00  0.00    +0.149 HD
ENDROOT
BRANCH   1  14
ATOM     12  O   UNL     1     -34.970  25.859   2.967  0.00  0.00    -0.326 OA
ATOM     13  C   UNL     1     -35.520  25.424   5.254  0.00  0.00    +0.187 C 
ATOM     14  C   UNL     1     -35.852  25.082   3.805  0.00  0.00    +0.225 C 
ATOM     15  C   UNL     1     -34.110  25.969   5.156  0.00  0.00    +0.178 C 
ATOM     16  C   UNL     1     -34.130  26.659   3.807  0.00  0.00    +0.222 C 
BRANCH  16  19
ATOM     17  O   UNL     1     -31.798  27.131   3.717  0.00  0.00    -0.272 OA
ATOM     18  N   UNL     1     -32.830  26.174   1.862  0.00  0.00    -0.301 N 
ATOM     19  C   UNL     1     -32.791  26.683   3.149  0.00  0.00    +0.252 C 
ATOM     20  C   UNL     1     -31.669  26.106   1.002  0.00  0.00    +0.111 C 
ATOM     21  H   UNL     1     -33.690  25.842   1.515  0.00  0.00    +0.150 HD
ENDBRANCH  16  19
BRANCH  13  22
ATOM     22  O   UNL     1     -36.423  26.446   5.678  0.00  0.00    -0.378 OA
ATOM     23  H   UNL     1     -36.874  26.162   6.489  0.00  0.00    +0.211 HD
ENDBRANCH  13  22
BRANCH  15  24
ATOM     24  O   UNL     1     -33.804  26.855   6.214  0.00  0.00    -0.379 OA
ATOM     25  H   UNL     1     -33.119  27.479   5.926  0.00  0.00    +0.211 HD
ENDBRANCH  15  24
ENDBRANCH   1  14
BRANCH  10  26
ATOM     26  C   UNL     1     -35.134  18.654   0.343  0.00  0.00    +0.115 C 
BRANCH  26  27
ATOM     27  C   UNL     1     -33.790  17.979   0.361  0.00  0.00    -0.001 C 
ATOM     28  C   UNL     1     -33.685  16.650  -0.028  0.00  0.00    +0.011 C 
ATOM     29  C   UNL     1     -32.670  18.692   0.768  0.00  0.00    -0.003 C 
ATOM     30  C   UNL     1     -32.439  16.024  -0.009  0.00  0.00    +0.041 C 
ATOM     31  C   UNL     1     -31.425  18.067   0.786  0.00  0.00    +0.001 C 
ATOM     32  C   UNL     1     -31.309  16.732   0.397  0.00  0.00    +0.014 C 
BRANCH  30  33
ATOM     33  N   UNL     1     -32.321  14.674  -0.403  0.00  0.00    -0.357 N 
ATOM     34  H   UNL     1     -32.363  14.434  -1.356  0.00  0.00    +0.142 HD
ATOM     35  H   UNL     1     -32.197  13.972   0.277  0.00  0.00    +0.142 HD
ENDBRANCH  30  33
ENDBRANCH  26  27
ENDBRANCH  10  26
TORSDOF 7
ENDMDL
MODEL 8
REMARK VINA RESULT:      -6.6      4.758     10.874
REMARK  Name = 192616
REMARK  7 active torsions:
REMARK  status: ('A' for Active; 'I' for Inactive)
REMARK    1  A    between atoms: N_1  and  C_12
REMARK    2  A    between atoms: C_11  and  O_20
REMARK    3  A    between atoms: C_13  and  O_22
REMARK    4  A    between atoms: C_14  and  C_17
REMARK    5  A    between atoms: N_24  and  C_26
REMARK    6  A    between atoms: C_26  and  C_27
REMARK    7  A    between atoms: C_30  and  N_33
REMARK                            x       y       z     vdW  Elec       q    Type
REMARK                         _______ _______ _______ _____ _____    ______ ____
ROOT
ATOM      1  N   UNL     1     -39.653  24.674   2.181  0.00  0.00    -0.247 N 
ATOM      2  N   UNL     1     -40.069  26.610   3.209  0.00  0.00    -0.242 NA
ATOM      3  N   UNL     1     -41.800  24.307   1.104  0.00  0.00    -0.228 NA
ATOM      4  N   UNL     1     -43.362  26.117   1.599  0.00  0.00    -0.228 NA
ATOM      5  C   UNL     1     -40.944  25.001   1.871  0.00  0.00    +0.152 C 
ATOM      6  C   UNL     1     -39.171  25.673   2.988  0.00  0.00    +0.223 C 
ATOM      7  C   UNL     1     -41.182  26.204   2.516  0.00  0.00    +0.140 C 
ATOM      8  C   UNL     1     -42.446  26.763   2.359  0.00  0.00    +0.146 C 
ATOM      9  C   UNL     1     -42.988  24.946   1.027  0.00  0.00    +0.253 C 
ATOM     10  N   UNL     1     -42.773  27.982   2.977  0.00  0.00    -0.313 N 
ATOM     11  H   UNL     1     -42.088  28.430   3.523  0.00  0.00    +0.149 HD
ENDROOT
BRANCH   1  14
ATOM     12  O   UNL     1     -38.389  22.785   2.888  0.00  0.00    -0.326 OA
ATOM     13  C   UNL     1     -37.741  23.798   0.819  0.00  0.00    +0.187 C 
ATOM     14  C   UNL     1     -38.915  23.488   1.742  0.00  0.00    +0.225 C 
ATOM     15  C   UNL     1     -36.551  23.725   1.755  0.00  0.00    +0.178 C 
ATOM     16  C   UNL     1     -36.974  22.637   2.721  0.00  0.00    +0.222 C 
BRANCH  16  19
ATOM     17  O   UNL     1     -36.460  23.867   4.695  0.00  0.00    -0.272 OA
ATOM     18  N   UNL     1     -35.734  21.662   4.516  0.00  0.00    -0.301 N 
ATOM     19  C   UNL     1     -36.379  22.806   4.079  0.00  0.00    +0.252 C 
ATOM     20  C   UNL     1     -35.056  21.573   5.790  0.00  0.00    +0.111 C 
ATOM     21  H   UNL     1     -35.738  20.870   3.931  0.00  0.00    +0.150 HD
ENDBRANCH  16  19
BRANCH  13  22
ATOM     22  O   UNL     1     -37.672  22.760  -0.160  0.00  0.00    -0.378 OA
ATOM     23  H   UNL     1     -36.891  22.897  -0.720  0.00  0.00    +0.211 HD
ENDBRANCH  13  22
BRANCH  15  24
ATOM     24  O   UNL     1     -35.354  23.409   1.073  0.00  0.00    -0.379 OA
ATOM     25  H   UNL     1     -34.646  24.004   1.369  0.00  0.00    +0.211 HD
ENDBRANCH  15  24
ENDBRANCH   1  14
BRANCH  10  26
ATOM     26  C   UNL     1     -44.058  28.602   2.849  0.00  0.00    +0.115 C 
BRANCH  26  27
ATOM     27  C   UNL     1     -44.204  29.722   3.843  0.00  0.00    -0.001 C 
ATOM     28  C   UNL     1     -43.747  29.549   5.142  0.00  0.00    +0.011 C 
ATOM     29  C   UNL     1     -44.797  30.914   3.449  0.00  0.00    -0.003 C 
ATOM     30  C   UNL     1     -43.885  30.586   6.064  0.00  0.00    +0.041 C 
ATOM     31  C   UNL     1     -44.935  31.951   4.370  0.00  0.00    +0.001 C 
ATOM     32  C   UNL     1     -44.478  31.788   5.678  0.00  0.00    +0.014 C 
BRANCH  30  33
ATOM     33  N   UNL     1     -43.423  30.421   7.387  0.00  0.00    -0.357 N 
ATOM     34  H   UNL     1     -43.188  29.525   7.718  0.00  0.00    +0.142 HD
ATOM     35  H   UNL     1     -43.336  31.204   7.979  0.00  0.00    +0.142 HD
ENDBRANCH  30  33
ENDBRANCH  26  27
ENDBRANCH  10  26
TORSDOF 7
ENDMDL
MODEL 9
REMARK VINA RESULT:      -6.6      4.907      8.377
REMARK  Name = 192616
REMARK  7 active torsions:
REMARK  status: ('A' for Active; 'I' for Inactive)
REMARK    1  A    between atoms: N_1  and  C_12
REMARK    2  A    between atoms: C_11  and  O_20
REMARK    3  A    between atoms: C_13  and  O_22
REMARK    4  A    between atoms: C_14  and  C_17
REMARK    5  A    between atoms: N_24  and  C_26
REMARK    6  A    between atoms: C_26  and  C_27
REMARK    7  A    between atoms: C_30  and  N_33
REMARK                            x       y       z     vdW  Elec       q    Type
REMARK                         _______ _______ _______ _____ _____    ______ ____
ROOT
ATOM      1  N   UNL     1     -36.430  25.839   3.596  0.00  0.00    -0.247 N 
ATOM      2  N   UNL     1     -35.236  27.294   2.397  0.00  0.00    -0.242 NA
ATOM      3  N   UNL     1     -35.039  25.701   5.584  0.00  0.00    -0.228 NA
ATOM      4  N   UNL     1     -33.071  27.132   5.392  0.00  0.00    -0.228 NA
ATOM      5  C   UNL     1     -35.342  26.160   4.359  0.00  0.00    +0.152 C 
ATOM      6  C   UNL     1     -36.320  26.547   2.426  0.00  0.00    +0.223 C 
ATOM      7  C   UNL     1     -34.616  27.063   3.599  0.00  0.00    +0.140 C 
ATOM      8  C   UNL     1     -33.439  27.553   4.158  0.00  0.00    +0.146 C 
ATOM      9  C   UNL     1     -33.882  26.246   6.019  0.00  0.00    +0.253 C 
ATOM     10  N   UNL     1     -32.642  28.474   3.458  0.00  0.00    -0.313 N 
ATOM     11  H   UNL     1     -32.933  28.762   2.564  0.00  0.00    +0.149 HD
ENDROOT
BRANCH   1  14
ATOM     12  O   UNL     1     -37.075  23.555   3.773  0.00  0.00    -0.326 OA
ATOM     13  C   UNL     1     -38.776  25.104   3.114  0.00  0.00    +0.187 C 
ATOM     14  C   UNL     1     -37.513  24.919   3.949  0.00  0.00    +0.225 C 
ATOM     15  C   UNL     1     -38.671  23.986   2.096  0.00  0.00    +0.178 C 
ATOM     16  C   UNL     1     -37.992  22.893   2.895  0.00  0.00    +0.222 C 
BRANCH  16  19
ATOM     17  O   UNL     1     -37.330  21.906   0.831  0.00  0.00    -0.272 OA
ATOM     18  N   UNL     1     -36.251  21.260   2.790  0.00  0.00    -0.301 N 
ATOM     19  C   UNL     1     -37.167  21.984   2.046  0.00  0.00    +0.252 C 
ATOM     20  C   UNL     1     -35.346  20.293   2.208  0.00  0.00    +0.111 C 
ATOM     21  H   UNL     1     -36.213  21.411   3.762  0.00  0.00    +0.150 HD
ENDBRANCH  16  19
BRANCH  13  22
ATOM     22  O   UNL     1     -39.898  24.894   3.972  0.00  0.00    -0.378 OA
ATOM     23  H   UNL     1     -39.594  24.530   4.819  0.00  0.00    +0.211 HD
ENDBRANCH  13  22
BRANCH  15  24
ATOM     24  O   UNL     1     -39.935  23.593   1.601  0.00  0.00    -0.379 OA
ATOM     25  H   UNL     1     -40.455  24.381   1.377  0.00  0.00    +0.211 HD
ENDBRANCH  15  24
ENDBRANCH   1  14
BRANCH  10  26
ATOM     26  C   UNL     1     -31.423  29.010   3.985  0.00  0.00    +0.115 C 
BRANCH  26  27
ATOM     27  C   UNL     1     -31.342  30.490   3.725  0.00  0.00    -0.001 C 
ATOM     28  C   UNL     1     -32.408  31.138   3.115  0.00  0.00    +0.011 C 
ATOM     29  C   UNL     1     -30.202  31.190   4.097  0.00  0.00    -0.003 C 
ATOM     30  C   UNL     1     -32.332  32.509   2.873  0.00  0.00    +0.041 C 
ATOM     31  C   UNL     1     -30.126  32.561   3.855  0.00  0.00    +0.001 C 
ATOM     32  C   UNL     1     -31.192  33.221   3.243  0.00  0.00    +0.014 C 
BRANCH  30  33
ATOM     33  N   UNL     1     -33.410  33.177   2.254  0.00  0.00    -0.357 N 
ATOM     34  H   UNL     1     -33.657  32.958   1.327  0.00  0.00    +0.142 HD
ATOM     35  H   UNL     1     -33.915  33.862   2.751  0.00  0.00    +0.142 HD
ENDBRANCH  30  33
ENDBRANCH  26  27
ENDBRANCH  10  26
TORSDOF 7
ENDMDL
