MODEL 1
REMARK VINA RESULT:      -5.6      0.000      0.000
REMARK  Name = 53996640
REMARK  9 active torsions:
REMARK  status: ('A' for Active; 'I' for Inactive)
REMARK    1  A    between atoms: C_2  and  O_19
REMARK    2  A    between atoms: C_3  and  C_21
REMARK    3  A    between atoms: C_5  and  N_8
REMARK    4  A    between atoms: C_12  and  C_16
REMARK    5  A    between atoms: C_16  and  C_18
REMARK    6  A    between atoms: C_21  and  O_22
REMARK    7  A    between atoms: O_22  and  P_23
REMARK    8  A    between atoms: P_23  and  O_25
REMARK    9  A    between atoms: P_23  and  O_27
REMARK                            x       y       z     vdW  Elec       q    Type
REMARK                         _______ _______ _______ _____ _____    ______ ____
ROOT
ATOM      1  O   UNL     1     -38.298  25.507   2.975  0.00  0.00    -0.335 OA
ATOM      2  C   UNL     1     -37.360  26.645   1.118  0.00  0.00    +0.144 C 
ATOM      3  C   UNL     1     -38.605  25.938   1.635  0.00  0.00    +0.174 C 
ATOM      4  C   UNL     1     -36.241  25.953   1.862  0.00  0.00    +0.083 C 
ATOM      5  C   UNL     1     -36.887  25.629   3.200  0.00  0.00    +0.202 C 
ENDROOT
BRANCH   5   8
ATOM      6  O   UNL     1     -36.158  25.335   5.909  0.00  0.00    -0.252 OA
ATOM      7  O   UNL     1     -34.994  20.922   5.323  0.00  0.00    -0.270 OA
ATOM      8  N   UNL     1     -36.391  24.413   3.776  0.00  0.00    -0.219 N 
ATOM      9  N   UNL     1     -35.581  23.136   5.606  0.00  0.00    -0.236 N 
ATOM     10  C   UNL     1     -36.244  23.280   2.982  0.00  0.00    +0.079 C 
ATOM     11  C   UNL     1     -36.053  24.372   5.147  0.00  0.00    +0.315 C 
ATOM     12  C   UNL     1     -35.791  22.107   3.434  0.00  0.00    +0.104 C 
ATOM     13  C   UNL     1     -35.415  21.978   4.861  0.00  0.00    +0.257 C 
ATOM     14  H   UNL     1     -35.339  23.085   6.559  0.00  0.00    +0.159 HD
BRANCH  12  16
ATOM     15  O   UNL     1     -36.489  20.061   2.539  0.00  0.00    -0.290 OA
ATOM     16  C   UNL     1     -35.691  21.002   2.478  0.00  0.00    +0.190 C 
BRANCH  16  18
ATOM     17 BR   UNL     1     -33.750  19.390   1.217  0.00  0.00    -0.072 Br
ATOM     18  C   UNL     1     -34.620  21.111   1.418  0.00  0.00    +0.137 C 
ENDBRANCH  16  18
ENDBRANCH  12  16
ENDBRANCH   5   8
BRANCH   2  19
ATOM     19  O   UNL     1     -37.398  28.023   1.481  0.00  0.00    -0.382 OA
ATOM     20  H   UNL     1     -37.103  28.124   2.400  0.00  0.00    +0.210 HD
ENDBRANCH   2  19
BRANCH   3  21
ATOM     21  C   UNL     1     -38.970  24.706   0.819  0.00  0.00    +0.186 C 
BRANCH  21  22
ATOM     22  O   UNL     1     -39.397  23.681   1.701  0.00  0.00    -0.271 OA
BRANCH  22  23
ATOM     23  P   UNL     1     -39.544  22.176   1.123  0.00  0.00    +0.473 P 
ATOM     24  O   UNL     1     -40.855  21.879   0.458  0.00  0.00    -0.227 OA
BRANCH  23  25
ATOM     25  O   UNL     1     -39.184  21.240   2.392  0.00  0.00    -0.303 OA
ATOM     26  H   UNL     1     -38.221  21.166   2.475  0.00  0.00    +0.222 HD
ENDBRANCH  23  25
BRANCH  23  27
ATOM     27  O   UNL     1     -38.245  22.028   0.171  0.00  0.00    -0.303 OA
ATOM     28  H   UNL     1     -38.099  21.092  -0.033  0.00  0.00    +0.222 HD
ENDBRANCH  23  27
ENDBRANCH  22  23
ENDBRANCH  21  22
ENDBRANCH   3  21
TORSDOF 9
ENDMDL
MODEL 2
REMARK VINA RESULT:      -5.5      2.687      4.429
REMARK  Name = 53996640
REMARK  9 active torsions:
REMARK  status: ('A' for Active; 'I' for Inactive)
REMARK    1  A    between atoms: C_2  and  O_19
REMARK    2  A    between atoms: C_3  and  C_21
REMARK    3  A    between atoms: C_5  and  N_8
REMARK    4  A    between atoms: C_12  and  C_16
REMARK    5  A    between atoms: C_16  and  C_18
REMARK    6  A    between atoms: C_21  and  O_22
REMARK    7  A    between atoms: O_22  and  P_23
REMARK    8  A    between atoms: P_23  and  O_25
REMARK    9  A    between atoms: P_23  and  O_27
REMARK                            x       y       z     vdW  Elec       q    Type
REMARK                         _______ _______ _______ _____ _____    ______ ____
ROOT
ATOM      1  O   UNL     1     -40.126  24.334   0.736  0.00  0.00    -0.335 OA
ATOM      2  C   UNL     1     -40.713  26.119   2.181  0.00  0.00    +0.144 C 
ATOM      3  C   UNL     1     -40.273  25.766   0.767  0.00  0.00    +0.174 C 
ATOM      4  C   UNL     1     -40.094  25.021   3.015  0.00  0.00    +0.083 C 
ATOM      5  C   UNL     1     -40.149  23.826   2.077  0.00  0.00    +0.202 C 
ENDROOT
BRANCH   5   8
ATOM      6  O   UNL     1     -40.227  21.077   1.451  0.00  0.00    -0.252 OA
ATOM      7  O   UNL     1     -35.880  20.439   2.818  0.00  0.00    -0.270 OA
ATOM      8  N   UNL     1     -39.050  22.924   2.262  0.00  0.00    -0.219 N 
ATOM      9  N   UNL     1     -38.059  20.769   2.135  0.00  0.00    -0.236 N 
ATOM     10  C   UNL     1     -37.848  23.393   2.781  0.00  0.00    +0.079 C 
ATOM     11  C   UNL     1     -39.193  21.561   1.916  0.00  0.00    +0.315 C 
ATOM     12  C   UNL     1     -36.774  22.626   2.986  0.00  0.00    +0.104 C 
ATOM     13  C   UNL     1     -36.840  21.185   2.649  0.00  0.00    +0.257 C 
ATOM     14  H   UNL     1     -38.137  19.816   1.901  0.00  0.00    +0.159 HD
BRANCH  12  16
ATOM     15  O   UNL     1     -34.630  23.543   2.799  0.00  0.00    -0.290 OA
ATOM     16  C   UNL     1     -35.577  23.263   3.540  0.00  0.00    +0.190 C 
BRANCH  16  18
ATOM     17 BR   UNL     1     -35.232  21.978   6.027  0.00  0.00    -0.072 Br
ATOM     18  C   UNL     1     -35.599  23.590   5.015  0.00  0.00    +0.137 C 
ENDBRANCH  16  18
ENDBRANCH  12  16
ENDBRANCH   5   8
BRANCH   2  19
ATOM     19  O   UNL     1     -42.133  26.055   2.279  0.00  0.00    -0.382 OA
ATOM     20  H   UNL     1     -42.381  25.509   3.042  0.00  0.00    +0.210 HD
ENDBRANCH   2  19
BRANCH   3  21
ATOM     21  C   UNL     1     -38.933  26.383   0.390  0.00  0.00    +0.186 C 
BRANCH  21  22
ATOM     22  O   UNL     1     -38.444  27.126   1.495  0.00  0.00    -0.271 OA
BRANCH  22  23
ATOM     23  P   UNL     1     -36.860  27.065   1.824  0.00  0.00    +0.473 P 
ATOM     24  O   UNL     1     -36.047  26.228   0.881  0.00  0.00    -0.227 OA
BRANCH  23  25
ATOM     25  O   UNL     1     -36.808  26.608   3.375  0.00  0.00    -0.303 OA
ATOM     26  H   UNL     1     -37.708  26.437   3.692  0.00  0.00    +0.222 HD
ENDBRANCH  23  25
BRANCH  23  27
ATOM     27  O   UNL     1     -36.445  28.627   1.883  0.00  0.00    -0.303 OA
ATOM     28  H   UNL     1     -35.612  28.723   2.371  0.00  0.00    +0.222 HD
ENDBRANCH  23  27
ENDBRANCH  22  23
ENDBRANCH  21  22
ENDBRANCH   3  21
TORSDOF 9
ENDMDL
MODEL 3
REMARK VINA RESULT:      -5.5      2.684      4.646
REMARK  Name = 53996640
REMARK  9 active torsions:
REMARK  status: ('A' for Active; 'I' for Inactive)
REMARK    1  A    between atoms: C_2  and  O_19
REMARK    2  A    between atoms: C_3  and  C_21
REMARK    3  A    between atoms: C_5  and  N_8
REMARK    4  A    between atoms: C_12  and  C_16
REMARK    5  A    between atoms: C_16  and  C_18
REMARK    6  A    between atoms: C_21  and  O_22
REMARK    7  A    between atoms: O_22  and  P_23
REMARK    8  A    between atoms: P_23  and  O_25
REMARK    9  A    between atoms: P_23  and  O_27
REMARK                            x       y       z     vdW  Elec       q    Type
REMARK                         _______ _______ _______ _____ _____    ______ ____
ROOT
ATOM      1  O   UNL     1     -37.745  22.933   3.379  0.00  0.00    -0.335 OA
ATOM      2  C   UNL     1     -39.087  23.723   1.592  0.00  0.00    +0.144 C 
ATOM      3  C   UNL     1     -38.301  22.528   2.113  0.00  0.00    +0.174 C 
ATOM      4  C   UNL     1     -38.351  24.902   2.187  0.00  0.00    +0.083 C 
ATOM      5  C   UNL     1     -37.878  24.353   3.523  0.00  0.00    +0.202 C 
ENDROOT
BRANCH   5   8
ATOM      6  O   UNL     1     -36.250  23.258   5.549  0.00  0.00    -0.252 OA
ATOM      7  O   UNL     1     -33.073  26.550   5.051  0.00  0.00    -0.270 OA
ATOM      8  N   UNL     1     -36.623  24.908   3.939  0.00  0.00    -0.219 N 
ATOM      9  N   UNL     1     -34.672  24.904   5.293  0.00  0.00    -0.236 N 
ATOM     10  C   UNL     1     -36.139  26.061   3.329  0.00  0.00    +0.079 C 
ATOM     11  C   UNL     1     -35.883  24.281   4.966  0.00  0.00    +0.315 C 
ATOM     12  C   UNL     1     -34.982  26.645   3.651  0.00  0.00    +0.104 C 
ATOM     13  C   UNL     1     -34.144  26.050   4.719  0.00  0.00    +0.257 C 
ATOM     14  H   UNL     1     -34.141  24.484   6.007  0.00  0.00    +0.159 HD
BRANCH  12  16
ATOM     15  O   UNL     1     -34.603  28.948   3.496  0.00  0.00    -0.290 OA
ATOM     16  C   UNL     1     -34.603  27.856   2.920  0.00  0.00    +0.190 C 
BRANCH  16  18
ATOM     17 BR   UNL     1     -32.451  26.797   1.434  0.00  0.00    -0.072 Br
ATOM     18  C   UNL     1     -34.178  27.680   1.481  0.00  0.00    +0.137 C 
ENDBRANCH  16  18
ENDBRANCH  12  16
ENDBRANCH   5   8
BRANCH   2  19
ATOM     19  O   UNL     1     -40.420  23.685   2.095  0.00  0.00    -0.382 OA
ATOM     20  H   UNL     1     -40.417  23.919   3.037  0.00  0.00    +0.210 HD
ENDBRANCH   2  19
BRANCH   3  21
ATOM     21  C   UNL     1     -37.149  22.132   1.200  0.00  0.00    +0.186 C 
BRANCH  21  22
ATOM     22  O   UNL     1     -35.964  22.035   1.973  0.00  0.00    -0.271 OA
BRANCH  22  23
ATOM     23  P   UNL     1     -35.522  20.580   2.529  0.00  0.00    +0.473 P 
ATOM     24  O   UNL     1     -34.286  20.010   1.898  0.00  0.00    -0.227 OA
BRANCH  23  25
ATOM     25  O   UNL     1     -36.859  19.684   2.365  0.00  0.00    -0.303 OA
ATOM     26  H   UNL     1     -36.651  18.757   2.561  0.00  0.00    +0.222 HD
ENDBRANCH  23  25
BRANCH  23  27
ATOM     27  O   UNL     1     -35.427  20.819   4.126  0.00  0.00    -0.303 OA
ATOM     28  H   UNL     1     -35.677  21.733   4.332  0.00  0.00    +0.222 HD
ENDBRANCH  23  27
ENDBRANCH  22  23
ENDBRANCH  21  22
ENDBRANCH   3  21
TORSDOF 9
ENDMDL
MODEL 4
REMARK VINA RESULT:      -5.5      2.839      6.254
REMARK  Name = 53996640
REMARK  9 active torsions:
REMARK  status: ('A' for Active; 'I' for Inactive)
REMARK    1  A    between atoms: C_2  and  O_19
REMARK    2  A    between atoms: C_3  and  C_21
REMARK    3  A    between atoms: C_5  and  N_8
REMARK    4  A    between atoms: C_12  and  C_16
REMARK    5  A    between atoms: C_16  and  C_18
REMARK    6  A    between atoms: C_21  and  O_22
REMARK    7  A    between atoms: O_22  and  P_23
REMARK    8  A    between atoms: P_23  and  O_25
REMARK    9  A    between atoms: P_23  and  O_27
REMARK                            x       y       z     vdW  Elec       q    Type
REMARK                         _______ _______ _______ _____ _____    ______ ____
ROOT
ATOM      1  O   UNL     1     -37.137  23.012   4.011  0.00  0.00    -0.335 OA
ATOM      2  C   UNL     1     -35.621  21.573   2.893  0.00  0.00    +0.144 C 
ATOM      3  C   UNL     1     -35.823  22.435   4.131  0.00  0.00    +0.174 C 
ATOM      4  C   UNL     1     -36.468  22.268   1.852  0.00  0.00    +0.083 C 
ATOM      5  C   UNL     1     -37.623  22.812   2.677  0.00  0.00    +0.202 C 
ENDROOT
BRANCH   5   8
ATOM      6  O   UNL     1     -40.340  23.286   2.083  0.00  0.00    -0.252 OA
ATOM      7  O   UNL     1     -39.497  27.601   0.726  0.00  0.00    -0.270 OA
ATOM      8  N   UNL     1     -38.135  24.051   2.167  0.00  0.00    -0.219 N 
ATOM      9  N   UNL     1     -39.909  25.435   1.408  0.00  0.00    -0.236 N 
ATOM     10  C   UNL     1     -37.269  25.115   1.937  0.00  0.00    +0.079 C 
ATOM     11  C   UNL     1     -39.516  24.185   1.902  0.00  0.00    +0.315 C 
ATOM     12  C   UNL     1     -37.658  26.303   1.465  0.00  0.00    +0.104 C 
ATOM     13  C   UNL     1     -39.091  26.527   1.161  0.00  0.00    +0.257 C 
ATOM     14  H   UNL     1     -40.867  25.550   1.216  0.00  0.00    +0.159 HD
BRANCH  12  16
ATOM     15  O   UNL     1     -36.191  27.950   2.246  0.00  0.00    -0.290 OA
ATOM     16  C   UNL     1     -36.631  27.330   1.273  0.00  0.00    +0.190 C 
BRANCH  16  18
ATOM     17 BR   UNL     1     -34.344  26.784  -0.285  0.00  0.00    -0.072 Br
ATOM     18  C   UNL     1     -36.126  27.534  -0.136  0.00  0.00    +0.137 C 
ENDBRANCH  16  18
ENDBRANCH  12  16
ENDBRANCH   5   8
BRANCH   2  19
ATOM     19  O   UNL     1     -36.127  20.262   3.126  0.00  0.00    -0.382 OA
ATOM     20  H   UNL     1     -35.884  19.684   2.386  0.00  0.00    +0.210 HD
ENDBRANCH   2  19
BRANCH   3  21
ATOM     21  C   UNL     1     -34.818  23.575   4.231  0.00  0.00    +0.186 C 
BRANCH  21  22
ATOM     22  O   UNL     1     -35.202  24.432   5.294  0.00  0.00    -0.271 OA
BRANCH  22  23
ATOM     23  P   UNL     1     -34.880  26.013   5.165  0.00  0.00    +0.473 P 
ATOM     24  O   UNL     1     -33.956  26.560   6.213  0.00  0.00    -0.227 OA
BRANCH  23  25
ATOM     25  O   UNL     1     -36.344  26.699   5.108  0.00  0.00    -0.303 OA
ATOM     26  H   UNL     1     -36.390  27.416   5.759  0.00  0.00    +0.222 HD
ENDBRANCH  23  25
BRANCH  23  27
ATOM     27  O   UNL     1     -34.345  26.148   3.645  0.00  0.00    -0.303 OA
ATOM     28  H   UNL     1     -34.966  25.707   3.044  0.00  0.00    +0.222 HD
ENDBRANCH  23  27
ENDBRANCH  22  23
ENDBRANCH  21  22
ENDBRANCH   3  21
TORSDOF 9
ENDMDL
MODEL 5
REMARK VINA RESULT:      -5.4      1.647      2.330
REMARK  Name = 53996640
REMARK  9 active torsions:
REMARK  status: ('A' for Active; 'I' for Inactive)
REMARK    1  A    between atoms: C_2  and  O_19
REMARK    2  A    between atoms: C_3  and  C_21
REMARK    3  A    between atoms: C_5  and  N_8
REMARK    4  A    between atoms: C_12  and  C_16
REMARK    5  A    between atoms: C_16  and  C_18
REMARK    6  A    between atoms: C_21  and  O_22
REMARK    7  A    between atoms: O_22  and  P_23
REMARK    8  A    between atoms: P_23  and  O_25
REMARK    9  A    between atoms: P_23  and  O_27
REMARK                            x       y       z     vdW  Elec       q    Type
REMARK                         _______ _______ _______ _____ _____    ______ ____
ROOT
ATOM      1  O   UNL     1     -36.135  26.586   3.189  0.00  0.00    -0.335 OA
ATOM      2  C   UNL     1     -35.316  26.951   0.994  0.00  0.00    +0.144 C 
ATOM      3  C   UNL     1     -36.528  27.102   1.902  0.00  0.00    +0.174 C 
ATOM      4  C   UNL     1     -34.608  25.745   1.568  0.00  0.00    +0.083 C 
ATOM      5  C   UNL     1     -34.900  25.870   3.055  0.00  0.00    +0.202 C 
ENDROOT
BRANCH   5   8
ATOM      6  O   UNL     1     -34.444  25.445   5.806  0.00  0.00    -0.252 OA
ATOM      7  O   UNL     1     -35.373  20.951   5.470  0.00  0.00    -0.270 OA
ATOM      8  N   UNL     1     -35.017  24.598   3.706  0.00  0.00    -0.219 N 
ATOM      9  N   UNL     1     -34.909  23.206   5.628  0.00  0.00    -0.236 N 
ATOM     10  C   UNL     1     -35.377  23.473   2.971  0.00  0.00    +0.079 C 
ATOM     11  C   UNL     1     -34.765  24.493   5.093  0.00  0.00    +0.315 C 
ATOM     12  C   UNL     1     -35.509  22.251   3.494  0.00  0.00    +0.104 C 
ATOM     13  C   UNL     1     -35.264  22.054   4.942  0.00  0.00    +0.257 C 
ATOM     14  H   UNL     1     -34.737  23.110   6.592  0.00  0.00    +0.159 HD
BRANCH  12  16
ATOM     15  O   UNL     1     -37.054  21.091   2.176  0.00  0.00    -0.290 OA
ATOM     16  C   UNL     1     -35.894  21.162   2.594  0.00  0.00    +0.190 C 
BRANCH  16  18
ATOM     17 BR   UNL     1     -33.966  20.843   0.560  0.00  0.00    -0.072 Br
ATOM     18  C   UNL     1     -34.805  20.198   2.185  0.00  0.00    +0.137 C 
ENDBRANCH  16  18
ENDBRANCH  12  16
ENDBRANCH   5   8
BRANCH   2  19
ATOM     19  O   UNL     1     -34.479  28.098   1.105  0.00  0.00    -0.382 OA
ATOM     20  H   UNL     1     -34.744  28.758   0.444  0.00  0.00    +0.210 HD
ENDBRANCH   2  19
BRANCH   3  21
ATOM     21  C   UNL     1     -37.732  26.302   1.425  0.00  0.00    +0.186 C 
BRANCH  21  22
ATOM     22  O   UNL     1     -38.818  26.538   2.306  0.00  0.00    -0.271 OA
BRANCH  22  23
ATOM     23  P   UNL     1     -39.523  25.266   3.019  0.00  0.00    +0.473 P 
ATOM     24  O   UNL     1     -39.974  24.184   2.083  0.00  0.00    -0.227 OA
BRANCH  23  25
ATOM     25  O   UNL     1     -40.689  25.931   3.922  0.00  0.00    -0.303 OA
ATOM     26  H   UNL     1     -40.353  26.088   4.818  0.00  0.00    +0.222 HD
ENDBRANCH  23  25
BRANCH  23  27
ATOM     27  O   UNL     1     -38.421  24.810   4.112  0.00  0.00    -0.303 OA
ATOM     28  H   UNL     1     -38.849  24.700   4.975  0.00  0.00    +0.222 HD
ENDBRANCH  23  27
ENDBRANCH  22  23
ENDBRANCH  21  22
ENDBRANCH   3  21
TORSDOF 9
ENDMDL
MODEL 6
REMARK VINA RESULT:      -5.4      2.233      3.417
REMARK  Name = 53996640
REMARK  9 active torsions:
REMARK  status: ('A' for Active; 'I' for Inactive)
REMARK    1  A    between atoms: C_2  and  O_19
REMARK    2  A    between atoms: C_3  and  C_21
REMARK    3  A    between atoms: C_5  and  N_8
REMARK    4  A    between atoms: C_12  and  C_16
REMARK    5  A    between atoms: C_16  and  C_18
REMARK    6  A    between atoms: C_21  and  O_22
REMARK    7  A    between atoms: O_22  and  P_23
REMARK    8  A    between atoms: P_23  and  O_25
REMARK    9  A    between atoms: P_23  and  O_27
REMARK                            x       y       z     vdW  Elec       q    Type
REMARK                         _______ _______ _______ _____ _____    ______ ____
ROOT
ATOM      1  O   UNL     1     -35.953  25.807   3.983  0.00  0.00    -0.335 OA
ATOM      2  C   UNL     1     -33.958  27.016   3.559  0.00  0.00    +0.144 C 
ATOM      3  C   UNL     1     -35.469  27.020   3.374  0.00  0.00    +0.174 C 
ATOM      4  C   UNL     1     -33.622  25.542   3.584  0.00  0.00    +0.083 C 
ATOM      5  C   UNL     1     -34.846  24.937   4.252  0.00  0.00    +0.202 C 
ENDROOT
BRANCH   5   8
ATOM      6  O   UNL     1     -35.887  22.859   5.850  0.00  0.00    -0.252 OA
ATOM      7  O   UNL     1     -35.978  19.917   2.313  0.00  0.00    -0.270 OA
ATOM      8  N   UNL     1     -35.148  23.621   3.770  0.00  0.00    -0.219 N 
ATOM      9  N   UNL     1     -35.928  21.400   4.080  0.00  0.00    -0.236 N 
ATOM     10  C   UNL     1     -34.929  23.307   2.432  0.00  0.00    +0.079 C 
ATOM     11  C   UNL     1     -35.667  22.650   4.655  0.00  0.00    +0.315 C 
ATOM     12  C   UNL     1     -35.182  22.109   1.898  0.00  0.00    +0.104 C 
ATOM     13  C   UNL     1     -35.729  21.034   2.757  0.00  0.00    +0.257 C 
ATOM     14  H   UNL     1     -36.290  20.708   4.679  0.00  0.00    +0.159 HD
BRANCH  12  16
ATOM     15  O   UNL     1     -35.829  21.904  -0.341  0.00  0.00    -0.290 OA
ATOM     16  C   UNL     1     -34.901  21.926   0.472  0.00  0.00    +0.190 C 
BRANCH  16  18
ATOM     17 BR   UNL     1     -32.827  20.015   0.402  0.00  0.00    -0.072 Br
ATOM     18  C   UNL     1     -33.447  21.822   0.071  0.00  0.00    +0.137 C 
ENDBRANCH  16  18
ENDBRANCH  12  16
ENDBRANCH   5   8
BRANCH   2  19
ATOM     19  O   UNL     1     -33.619  27.607   4.811  0.00  0.00    -0.382 OA
ATOM     20  H   UNL     1     -34.277  27.352   5.478  0.00  0.00    +0.210 HD
ENDBRANCH   2  19
BRANCH   3  21
ATOM     21  C   UNL     1     -35.888  27.010   1.911  0.00  0.00    +0.186 C 
BRANCH  21  22
ATOM     22  O   UNL     1     -37.227  27.468   1.815  0.00  0.00    -0.271 OA
BRANCH  22  23
ATOM     23  P   UNL     1     -38.419  26.372   1.805  0.00  0.00    +0.473 P 
ATOM     24  O   UNL     1     -38.039  25.028   1.258  0.00  0.00    -0.227 OA
BRANCH  23  25
ATOM     25  O   UNL     1     -39.622  27.121   1.026  0.00  0.00    -0.303 OA
ATOM     26  H   UNL     1     -40.309  26.476   0.796  0.00  0.00    +0.222 HD
ENDBRANCH  23  25
BRANCH  23  27
ATOM     27  O   UNL     1     -38.916  26.369   3.344  0.00  0.00    -0.303 OA
ATOM     28  H   UNL     1     -38.254  26.808   3.899  0.00  0.00    +0.222 HD
ENDBRANCH  23  27
ENDBRANCH  22  23
ENDBRANCH  21  22
ENDBRANCH   3  21
TORSDOF 9
ENDMDL
MODEL 7
REMARK VINA RESULT:      -5.3      2.488      5.134
REMARK  Name = 53996640
REMARK  9 active torsions:
REMARK  status: ('A' for Active; 'I' for Inactive)
REMARK    1  A    between atoms: C_2  and  O_19
REMARK    2  A    between atoms: C_3  and  C_21
REMARK    3  A    between atoms: C_5  and  N_8
REMARK    4  A    between atoms: C_12  and  C_16
REMARK    5  A    between atoms: C_16  and  C_18
REMARK    6  A    between atoms: C_21  and  O_22
REMARK    7  A    between atoms: O_22  and  P_23
REMARK    8  A    between atoms: P_23  and  O_25
REMARK    9  A    between atoms: P_23  and  O_27
REMARK                            x       y       z     vdW  Elec       q    Type
REMARK                         _______ _______ _______ _____ _____    ______ ____
ROOT
ATOM      1  O   UNL     1     -34.618  23.393   3.550  0.00  0.00    -0.335 OA
ATOM      2  C   UNL     1     -35.642  22.572   5.524  0.00  0.00    +0.144 C 
ATOM      3  C   UNL     1     -35.549  22.397   4.015  0.00  0.00    +0.174 C 
ATOM      4  C   UNL     1     -35.362  24.045   5.715  0.00  0.00    +0.083 C 
ATOM      5  C   UNL     1     -34.371  24.338   4.601  0.00  0.00    +0.202 C 
ENDROOT
BRANCH   5   8
ATOM      6  O   UNL     1     -32.970  26.574   5.598  0.00  0.00    -0.252 OA
ATOM      7  O   UNL     1     -34.919  29.409   2.542  0.00  0.00    -0.270 OA
ATOM      8  N   UNL     1     -34.498  25.669   4.081  0.00  0.00    -0.219 N 
ATOM      9  N   UNL     1     -33.948  27.979   4.071  0.00  0.00    -0.236 N 
ATOM     10  C   UNL     1     -35.357  25.917   3.015  0.00  0.00    +0.079 C 
ATOM     11  C   UNL     1     -33.749  26.721   4.655  0.00  0.00    +0.315 C 
ATOM     12  C   UNL     1     -35.536  27.123   2.469  0.00  0.00    +0.104 C 
ATOM     13  C   UNL     1     -34.789  28.282   3.010  0.00  0.00    +0.257 C 
ATOM     14  H   UNL     1     -33.437  28.727   4.455  0.00  0.00    +0.159 HD
BRANCH  12  16
ATOM     15  O   UNL     1     -37.607  27.685   1.537  0.00  0.00    -0.290 OA
ATOM     16  C   UNL     1     -36.475  27.231   1.349  0.00  0.00    +0.190 C 
BRANCH  16  18
ATOM     17 BR   UNL     1     -36.685  25.067  -0.448  0.00  0.00    -0.072 Br
ATOM     18  C   UNL     1     -35.966  26.814  -0.011  0.00  0.00    +0.137 C 
ENDBRANCH  16  18
ENDBRANCH  12  16
ENDBRANCH   5   8
BRANCH   2  19
ATOM     19  O   UNL     1     -34.629  21.803   6.166  0.00  0.00    -0.382 OA
ATOM     20  H   UNL     1     -34.592  20.918   5.767  0.00  0.00    +0.210 HD
ENDBRANCH   2  19
BRANCH   3  21
ATOM     21  C   UNL     1     -36.877  22.631   3.307  0.00  0.00    +0.186 C 
BRANCH  21  22
ATOM     22  O   UNL     1     -36.763  22.192   1.963  0.00  0.00    -0.271 OA
BRANCH  22  23
ATOM     23  P   UNL     1     -37.546  20.845   1.523  0.00  0.00    +0.473 P 
ATOM     24  O   UNL     1     -37.562  20.574   0.048  0.00  0.00    -0.227 OA
BRANCH  23  25
ATOM     25  O   UNL     1     -39.001  21.004   2.213  0.00  0.00    -0.303 OA
ATOM     26  H   UNL     1     -39.663  20.535   1.682  0.00  0.00    +0.222 HD
ENDBRANCH  23  25
BRANCH  23  27
ATOM     27  O   UNL     1     -36.832  19.705   2.420  0.00  0.00    -0.303 OA
ATOM     28  H   UNL     1     -36.250  19.169   1.858  0.00  0.00    +0.222 HD
ENDBRANCH  23  27
ENDBRANCH  22  23
ENDBRANCH  21  22
ENDBRANCH   3  21
TORSDOF 9
ENDMDL
MODEL 8
REMARK VINA RESULT:      -5.3      2.770      4.665
REMARK  Name = 53996640
REMARK  9 active torsions:
REMARK  status: ('A' for Active; 'I' for Inactive)
REMARK    1  A    between atoms: C_2  and  O_19
REMARK    2  A    between atoms: C_3  and  C_21
REMARK    3  A    between atoms: C_5  and  N_8
REMARK    4  A    between atoms: C_12  and  C_16
REMARK    5  A    between atoms: C_16  and  C_18
REMARK    6  A    between atoms: C_21  and  O_22
REMARK    7  A    between atoms: O_22  and  P_23
REMARK    8  A    between atoms: P_23  and  O_25
REMARK    9  A    between atoms: P_23  and  O_27
REMARK                            x       y       z     vdW  Elec       q    Type
REMARK                         _______ _______ _______ _____ _____    ______ ____
ROOT
ATOM      1  O   UNL     1     -38.456  23.055   0.145  0.00  0.00    -0.335 OA
ATOM      2  C   UNL     1     -39.616  21.273   1.194  0.00  0.00    +0.144 C 
ATOM      3  C   UNL     1     -39.777  22.639   0.542  0.00  0.00    +0.174 C 
ATOM      4  C   UNL     1     -38.220  21.333   1.772  0.00  0.00    +0.083 C 
ATOM      5  C   UNL     1     -37.484  22.200   0.763  0.00  0.00    +0.202 C 
ENDROOT
BRANCH   5   8
ATOM      6  O   UNL     1     -35.237  23.204  -0.615  0.00  0.00    -0.252 OA
ATOM      7  O   UNL     1     -33.604  25.279   3.154  0.00  0.00    -0.270 OA
ATOM      8  N   UNL     1     -36.460  23.004   1.365  0.00  0.00    -0.219 N 
ATOM      9  N   UNL     1     -34.431  24.235   1.269  0.00  0.00    -0.236 N 
ATOM     10  C   UNL     1     -36.541  23.334   2.714  0.00  0.00    +0.079 C 
ATOM     11  C   UNL     1     -35.373  23.457   0.584  0.00  0.00    +0.315 C 
ATOM     12  C   UNL     1     -35.635  24.077   3.355  0.00  0.00    +0.104 C 
ATOM     13  C   UNL     1     -34.463  24.593   2.609  0.00  0.00    +0.257 C 
ATOM     14  H   UNL     1     -33.665  24.560   0.745  0.00  0.00    +0.159 HD
BRANCH  12  16
ATOM     15  O   UNL     1     -36.839  24.997   5.138  0.00  0.00    -0.290 OA
ATOM     16  C   UNL     1     -35.855  24.342   4.779  0.00  0.00    +0.190 C 
BRANCH  16  18
ATOM     17 BR   UNL     1     -35.287  21.863   6.000  0.00  0.00    -0.072 Br
ATOM     18  C   UNL     1     -34.864  23.739   5.746  0.00  0.00    +0.137 C 
ENDBRANCH  16  18
ENDBRANCH  12  16
ENDBRANCH   5   8
BRANCH   2  19
ATOM     19  O   UNL     1     -39.682  20.251   0.203  0.00  0.00    -0.382 OA
ATOM     20  H   UNL     1     -38.837  19.773   0.174  0.00  0.00    +0.210 HD
ENDBRANCH   2  19
BRANCH   3  21
ATOM     21  C   UNL     1     -40.333  23.689   1.494  0.00  0.00    +0.186 C 
BRANCH  21  22
ATOM     22  O   UNL     1     -39.460  24.807   1.503  0.00  0.00    -0.271 OA
BRANCH  22  23
ATOM     23  P   UNL     1     -39.542  25.839   2.747  0.00  0.00    +0.473 P 
ATOM     24  O   UNL     1     -40.706  26.785   2.711  0.00  0.00    -0.227 OA
BRANCH  23  25
ATOM     25  O   UNL     1     -38.083  26.538   2.762  0.00  0.00    -0.303 OA
ATOM     26  H   UNL     1     -37.418  25.891   3.044  0.00  0.00    +0.222 HD
ENDBRANCH  23  25
BRANCH  23  27
ATOM     27  O   UNL     1     -39.498  24.858   4.033  0.00  0.00    -0.303 OA
ATOM     28  H   UNL     1     -39.252  25.368   4.820  0.00  0.00    +0.222 HD
ENDBRANCH  23  27
ENDBRANCH  22  23
ENDBRANCH  21  22
ENDBRANCH   3  21
TORSDOF 9
ENDMDL
MODEL 9
REMARK VINA RESULT:      -5.3      3.443      5.839
REMARK  Name = 53996640
REMARK  9 active torsions:
REMARK  status: ('A' for Active; 'I' for Inactive)
REMARK    1  A    between atoms: C_2  and  O_19
REMARK    2  A    between atoms: C_3  and  C_21
REMARK    3  A    between atoms: C_5  and  N_8
REMARK    4  A    between atoms: C_12  and  C_16
REMARK    5  A    between atoms: C_16  and  C_18
REMARK    6  A    between atoms: C_21  and  O_22
REMARK    7  A    between atoms: O_22  and  P_23
REMARK    8  A    between atoms: P_23  and  O_25
REMARK    9  A    between atoms: P_23  and  O_27
REMARK                            x       y       z     vdW  Elec       q    Type
REMARK                         _______ _______ _______ _____ _____    ______ ____
ROOT
ATOM      1  O   UNL     1     -34.417  24.099   3.554  0.00  0.00    -0.335 OA
ATOM      2  C   UNL     1     -35.834  23.430   5.334  0.00  0.00    +0.144 C 
ATOM      3  C   UNL     1     -35.514  23.217   3.860  0.00  0.00    +0.174 C 
ATOM      4  C   UNL     1     -35.431  24.868   5.566  0.00  0.00    +0.083 C 
ATOM      5  C   UNL     1     -34.245  25.033   4.629  0.00  0.00    +0.202 C 
ENDROOT
BRANCH   5   8
ATOM      6  O   UNL     1     -32.534  27.029   5.650  0.00  0.00    -0.252 OA
ATOM      7  O   UNL     1     -33.909  30.096   2.507  0.00  0.00    -0.270 OA
ATOM      8  N   UNL     1     -34.141  26.358   4.093  0.00  0.00    -0.219 N 
ATOM      9  N   UNL     1     -33.226  28.550   4.079  0.00  0.00    -0.236 N 
ATOM     10  C   UNL     1     -34.916  26.726   2.998  0.00  0.00    +0.079 C 
ATOM     11  C   UNL     1     -33.250  27.286   4.681  0.00  0.00    +0.315 C 
ATOM     12  C   UNL     1     -34.882  27.937   2.435  0.00  0.00    +0.104 C 
ATOM     13  C   UNL     1     -33.975  28.969   2.989  0.00  0.00    +0.257 C 
ATOM     14  H   UNL     1     -32.613  29.212   4.473  0.00  0.00    +0.159 HD
BRANCH  12  16
ATOM     15  O   UNL     1     -36.941  28.479   1.464  0.00  0.00    -0.290 OA
ATOM     16  C   UNL     1     -35.757  28.178   1.285  0.00  0.00    +0.190 C 
BRANCH  16  18
ATOM     17 BR   UNL     1     -35.186  29.835  -0.926  0.00  0.00    -0.072 Br
ATOM     18  C   UNL     1     -35.124  28.089  -0.084  0.00  0.00    +0.137 C 
ENDBRANCH  16  18
ENDBRANCH  12  16
ENDBRANCH   5   8
BRANCH   2  19
ATOM     19  O   UNL     1     -35.028  22.570   6.135  0.00  0.00    -0.382 OA
ATOM     20  H   UNL     1     -35.093  22.839   7.065  0.00  0.00    +0.210 HD
ENDBRANCH   2  19
BRANCH   3  21
ATOM     21  C   UNL     1     -36.675  23.577   2.943  0.00  0.00    +0.186 C 
BRANCH  21  22
ATOM     22  O   UNL     1     -37.775  23.992   3.737  0.00  0.00    -0.271 OA
BRANCH  22  23
ATOM     23  P   UNL     1     -38.866  24.992   3.081  0.00  0.00    +0.473 P 
ATOM     24  O   UNL     1     -39.214  24.700   1.651  0.00  0.00    -0.227 OA
BRANCH  23  25
ATOM     25  O   UNL     1     -38.253  26.463   3.357  0.00  0.00    -0.303 OA
ATOM     26  H   UNL     1     -37.297  26.450   3.195  0.00  0.00    +0.222 HD
ENDBRANCH  23  25
BRANCH  23  27
ATOM     27  O   UNL     1     -40.104  24.904   4.118  0.00  0.00    -0.303 OA
ATOM     28  H   UNL     1     -40.923  24.730   3.629  0.00  0.00    +0.222 HD
ENDBRANCH  23  27
ENDBRANCH  22  23
ENDBRANCH  21  22
ENDBRANCH   3  21
TORSDOF 9
ENDMDL
