MODEL 1
REMARK VINA RESULT:      -8.0      0.000      0.000
REMARK  Name = 21120648
REMARK  5 active torsions:
REMARK  status: ('A' for Active; 'I' for Inactive)
REMARK    1  A    between atoms: N_1  and  C1*_29
REMARK    2  A    between atoms: N_2  and  C_12
REMARK    3  A    between atoms: C3*_31  and  O3*_33
REMARK    4  A    between atoms: C4*_32  and  C5*_35
REMARK    5  A    between atoms: C5*_35  and  O5*_36
REMARK                            x       y       z     vdW  Elec       q    Type
REMARK                         _______ _______ _______ _____ _____    ______ ____
ROOT
ATOM      1  N   UNL     1     -34.484  17.188  -0.045  0.00  0.00    -0.210 N 
ATOM      2  N   UNL     1     -35.218  19.221   0.913  0.00  0.00    -0.275 N 
ATOM      3  N   UNL     1     -32.947  18.400   1.022  0.00  0.00    -0.367 NA
ATOM      4  N   UNL     1     -33.115  15.313  -0.758  0.00  0.00    -0.227 NA
ATOM      5  N   UNL     1     -30.802  15.576  -0.030  0.00  0.00    -0.227 NA
ATOM      6  C   UNL     1     -34.212  18.329   0.664  0.00  0.00    +0.249 C 
ATOM      7  C   UNL     1     -33.315  16.490  -0.146  0.00  0.00    +0.170 C 
ATOM      8  C   UNL     1     -32.375  17.257   0.522  0.00  0.00    +0.196 C 
ATOM      9  C   UNL     1     -31.076  16.760   0.569  0.00  0.00    +0.155 C 
ATOM     10  C   UNL     1     -31.824  14.935  -0.647  0.00  0.00    +0.253 C 
ATOM     11  H   UNL     1     -36.097  18.969   0.550  0.00  0.00    +0.156 HD
ATOM     12  N   UNL     1     -30.057  17.475   1.222  0.00  0.00    -0.341 N 
ATOM     13  H   UNL     1     -29.141  17.114   1.249  0.00  0.00    +0.144 HD
ATOM     14  H   UNL     1     -30.259  18.336   1.654  0.00  0.00    +0.144 HD
ENDROOT
BRANCH   2  15
ATOM     15  C   UNL     1     -35.189  20.449   1.609  0.00  0.00    +0.051 C 
ATOM     16  C   UNL     1     -35.134  22.888   2.991  0.00  0.00    +0.000 C 
ATOM     17  C   UNL     1     -35.106  24.120   3.690  0.00  0.00    +0.000 C 
ATOM     18  C   UNL     1     -35.302  21.676   3.702  0.00  0.00    +0.001 C 
ATOM     19  C   UNL     1     -34.994  22.869   1.584  0.00  0.00    +0.001 C 
ATOM     20  C   UNL     1     -35.327  20.464   2.996  0.00  0.00    +0.015 C 
ATOM     21  C   UNL     1     -35.023  21.642   0.907  0.00  0.00    +0.015 C 
ATOM     22  C   UNL     1     -34.937  25.332   2.980  0.00  0.00    +0.000 C 
ATOM     23  C   UNL     1     -35.247  24.138   5.097  0.00  0.00    +0.000 C 
ATOM     24  C   UNL     1     -35.440  21.713   5.095  0.00  0.00    +0.000 C 
ATOM     25  C   UNL     1     -34.828  24.080   0.898  0.00  0.00    +0.000 C 
ATOM     26  C   UNL     1     -34.800  25.294   1.586  0.00  0.00    +0.000 C 
ATOM     27  C   UNL     1     -35.412  22.928   5.784  0.00  0.00    +0.000 C 
ATOM     28  C   UNL     1     -34.912  26.543   3.686  0.00  0.00    +0.000 C 
ATOM     29  C   UNL     1     -35.216  25.366   5.775  0.00  0.00    +0.000 C 
ATOM     30  C   UNL     1     -35.050  26.558   5.073  0.00  0.00    +0.000 C 
ENDBRANCH   2  15
BRANCH   1  32
ATOM     31  O4* UNL     1     -36.019  15.397  -0.302  0.00  0.00    -0.335 OA
ATOM     32  C1* UNL     1     -35.770  16.782  -0.599  0.00  0.00    +0.202 C 
ATOM     33  C2* UNL     1     -35.878  16.932  -2.110  0.00  0.00    +0.083 C 
ATOM     34  C3* UNL     1     -36.932  15.902  -2.444  0.00  0.00    +0.144 C 
ATOM     35  C4* UNL     1     -36.658  14.786  -1.442  0.00  0.00    +0.173 C 
BRANCH  34  36
ATOM     36  O3* UNL     1     -38.214  16.470  -2.187  0.00  0.00    -0.382 OA
ATOM     37  H3* UNL     1     -38.392  17.174  -2.831  0.00  0.00    +0.210 HD
ENDBRANCH  34  36
BRANCH  35  38
ATOM     38  C5* UNL     1     -35.721  13.719  -1.992  0.00  0.00    +0.169 C 
BRANCH  38  39
ATOM     39  O5* UNL     1     -34.951  13.197  -0.925  0.00  0.00    -0.379 OA
ATOM     40  H5* UNL     1     -35.412  12.438  -0.534  0.00  0.00    +0.211 HD
ENDBRANCH  38  39
ENDBRANCH  35  38
ENDBRANCH   1  32
TORSDOF 5
ENDMDL
MODEL 2
REMARK VINA RESULT:      -8.0      1.411      2.924
REMARK  Name = 21120648
REMARK  5 active torsions:
REMARK  status: ('A' for Active; 'I' for Inactive)
REMARK    1  A    between atoms: N_1  and  C1*_29
REMARK    2  A    between atoms: N_2  and  C_12
REMARK    3  A    between atoms: C3*_31  and  O3*_33
REMARK    4  A    between atoms: C4*_32  and  C5*_35
REMARK    5  A    between atoms: C5*_35  and  O5*_36
REMARK                            x       y       z     vdW  Elec       q    Type
REMARK                         _______ _______ _______ _____ _____    ______ ____
ROOT
ATOM      1  N   UNL     1     -34.919  17.446  -0.356  0.00  0.00    -0.210 N 
ATOM      2  N   UNL     1     -35.451  19.504   0.679  0.00  0.00    -0.275 N 
ATOM      3  N   UNL     1     -33.309  18.397   0.858  0.00  0.00    -0.367 NA
ATOM      4  N   UNL     1     -33.754  15.451  -1.104  0.00  0.00    -0.227 NA
ATOM      5  N   UNL     1     -31.473  15.381  -0.242  0.00  0.00    -0.227 NA
ATOM      6  C   UNL     1     -34.551  18.505   0.432  0.00  0.00    +0.249 C 
ATOM      7  C   UNL     1     -33.843  16.611  -0.436  0.00  0.00    +0.170 C 
ATOM      8  C   UNL     1     -32.855  17.217   0.323  0.00  0.00    +0.196 C 
ATOM      9  C   UNL     1     -31.633  16.558   0.409  0.00  0.00    +0.155 C 
ATOM     10  C   UNL     1     -32.529  14.907  -0.948  0.00  0.00    +0.253 C 
ATOM     11  H   UNL     1     -36.332  19.384   0.257  0.00  0.00    +0.156 HD
ATOM     12  N   UNL     1     -30.573  17.104   1.155  0.00  0.00    -0.341 N 
ATOM     13  H   UNL     1     -29.713  16.629   1.208  0.00  0.00    +0.144 HD
ATOM     14  H   UNL     1     -30.692  17.961   1.624  0.00  0.00    +0.144 HD
ENDROOT
BRANCH   2  15
ATOM     15  C   UNL     1     -35.311  20.681   1.445  0.00  0.00    +0.051 C 
ATOM     16  C   UNL     1     -35.032  23.020   2.967  0.00  0.00    +0.000 C 
ATOM     17  C   UNL     1     -34.891  24.201   3.736  0.00  0.00    +0.000 C 
ATOM     18  C   UNL     1     -34.884  23.070   1.562  0.00  0.00    +0.001 C 
ATOM     19  C   UNL     1     -35.320  21.791   3.605  0.00  0.00    +0.001 C 
ATOM     20  C   UNL     1     -35.027  21.891   0.814  0.00  0.00    +0.015 C 
ATOM     21  C   UNL     1     -35.457  20.630   2.830  0.00  0.00    +0.015 C 
ATOM     22  C   UNL     1     -35.038  24.152   5.142  0.00  0.00    +0.000 C 
ATOM     23  C   UNL     1     -34.602  25.430   3.098  0.00  0.00    +0.000 C 
ATOM     24  C   UNL     1     -34.599  24.295   0.946  0.00  0.00    +0.000 C 
ATOM     25  C   UNL     1     -35.462  21.761   4.999  0.00  0.00    +0.000 C 
ATOM     26  C   UNL     1     -35.323  22.926   5.757  0.00  0.00    +0.000 C 
ATOM     27  C   UNL     1     -34.460  25.460   1.704  0.00  0.00    +0.000 C 
ATOM     28  C   UNL     1     -34.895  25.330   5.889  0.00  0.00    +0.000 C 
ATOM     29  C   UNL     1     -34.466  26.591   3.874  0.00  0.00    +0.000 C 
ATOM     30  C   UNL     1     -34.612  26.540   5.258  0.00  0.00    +0.000 C 
ENDBRANCH   2  15
BRANCH   1  32
ATOM     31  O4* UNL     1     -36.575  18.397  -1.765  0.00  0.00    -0.335 OA
ATOM     32  C1* UNL     1     -36.211  17.235  -0.998  0.00  0.00    +0.202 C 
ATOM     33  C2* UNL     1     -37.357  16.973  -0.032  0.00  0.00    +0.083 C 
ATOM     34  C3* UNL     1     -38.548  17.436  -0.837  0.00  0.00    +0.144 C 
ATOM     35  C4* UNL     1     -37.994  18.616  -1.631  0.00  0.00    +0.173 C 
BRANCH  34  36
ATOM     36  O3* UNL     1     -38.921  16.391  -1.734  0.00  0.00    -0.382 OA
ATOM     37  H3* UNL     1     -39.888  16.341  -1.788  0.00  0.00    +0.210 HD
ENDBRANCH  34  36
BRANCH  35  38
ATOM     38  C5* UNL     1     -38.202  19.948  -0.924  0.00  0.00    +0.169 C 
BRANCH  38  39
ATOM     39  O5* UNL     1     -39.253  19.804   0.014  0.00  0.00    -0.379 OA
ATOM     40  H5* UNL     1     -39.515  18.871   0.066  0.00  0.00    +0.211 HD
ENDBRANCH  38  39
ENDBRANCH  35  38
ENDBRANCH   1  32
TORSDOF 5
ENDMDL
MODEL 3
REMARK VINA RESULT:      -8.0      1.412      2.125
REMARK  Name = 21120648
REMARK  5 active torsions:
REMARK  status: ('A' for Active; 'I' for Inactive)
REMARK    1  A    between atoms: N_1  and  C1*_29
REMARK    2  A    between atoms: N_2  and  C_12
REMARK    3  A    between atoms: C3*_31  and  O3*_33
REMARK    4  A    between atoms: C4*_32  and  C5*_35
REMARK    5  A    between atoms: C5*_35  and  O5*_36
REMARK                            x       y       z     vdW  Elec       q    Type
REMARK                         _______ _______ _______ _____ _____    ______ ____
ROOT
ATOM      1  N   UNL     1     -34.921  17.449  -0.357  0.00  0.00    -0.210 N 
ATOM      2  N   UNL     1     -35.451  19.508   0.677  0.00  0.00    -0.275 N 
ATOM      3  N   UNL     1     -33.311  18.398   0.857  0.00  0.00    -0.367 NA
ATOM      4  N   UNL     1     -33.758  15.453  -1.105  0.00  0.00    -0.227 NA
ATOM      5  N   UNL     1     -31.477  15.380  -0.242  0.00  0.00    -0.227 NA
ATOM      6  C   UNL     1     -34.551  18.508   0.430  0.00  0.00    +0.249 C 
ATOM      7  C   UNL     1     -33.845  16.612  -0.437  0.00  0.00    +0.170 C 
ATOM      8  C   UNL     1     -32.858  17.218   0.322  0.00  0.00    +0.196 C 
ATOM      9  C   UNL     1     -31.636  16.558   0.408  0.00  0.00    +0.155 C 
ATOM     10  C   UNL     1     -32.533  14.907  -0.948  0.00  0.00    +0.253 C 
ATOM     11  H   UNL     1     -36.332  19.389   0.254  0.00  0.00    +0.156 HD
ATOM     12  N   UNL     1     -30.576  17.102   1.154  0.00  0.00    -0.341 N 
ATOM     13  H   UNL     1     -29.716  16.627   1.208  0.00  0.00    +0.144 HD
ATOM     14  H   UNL     1     -30.694  17.960   1.624  0.00  0.00    +0.144 HD
ENDROOT
BRANCH   2  15
ATOM     15  C   UNL     1     -35.310  20.685   1.443  0.00  0.00    +0.051 C 
ATOM     16  C   UNL     1     -35.032  23.024   2.965  0.00  0.00    +0.000 C 
ATOM     17  C   UNL     1     -34.892  24.205   3.734  0.00  0.00    +0.000 C 
ATOM     18  C   UNL     1     -35.321  21.795   3.604  0.00  0.00    +0.001 C 
ATOM     19  C   UNL     1     -34.885  23.073   1.560  0.00  0.00    +0.001 C 
ATOM     20  C   UNL     1     -35.456  20.634   2.828  0.00  0.00    +0.015 C 
ATOM     21  C   UNL     1     -35.026  21.895   0.812  0.00  0.00    +0.015 C 
ATOM     22  C   UNL     1     -34.604  25.434   3.096  0.00  0.00    +0.000 C 
ATOM     23  C   UNL     1     -35.041  24.155   5.140  0.00  0.00    +0.000 C 
ATOM     24  C   UNL     1     -35.464  21.764   4.996  0.00  0.00    +0.000 C 
ATOM     25  C   UNL     1     -34.600  24.300   0.945  0.00  0.00    +0.000 C 
ATOM     26  C   UNL     1     -34.462  25.464   1.703  0.00  0.00    +0.000 C 
ATOM     27  C   UNL     1     -35.326  22.929   5.755  0.00  0.00    +0.000 C 
ATOM     28  C   UNL     1     -34.468  26.595   3.871  0.00  0.00    +0.000 C 
ATOM     29  C   UNL     1     -34.898  25.334   5.887  0.00  0.00    +0.000 C 
ATOM     30  C   UNL     1     -34.614  26.543   5.256  0.00  0.00    +0.000 C 
ENDBRANCH   2  15
BRANCH   1  32
ATOM     31  O4* UNL     1     -36.577  18.402  -1.765  0.00  0.00    -0.335 OA
ATOM     32  C1* UNL     1     -36.213  17.239  -1.000  0.00  0.00    +0.202 C 
ATOM     33  C2* UNL     1     -37.359  16.976  -0.034  0.00  0.00    +0.083 C 
ATOM     34  C3* UNL     1     -38.550  17.441  -0.839  0.00  0.00    +0.144 C 
ATOM     35  C4* UNL     1     -37.996  18.621  -1.630  0.00  0.00    +0.173 C 
BRANCH  34  36
ATOM     36  O3* UNL     1     -38.923  16.397  -1.736  0.00  0.00    -0.382 OA
ATOM     37  H3* UNL     1     -38.561  16.583  -2.617  0.00  0.00    +0.210 HD
ENDBRANCH  34  36
BRANCH  35  38
ATOM     38  C5* UNL     1     -38.203  19.952  -0.921  0.00  0.00    +0.169 C 
BRANCH  38  39
ATOM     39  O5* UNL     1     -39.254  19.807   0.016  0.00  0.00    -0.379 OA
ATOM     40  H5* UNL     1     -39.057  20.334   0.807  0.00  0.00    +0.211 HD
ENDBRANCH  38  39
ENDBRANCH  35  38
ENDBRANCH   1  32
TORSDOF 5
ENDMDL
MODEL 4
REMARK VINA RESULT:      -7.8      7.601     11.476
REMARK  Name = 21120648
REMARK  5 active torsions:
REMARK  status: ('A' for Active; 'I' for Inactive)
REMARK    1  A    between atoms: N_1  and  C1*_29
REMARK    2  A    between atoms: N_2  and  C_12
REMARK    3  A    between atoms: C3*_31  and  O3*_33
REMARK    4  A    between atoms: C4*_32  and  C5*_35
REMARK    5  A    between atoms: C5*_35  and  O5*_36
REMARK                            x       y       z     vdW  Elec       q    Type
REMARK                         _______ _______ _______ _____ _____    ______ ____
ROOT
ATOM      1  N   UNL     1     -31.168  29.912   4.571  0.00  0.00    -0.210 N 
ATOM      2  N   UNL     1     -32.665  28.250   3.808  0.00  0.00    -0.275 N 
ATOM      3  N   UNL     1     -30.617  27.797   5.010  0.00  0.00    -0.367 NA
ATOM      4  N   UNL     1     -29.282  31.054   5.589  0.00  0.00    -0.227 NA
ATOM      5  N   UNL     1     -27.715  29.468   6.581  0.00  0.00    -0.227 NA
ATOM      6  C   UNL     1     -31.508  28.590   4.452  0.00  0.00    +0.249 C 
ATOM      7  C   UNL     1     -29.984  29.964   5.249  0.00  0.00    +0.170 C 
ATOM      8  C   UNL     1     -29.659  28.642   5.511  0.00  0.00    +0.196 C 
ATOM      9  C   UNL     1     -28.474  28.411   6.204  0.00  0.00    +0.155 C 
ATOM     10  C   UNL     1     -28.159  30.707   6.255  0.00  0.00    +0.253 C 
ATOM     11  H   UNL     1     -33.189  29.009   3.464  0.00  0.00    +0.156 HD
ATOM     12  N   UNL     1     -28.069  27.102   6.517  0.00  0.00    -0.341 N 
ATOM     13  H   UNL     1     -27.229  26.950   7.008  0.00  0.00    +0.144 HD
ATOM     14  H   UNL     1     -28.625  26.336   6.244  0.00  0.00    +0.144 HD
ENDROOT
BRANCH   2  15
ATOM     15  C   UNL     1     -33.225  26.978   3.562  0.00  0.00    +0.051 C 
ATOM     16  C   UNL     1     -34.336  24.450   3.074  0.00  0.00    +0.000 C 
ATOM     17  C   UNL     1     -34.897  23.173   2.828  0.00  0.00    +0.000 C 
ATOM     18  C   UNL     1     -34.353  24.989   4.382  0.00  0.00    +0.001 C 
ATOM     19  C   UNL     1     -33.759  25.185   2.013  0.00  0.00    +0.001 C 
ATOM     20  C   UNL     1     -33.794  26.255   4.610  0.00  0.00    +0.015 C 
ATOM     21  C   UNL     1     -33.208  26.448   2.273  0.00  0.00    +0.015 C 
ATOM     22  C   UNL     1     -34.881  22.633   1.520  0.00  0.00    +0.000 C 
ATOM     23  C   UNL     1     -35.474  22.437   3.889  0.00  0.00    +0.000 C 
ATOM     24  C   UNL     1     -34.928  24.246   5.421  0.00  0.00    +0.000 C 
ATOM     25  C   UNL     1     -33.751  24.635   0.725  0.00  0.00    +0.000 C 
ATOM     26  C   UNL     1     -34.304  23.376   0.482  0.00  0.00    +0.000 C 
ATOM     27  C   UNL     1     -35.482  22.987   5.178  0.00  0.00    +0.000 C 
ATOM     28  C   UNL     1     -35.440  21.368   1.293  0.00  0.00    +0.000 C 
ATOM     29  C   UNL     1     -36.026  21.174   3.629  0.00  0.00    +0.000 C 
ATOM     30  C   UNL     1     -36.008  20.645   2.340  0.00  0.00    +0.000 C 
ENDBRANCH   2  15
BRANCH   1  32
ATOM     31  O4* UNL     1     -33.326  30.853   4.277  0.00  0.00    -0.335 OA
ATOM     32  C1* UNL     1     -31.917  31.062   4.077  0.00  0.00    +0.202 C 
ATOM     33  C2* UNL     1     -31.722  31.347   2.595  0.00  0.00    +0.083 C 
ATOM     34  C3* UNL     1     -33.005  32.068   2.252  0.00  0.00    +0.144 C 
ATOM     35  C4* UNL     1     -34.039  31.380   3.139  0.00  0.00    +0.173 C 
BRANCH  34  36
ATOM     36  O3* UNL     1     -32.874  33.433   2.644  0.00  0.00    -0.382 OA
ATOM     37  H3* UNL     1     -32.806  33.991   1.853  0.00  0.00    +0.210 HD
ENDBRANCH  34  36
BRANCH  35  38
ATOM     38  C5* UNL     1     -34.733  30.220   2.439  0.00  0.00    +0.169 C 
BRANCH  38  39
ATOM     39  O5* UNL     1     -35.431  29.459   3.408  0.00  0.00    -0.379 OA
ATOM     40  H5* UNL     1     -35.373  28.517   3.183  0.00  0.00    +0.211 HD
ENDBRANCH  38  39
ENDBRANCH  35  38
ENDBRANCH   1  32
TORSDOF 5
ENDMDL
MODEL 5
REMARK VINA RESULT:      -7.8      7.610     11.663
REMARK  Name = 21120648
REMARK  5 active torsions:
REMARK  status: ('A' for Active; 'I' for Inactive)
REMARK    1  A    between atoms: N_1  and  C1*_29
REMARK    2  A    between atoms: N_2  and  C_12
REMARK    3  A    between atoms: C3*_31  and  O3*_33
REMARK    4  A    between atoms: C4*_32  and  C5*_35
REMARK    5  A    between atoms: C5*_35  and  O5*_36
REMARK                            x       y       z     vdW  Elec       q    Type
REMARK                         _______ _______ _______ _____ _____    ______ ____
ROOT
ATOM      1  N   UNL     1     -31.216  29.878   4.773  0.00  0.00    -0.210 N 
ATOM      2  N   UNL     1     -32.673  28.228   3.913  0.00  0.00    -0.275 N 
ATOM      3  N   UNL     1     -30.758  27.765   5.313  0.00  0.00    -0.367 NA
ATOM      4  N   UNL     1     -29.408  31.007   5.936  0.00  0.00    -0.227 NA
ATOM      5  N   UNL     1     -27.978  29.415   7.110  0.00  0.00    -0.227 NA
ATOM      6  C   UNL     1     -31.574  28.561   4.655  0.00  0.00    +0.249 C 
ATOM      7  C   UNL     1     -30.100  29.923   5.558  0.00  0.00    +0.170 C 
ATOM      8  C   UNL     1     -29.832  28.602   5.882  0.00  0.00    +0.196 C 
ATOM      9  C   UNL     1     -28.723  28.365   6.689  0.00  0.00    +0.155 C 
ATOM     10  C   UNL     1     -28.361  30.654   6.713  0.00  0.00    +0.253 C 
ATOM     11  H   UNL     1     -33.145  28.988   3.502  0.00  0.00    +0.156 HD
ATOM     12  N   UNL     1     -28.380  27.056   7.071  0.00  0.00    -0.341 N 
ATOM     13  H   UNL     1     -27.594  26.900   7.643  0.00  0.00    +0.144 HD
ATOM     14  H   UNL     1     -28.925  26.296   6.766  0.00  0.00    +0.144 HD
ENDROOT
BRANCH   2  15
ATOM     15  C   UNL     1     -33.237  26.961   3.646  0.00  0.00    +0.051 C 
ATOM     16  C   UNL     1     -34.359  24.447   3.115  0.00  0.00    +0.000 C 
ATOM     17  C   UNL     1     -34.925  23.176   2.847  0.00  0.00    +0.000 C 
ATOM     18  C   UNL     1     -33.777  25.197   2.067  0.00  0.00    +0.001 C 
ATOM     19  C   UNL     1     -34.375  24.965   4.431  0.00  0.00    +0.001 C 
ATOM     20  C   UNL     1     -33.220  26.453   2.348  0.00  0.00    +0.015 C 
ATOM     21  C   UNL     1     -33.810  26.224   4.680  0.00  0.00    +0.015 C 
ATOM     22  C   UNL     1     -35.507  22.426   3.896  0.00  0.00    +0.000 C 
ATOM     23  C   UNL     1     -34.910  22.659   1.531  0.00  0.00    +0.000 C 
ATOM     24  C   UNL     1     -33.770  24.668   0.769  0.00  0.00    +0.000 C 
ATOM     25  C   UNL     1     -34.956  24.208   5.457  0.00  0.00    +0.000 C 
ATOM     26  C   UNL     1     -35.515  22.955   5.193  0.00  0.00    +0.000 C 
ATOM     27  C   UNL     1     -34.329  23.416   0.505  0.00  0.00    +0.000 C 
ATOM     28  C   UNL     1     -36.064  21.170   3.614  0.00  0.00    +0.000 C 
ATOM     29  C   UNL     1     -35.474  21.399   1.282  0.00  0.00    +0.000 C 
ATOM     30  C   UNL     1     -36.047  20.662   2.316  0.00  0.00    +0.000 C 
ENDBRANCH   2  15
BRANCH   1  32
ATOM     31  O4* UNL     1     -33.314  30.864   4.269  0.00  0.00    -0.335 OA
ATOM     32  C1* UNL     1     -31.888  31.030   4.182  0.00  0.00    +0.202 C 
ATOM     33  C2* UNL     1     -31.563  31.260   2.714  0.00  0.00    +0.083 C 
ATOM     34  C3* UNL     1     -32.792  32.002   2.242  0.00  0.00    +0.144 C 
ATOM     35  C4* UNL     1     -33.915  31.371   3.059  0.00  0.00    +0.173 C 
BRANCH  34  36
ATOM     36  O3* UNL     1     -32.655  33.375   2.601  0.00  0.00    -0.382 OA
ATOM     37  H3* UNL     1     -32.123  33.447   3.409  0.00  0.00    +0.210 HD
ENDBRANCH  34  36
BRANCH  35  38
ATOM     38  C5* UNL     1     -34.581  30.206   2.339  0.00  0.00    +0.169 C 
BRANCH  38  39
ATOM     39  O5* UNL     1     -35.400  29.513   3.262  0.00  0.00    -0.379 OA
ATOM     40  H5* UNL     1     -36.094  30.107   3.591  0.00  0.00    +0.211 HD
ENDBRANCH  38  39
ENDBRANCH  35  38
ENDBRANCH   1  32
TORSDOF 5
ENDMDL
MODEL 6
REMARK VINA RESULT:      -7.7      4.016      9.414
REMARK  Name = 21120648
REMARK  5 active torsions:
REMARK  status: ('A' for Active; 'I' for Inactive)
REMARK    1  A    between atoms: N_1  and  C1*_29
REMARK    2  A    between atoms: N_2  and  C_12
REMARK    3  A    between atoms: C3*_31  and  O3*_33
REMARK    4  A    between atoms: C4*_32  and  C5*_35
REMARK    5  A    between atoms: C5*_35  and  O5*_36
REMARK                            x       y       z     vdW  Elec       q    Type
REMARK                         _______ _______ _______ _____ _____    ______ ____
ROOT
ATOM      1  N   UNL     1     -37.016  23.041   2.606  0.00  0.00    -0.210 N 
ATOM      2  N   UNL     1     -35.620  21.233   1.998  0.00  0.00    -0.275 N 
ATOM      3  N   UNL     1     -37.900  21.514   1.244  0.00  0.00    -0.367 NA
ATOM      4  N   UNL     1     -38.903  24.555   2.816  0.00  0.00    -0.227 NA
ATOM      5  N   UNL     1     -40.816  23.773   1.518  0.00  0.00    -0.227 NA
ATOM      6  C   UNL     1     -36.827  21.871   1.918  0.00  0.00    +0.249 C 
ATOM      7  C   UNL     1     -38.291  23.456   2.351  0.00  0.00    +0.170 C 
ATOM      8  C   UNL     1     -38.823  22.496   1.505  0.00  0.00    +0.196 C 
ATOM      9  C   UNL     1     -40.137  22.684   1.087  0.00  0.00    +0.155 C 
ATOM     10  C   UNL     1     -40.166  24.630   2.345  0.00  0.00    +0.253 C 
ATOM     11  H   UNL     1     -34.950  21.678   2.564  0.00  0.00    +0.156 HD
ATOM     12  N   UNL     1     -40.754  21.761   0.225  0.00  0.00    -0.341 N 
ATOM     13  H   UNL     1     -41.684  21.903  -0.065  0.00  0.00    +0.144 HD
ATOM     14  H   UNL     1     -40.257  20.971  -0.089  0.00  0.00    +0.144 HD
ENDROOT
BRANCH   2  15
ATOM     15  C   UNL     1     -35.187  20.034   1.391  0.00  0.00    +0.051 C 
ATOM     16  C   UNL     1     -34.328  17.653   0.186  0.00  0.00    +0.000 C 
ATOM     17  C   UNL     1     -33.894  16.449  -0.423  0.00  0.00    +0.000 C 
ATOM     18  C   UNL     1     -35.669  18.077   0.035  0.00  0.00    +0.001 C 
ATOM     19  C   UNL     1     -33.421  18.428   0.944  0.00  0.00    +0.001 C 
ATOM     20  C   UNL     1     -36.083  19.271   0.643  0.00  0.00    +0.015 C 
ATOM     21  C   UNL     1     -33.866  19.617   1.540  0.00  0.00    +0.015 C 
ATOM     22  C   UNL     1     -32.553  16.024  -0.272  0.00  0.00    +0.000 C 
ATOM     23  C   UNL     1     -34.801  15.673  -1.181  0.00  0.00    +0.000 C 
ATOM     24  C   UNL     1     -36.554  17.296  -0.719  0.00  0.00    +0.000 C 
ATOM     25  C   UNL     1     -32.097  17.991   1.083  0.00  0.00    +0.000 C 
ATOM     26  C   UNL     1     -31.669  16.805   0.483  0.00  0.00    +0.000 C 
ATOM     27  C   UNL     1     -36.126  16.110  -1.319  0.00  0.00    +0.000 C 
ATOM     28  C   UNL     1     -32.139  14.830  -0.881  0.00  0.00    +0.000 C 
ATOM     29  C   UNL     1     -34.356  14.484  -1.778  0.00  0.00    +0.000 C 
ATOM     30  C   UNL     1     -33.035  14.067  -1.628  0.00  0.00    +0.000 C 
ENDBRANCH   2  15
BRANCH   1  32
ATOM     31  O4* UNL     1     -35.171  22.777   4.074  0.00  0.00    -0.335 OA
ATOM     32  C1* UNL     1     -36.049  23.731   3.452  0.00  0.00    +0.202 C 
ATOM     33  C2* UNL     1     -36.669  24.551   4.574  0.00  0.00    +0.083 C 
ATOM     34  C3* UNL     1     -35.550  24.578   5.588  0.00  0.00    +0.144 C 
ATOM     35  C4* UNL     1     -34.899  23.207   5.424  0.00  0.00    +0.173 C 
BRANCH  34  36
ATOM     36  O3* UNL     1     -34.623  25.594   5.210  0.00  0.00    -0.382 OA
ATOM     37  H3* UNL     1     -34.016  25.768   5.947  0.00  0.00    +0.210 HD
ENDBRANCH  34  36
BRANCH  35  38
ATOM     38  C5* UNL     1     -35.473  22.167   6.376  0.00  0.00    +0.169 C 
BRANCH  38  39
ATOM     39  O5* UNL     1     -35.332  20.888   5.787  0.00  0.00    -0.379 OA
ATOM     40  H5* UNL     1     -34.966  20.981   4.893  0.00  0.00    +0.211 HD
ENDBRANCH  38  39
ENDBRANCH  35  38
ENDBRANCH   1  32
TORSDOF 5
ENDMDL
MODEL 7
REMARK VINA RESULT:      -7.7      7.431     10.586
REMARK  Name = 21120648
REMARK  5 active torsions:
REMARK  status: ('A' for Active; 'I' for Inactive)
REMARK    1  A    between atoms: N_1  and  C1*_29
REMARK    2  A    between atoms: N_2  and  C_12
REMARK    3  A    between atoms: C3*_31  and  O3*_33
REMARK    4  A    between atoms: C4*_32  and  C5*_35
REMARK    5  A    between atoms: C5*_35  and  O5*_36
REMARK                            x       y       z     vdW  Elec       q    Type
REMARK                         _______ _______ _______ _____ _____    ______ ____
ROOT
ATOM      1  N   UNL     1     -36.342  26.721   2.762  0.00  0.00    -0.210 N 
ATOM      2  N   UNL     1     -35.755  28.929   2.154  0.00  0.00    -0.275 N 
ATOM      3  N   UNL     1     -34.788  27.719   4.010  0.00  0.00    -0.367 NA
ATOM      4  N   UNL     1     -36.461  24.571   3.884  0.00  0.00    -0.227 NA
ATOM      5  N   UNL     1     -34.916  24.468   5.769  0.00  0.00    -0.227 NA
ATOM      6  C   UNL     1     -35.596  27.850   2.978  0.00  0.00    +0.249 C 
ATOM      7  C   UNL     1     -35.985  25.813   3.716  0.00  0.00    +0.170 C 
ATOM      8  C   UNL     1     -35.020  26.451   4.480  0.00  0.00    +0.196 C 
ATOM      9  C   UNL     1     -34.481  25.731   5.542  0.00  0.00    +0.155 C 
ATOM     10  C   UNL     1     -35.865  23.973   4.938  0.00  0.00    +0.253 C 
ATOM     11  H   UNL     1     -36.420  28.812   1.438  0.00  0.00    +0.156 HD
ATOM     12  N   UNL     1     -33.494  26.298   6.367  0.00  0.00    -0.341 N 
ATOM     13  H   UNL     1     -33.119  25.780   7.115  0.00  0.00    +0.144 HD
ATOM     14  H   UNL     1     -33.179  27.215   6.197  0.00  0.00    +0.144 HD
ENDROOT
BRANCH   2  15
ATOM     15  C   UNL     1     -35.113  30.186   2.172  0.00  0.00    +0.051 C 
ATOM     16  C   UNL     1     -33.836  32.682   2.204  0.00  0.00    +0.000 C 
ATOM     17  C   UNL     1     -33.190  33.943   2.220  0.00  0.00    +0.000 C 
ATOM     18  C   UNL     1     -35.115  32.551   1.616  0.00  0.00    +0.001 C 
ATOM     19  C   UNL     1     -33.200  31.555   2.774  0.00  0.00    +0.001 C 
ATOM     20  C   UNL     1     -35.741  31.295   1.608  0.00  0.00    +0.015 C 
ATOM     21  C   UNL     1     -33.852  30.314   2.751  0.00  0.00    +0.015 C 
ATOM     22  C   UNL     1     -31.910  34.075   2.808  0.00  0.00    +0.000 C 
ATOM     23  C   UNL     1     -33.826  35.070   1.649  0.00  0.00    +0.000 C 
ATOM     24  C   UNL     1     -35.730  33.677   1.055  0.00  0.00    +0.000 C 
ATOM     25  C   UNL     1     -31.932  31.705   3.352  0.00  0.00    +0.000 C 
ATOM     26  C   UNL     1     -31.296  32.948   3.368  0.00  0.00    +0.000 C 
ATOM     27  C   UNL     1     -35.094  34.920   1.072  0.00  0.00    +0.000 C 
ATOM     28  C   UNL     1     -31.285  35.330   2.816  0.00  0.00    +0.000 C 
ATOM     29  C   UNL     1     -33.174  36.312   1.673  0.00  0.00    +0.000 C 
ATOM     30  C   UNL     1     -31.913  36.439   2.253  0.00  0.00    +0.000 C 
ENDBRANCH   2  15
BRANCH   1  32
ATOM     31  O4* UNL     1     -38.654  26.488   2.280  0.00  0.00    -0.335 OA
ATOM     32  C1* UNL     1     -37.333  26.509   1.713  0.00  0.00    +0.202 C 
ATOM     33  C2* UNL     1     -37.165  25.206   0.946  0.00  0.00    +0.083 C 
ATOM     34  C3* UNL     1     -38.573  24.955   0.459  0.00  0.00    +0.144 C 
ATOM     35  C4* UNL     1     -39.436  25.486   1.599  0.00  0.00    +0.173 C 
BRANCH  34  36
ATOM     36  O3* UNL     1     -38.792  25.741  -0.711  0.00  0.00    -0.382 OA
ATOM     37  H3* UNL     1     -38.170  26.486  -0.721  0.00  0.00    +0.210 HD
ENDBRANCH  34  36
BRANCH  35  38
ATOM     38  C5* UNL     1     -39.803  24.407   2.609  0.00  0.00    +0.169 C 
BRANCH  38  39
ATOM     39  O5* UNL     1     -39.495  24.878   3.908  0.00  0.00    -0.379 OA
ATOM     40  H5* UNL     1     -40.259  24.745   4.491  0.00  0.00    +0.211 HD
ENDBRANCH  38  39
ENDBRANCH  35  38
ENDBRANCH   1  32
TORSDOF 5
ENDMDL
MODEL 8
REMARK VINA RESULT:      -7.7      7.477     10.524
REMARK  Name = 21120648
REMARK  5 active torsions:
REMARK  status: ('A' for Active; 'I' for Inactive)
REMARK    1  A    between atoms: N_1  and  C1*_29
REMARK    2  A    between atoms: N_2  and  C_12
REMARK    3  A    between atoms: C3*_31  and  O3*_33
REMARK    4  A    between atoms: C4*_32  and  C5*_35
REMARK    5  A    between atoms: C5*_35  and  O5*_36
REMARK                            x       y       z     vdW  Elec       q    Type
REMARK                         _______ _______ _______ _____ _____    ______ ____
ROOT
ATOM      1  N   UNL     1     -36.362  26.773   2.761  0.00  0.00    -0.210 N 
ATOM      2  N   UNL     1     -35.769  28.980   2.156  0.00  0.00    -0.275 N 
ATOM      3  N   UNL     1     -34.791  27.757   3.998  0.00  0.00    -0.367 NA
ATOM      4  N   UNL     1     -36.483  24.619   3.877  0.00  0.00    -0.227 NA
ATOM      5  N   UNL     1     -34.921  24.501   5.747  0.00  0.00    -0.227 NA
ATOM      6  C   UNL     1     -35.608  27.897   2.975  0.00  0.00    +0.249 C 
ATOM      7  C   UNL     1     -36.001  25.859   3.709  0.00  0.00    +0.170 C 
ATOM      8  C   UNL     1     -35.027  26.489   4.466  0.00  0.00    +0.196 C 
ATOM      9  C   UNL     1     -34.481  25.762   5.520  0.00  0.00    +0.155 C 
ATOM     10  C   UNL     1     -35.881  24.015   4.923  0.00  0.00    +0.253 C 
ATOM     11  H   UNL     1     -36.441  28.868   1.445  0.00  0.00    +0.156 HD
ATOM     12  N   UNL     1     -33.484  26.322   6.338  0.00  0.00    -0.341 N 
ATOM     13  H   UNL     1     -33.105  25.798   7.081  0.00  0.00    +0.144 HD
ATOM     14  H   UNL     1     -33.165  27.238   6.169  0.00  0.00    +0.144 HD
ENDROOT
BRANCH   2  15
ATOM     15  C   UNL     1     -35.120  30.233   2.171  0.00  0.00    +0.051 C 
ATOM     16  C   UNL     1     -33.829  32.722   2.204  0.00  0.00    +0.000 C 
ATOM     17  C   UNL     1     -33.177  33.979   2.221  0.00  0.00    +0.000 C 
ATOM     18  C   UNL     1     -33.203  31.594   2.784  0.00  0.00    +0.001 C 
ATOM     19  C   UNL     1     -35.105  32.595   1.609  0.00  0.00    +0.001 C 
ATOM     20  C   UNL     1     -33.862  30.355   2.759  0.00  0.00    +0.015 C 
ATOM     21  C   UNL     1     -35.738  31.343   1.600  0.00  0.00    +0.015 C 
ATOM     22  C   UNL     1     -33.802  35.108   1.641  0.00  0.00    +0.000 C 
ATOM     23  C   UNL     1     -31.901  34.106   2.818  0.00  0.00    +0.000 C 
ATOM     24  C   UNL     1     -31.939  31.738   3.370  0.00  0.00    +0.000 C 
ATOM     25  C   UNL     1     -35.710  33.724   1.040  0.00  0.00    +0.000 C 
ATOM     26  C   UNL     1     -35.067  34.964   1.056  0.00  0.00    +0.000 C 
ATOM     27  C   UNL     1     -31.297  32.977   3.387  0.00  0.00    +0.000 C 
ATOM     28  C   UNL     1     -33.144  36.346   1.666  0.00  0.00    +0.000 C 
ATOM     29  C   UNL     1     -31.268  35.359   2.826  0.00  0.00    +0.000 C 
ATOM     30  C   UNL     1     -31.886  36.469   2.254  0.00  0.00    +0.000 C 
ENDBRANCH   2  15
BRANCH   1  32
ATOM     31  O4* UNL     1     -38.676  26.510   2.305  0.00  0.00    -0.335 OA
ATOM     32  C1* UNL     1     -37.364  26.570   1.720  0.00  0.00    +0.202 C 
ATOM     33  C2* UNL     1     -37.184  25.289   0.918  0.00  0.00    +0.083 C 
ATOM     34  C3* UNL     1     -38.594  25.026   0.444  0.00  0.00    +0.144 C 
ATOM     35  C4* UNL     1     -39.450  25.512   1.609  0.00  0.00    +0.173 C 
BRANCH  34  36
ATOM     36  O3* UNL     1     -38.844  25.837  -0.702  0.00  0.00    -0.382 OA
ATOM     37  H3* UNL     1     -39.403  25.351  -1.328  0.00  0.00    +0.210 HD
ENDBRANCH  34  36
BRANCH  35  38
ATOM     38  C5* UNL     1     -39.783  24.401   2.596  0.00  0.00    +0.169 C 
BRANCH  38  39
ATOM     39  O5* UNL     1     -39.519  24.865   3.907  0.00  0.00    -0.379 OA
ATOM     40  H5* UNL     1     -39.456  24.108   4.512  0.00  0.00    +0.211 HD
ENDBRANCH  38  39
ENDBRANCH  35  38
ENDBRANCH   1  32
TORSDOF 5
ENDMDL
MODEL 9
REMARK VINA RESULT:      -7.6      4.618      8.137
REMARK  Name = 21120648
REMARK  5 active torsions:
REMARK  status: ('A' for Active; 'I' for Inactive)
REMARK    1  A    between atoms: N_1  and  C1*_29
REMARK    2  A    between atoms: N_2  and  C_12
REMARK    3  A    between atoms: C3*_31  and  O3*_33
REMARK    4  A    between atoms: C4*_32  and  C5*_35
REMARK    5  A    between atoms: C5*_35  and  O5*_36
REMARK                            x       y       z     vdW  Elec       q    Type
REMARK                         _______ _______ _______ _____ _____    ______ ____
ROOT
ATOM      1  N   UNL     1     -38.353  21.889   0.888  0.00  0.00    -0.210 N 
ATOM      2  N   UNL     1     -36.001  21.670   0.972  0.00  0.00    -0.275 N 
ATOM      3  N   UNL     1     -37.459  20.257  -0.340  0.00  0.00    -0.367 NA
ATOM      4  N   UNL     1     -40.702  21.567   0.361  0.00  0.00    -0.227 NA
ATOM      5  N   UNL     1     -41.017  19.708  -1.186  0.00  0.00    -0.227 NA
ATOM      6  C   UNL     1     -37.209  21.246   0.493  0.00  0.00    +0.249 C 
ATOM      7  C   UNL     1     -39.398  21.269   0.265  0.00  0.00    +0.170 C 
ATOM      8  C   UNL     1     -38.823  20.260  -0.491  0.00  0.00    +0.196 C 
ATOM      9  C   UNL     1     -39.686  19.462  -1.236  0.00  0.00    +0.155 C 
ATOM     10  C   UNL     1     -41.437  20.731  -0.402  0.00  0.00    +0.253 C 
ATOM     11  H   UNL     1     -36.043  22.436   1.590  0.00  0.00    +0.156 HD
ATOM     12  N   UNL     1     -39.188  18.418  -2.034  0.00  0.00    -0.341 N 
ATOM     13  H   UNL     1     -39.808  17.860  -2.558  0.00  0.00    +0.144 HD
ATOM     14  H   UNL     1     -38.220  18.244  -2.070  0.00  0.00    +0.144 HD
ENDROOT
BRANCH   2  15
ATOM     15  C   UNL     1     -34.702  21.180   0.717  0.00  0.00    +0.051 C 
ATOM     16  C   UNL     1     -32.121  20.207   0.212  0.00  0.00    +0.000 C 
ATOM     17  C   UNL     1     -30.817  19.716  -0.043  0.00  0.00    +0.000 C 
ATOM     18  C   UNL     1     -33.038  19.426   0.952  0.00  0.00    +0.001 C 
ATOM     19  C   UNL     1     -32.505  21.479  -0.273  0.00  0.00    +0.001 C 
ATOM     20  C   UNL     1     -34.326  19.926   1.196  0.00  0.00    +0.015 C 
ATOM     21  C   UNL     1     -33.799  21.952  -0.012  0.00  0.00    +0.015 C 
ATOM     22  C   UNL     1     -29.899  20.497  -0.783  0.00  0.00    +0.000 C 
ATOM     23  C   UNL     1     -30.433  18.444   0.443  0.00  0.00    +0.000 C 
ATOM     24  C   UNL     1     -32.642  18.169   1.425  0.00  0.00    +0.000 C 
ATOM     25  C   UNL     1     -31.582  22.239  -1.004  0.00  0.00    +0.000 C 
ATOM     26  C   UNL     1     -30.296  21.755  -1.255  0.00  0.00    +0.000 C 
ATOM     27  C   UNL     1     -31.356  17.684   1.174  0.00  0.00    +0.000 C 
ATOM     28  C   UNL     1     -28.612  19.996  -1.027  0.00  0.00    +0.000 C 
ATOM     29  C   UNL     1     -29.138  17.971   0.181  0.00  0.00    +0.000 C 
ATOM     30  C   UNL     1     -28.236  18.742  -0.548  0.00  0.00    +0.000 C 
ENDBRANCH   2  15
BRANCH   1  32
ATOM     31  O4* UNL     1     -38.077  24.234   1.118  0.00  0.00    -0.335 OA
ATOM     32  C1* UNL     1     -38.455  23.025   1.797  0.00  0.00    +0.202 C 
ATOM     33  C2* UNL     1     -37.571  22.921   3.031  0.00  0.00    +0.083 C 
ATOM     34  C3* UNL     1     -37.378  24.376   3.391  0.00  0.00    +0.144 C 
ATOM     35  C4* UNL     1     -37.336  25.068   2.032  0.00  0.00    +0.173 C 
BRANCH  34  36
ATOM     36  O3* UNL     1     -38.524  24.817   4.115  0.00  0.00    -0.382 OA
ATOM     37  H3* UNL     1     -39.079  24.054   4.339  0.00  0.00    +0.210 HD
ENDBRANCH  34  36
BRANCH  35  38
ATOM     38  C5* UNL     1     -35.920  25.216   1.492  0.00  0.00    +0.169 C 
BRANCH  38  39
ATOM     39  O5* UNL     1     -35.879  24.695   0.176  0.00  0.00    -0.379 OA
ATOM     40  H5* UNL     1     -36.740  24.830  -0.252  0.00  0.00    +0.211 HD
ENDBRANCH  38  39
ENDBRANCH  35  38
ENDBRANCH   1  32
TORSDOF 5
ENDMDL
