MODEL 1
REMARK VINA RESULT:      -6.5      0.000      0.000
REMARK  Name = 208932
REMARK  13 active torsions:
REMARK  status: ('A' for Active; 'I' for Inactive)
REMARK    1  A    between atoms: C_1  and  N_2
REMARK    2  A    between atoms: C_1  and  C_19
REMARK    3  A    between atoms: N_2  and  C_5
REMARK    4  A    between atoms: C_5  and  C_6
REMARK    5  A    between atoms: C_6  and  O_7
REMARK    6  A    between atoms: O_7  and  C_8
REMARK    7  A    between atoms: C_9  and  N_14
REMARK    8  A    between atoms: C_19  and  O_20
REMARK    9  A    between atoms: C_19  and  C_22
REMARK   10  A    between atoms: C_22  and  O_23
REMARK   11  A    between atoms: O_23  and  C_24
REMARK   12  A    between atoms: C_25  and  N_30
REMARK   13  A    between atoms: N_30  and  S_32
REMARK                            x       y       z     vdW  Elec       q    Type
REMARK                         _______ _______ _______ _____ _____    ______ ____
ROOT
ATOM      1  C   UNL     1     -38.666  21.486   1.358  0.00  0.00    -0.048 C 
ENDROOT
BRANCH   1   2
ATOM      2  N   UNL     1     -37.763  20.638   2.125  0.00  0.00    +0.388 N 
ATOM      3  H   UNL     1     -38.278  19.827   2.467  0.00  0.00    -0.084 HD
ATOM      4  H   UNL     1     -37.392  21.180   2.906  0.00  0.00    -0.084 HD
BRANCH   2   5
ATOM      5  C   UNL     1     -36.649  20.185   1.303  0.00  0.00    -0.033 C 
BRANCH   5   6
ATOM      6  C   UNL     1     -35.323  20.586   1.928  0.00  0.00    +0.182 C 
BRANCH   6   7
ATOM      7  O   UNL     1     -34.386  20.834   0.888  0.00  0.00    -0.478 OA
BRANCH   7   8
ATOM      8  C   UNL     1     -33.304  19.995   0.818  0.00  0.00    +0.139 C 
ATOM      9  C   UNL     1     -31.109  18.295   0.677  0.00  0.00    +0.057 C 
ATOM     10  C   UNL     1     -32.180  20.381   0.095  0.00  0.00    +0.038 C 
ATOM     11  C   UNL     1     -33.341  18.769   1.472  0.00  0.00    +0.038 C 
ATOM     12  C   UNL     1     -31.079  19.528   0.024  0.00  0.00    +0.018 C 
ATOM     13  C   UNL     1     -32.240  17.916   1.401  0.00  0.00    +0.018 C 
BRANCH   9  14
ATOM     14  N   UNL     1     -30.018  17.449   0.607  0.00  0.00    -0.246 N 
ATOM     15  N   UNL     1     -28.728  15.750  -0.040  0.00  0.00    -0.224 NA
ATOM     16  C   UNL     1     -28.856  17.552   1.328  0.00  0.00    +0.092 C 
ATOM     17  C   UNL     1     -29.888  16.347  -0.200  0.00  0.00    +0.172 C 
ATOM     18  C   UNL     1     -28.080  16.495   0.912  0.00  0.00    +0.117 C 
ENDBRANCH   9  14
ENDBRANCH   7   8
ENDBRANCH   6   7
ENDBRANCH   5   6
ENDBRANCH   2   5
ENDBRANCH   1   2
BRANCH   1  19
ATOM     19  C   UNL     1     -39.396  22.499   2.244  0.00  0.00    +0.133 C 
BRANCH  19  20
ATOM     20  O   UNL     1     -40.497  23.030   1.500  0.00  0.00    -0.383 OA
ATOM     21  H   UNL     1     -40.179  23.368   0.648  0.00  0.00    +0.210 HD
ENDBRANCH  19  20
BRANCH  19  22
ATOM     22  C   UNL     1     -38.508  23.656   2.697  0.00  0.00    +0.232 C 
BRANCH  22  23
ATOM     23  O   UNL     1     -37.437  23.134   3.477  0.00  0.00    -0.473 OA
BRANCH  23  24
ATOM     24  C   UNL     1     -36.549  24.043   3.988  0.00  0.00    +0.139 C 
ATOM     25  C   UNL     1     -34.747  25.890   5.027  0.00  0.00    +0.065 C 
ATOM     26  C   UNL     1     -36.520  25.338   3.481  0.00  0.00    +0.038 C 
ATOM     27  C   UNL     1     -35.684  23.663   5.009  0.00  0.00    +0.038 C 
ATOM     28  C   UNL     1     -35.617  26.265   4.003  0.00  0.00    +0.019 C 
ATOM     29  C   UNL     1     -34.781  24.589   5.530  0.00  0.00    +0.019 C 
BRANCH  25  30
ATOM     30  N   UNL     1     -33.822  26.838   5.560  0.00  0.00    -0.219 N 
ATOM     31  H   UNL     1     -33.745  26.979   6.531  0.00  0.00    +0.173 HD
BRANCH  30  32
ATOM     32  S   UNL     1     -32.844  27.730   4.458  0.00  0.00    +0.056 S 
ATOM     33  O   UNL     1     -32.150  26.791   3.597  0.00  0.00    -0.154 OA
ATOM     34  O   UNL     1     -33.583  28.841   3.893  0.00  0.00    -0.154 OA
ATOM     35  C   UNL     1     -31.633  28.394   5.580  0.00  0.00    +0.200 C 
ENDBRANCH  30  32
ENDBRANCH  25  30
ENDBRANCH  23  24
ENDBRANCH  22  23
ENDBRANCH  19  22
ENDBRANCH   1  19
TORSDOF 13
ENDMDL
MODEL 2
REMARK VINA RESULT:      -6.4      2.273      3.319
REMARK  Name = 208932
REMARK  13 active torsions:
REMARK  status: ('A' for Active; 'I' for Inactive)
REMARK    1  A    between atoms: C_1  and  N_2
REMARK    2  A    between atoms: C_1  and  C_19
REMARK    3  A    between atoms: N_2  and  C_5
REMARK    4  A    between atoms: C_5  and  C_6
REMARK    5  A    between atoms: C_6  and  O_7
REMARK    6  A    between atoms: O_7  and  C_8
REMARK    7  A    between atoms: C_9  and  N_14
REMARK    8  A    between atoms: C_19  and  O_20
REMARK    9  A    between atoms: C_19  and  C_22
REMARK   10  A    between atoms: C_22  and  O_23
REMARK   11  A    between atoms: O_23  and  C_24
REMARK   12  A    between atoms: C_25  and  N_30
REMARK   13  A    between atoms: N_30  and  S_32
REMARK                            x       y       z     vdW  Elec       q    Type
REMARK                         _______ _______ _______ _____ _____    ______ ____
ROOT
ATOM      1  C   UNL     1     -36.838  23.838   3.503  0.00  0.00    -0.048 C 
ENDROOT
BRANCH   1   2
ATOM      2  N   UNL     1     -36.644  22.559   4.172  0.00  0.00    +0.388 N 
ATOM      3  H   UNL     1     -37.491  22.000   4.076  0.00  0.00    -0.084 HD
ATOM      4  H   UNL     1     -36.442  22.734   5.157  0.00  0.00    -0.084 HD
BRANCH   2   5
ATOM      5  C   UNL     1     -35.524  21.831   3.590  0.00  0.00    -0.033 C 
BRANCH   5   6
ATOM      6  C   UNL     1     -35.241  22.322   2.179  0.00  0.00    +0.182 C 
BRANCH   6   7
ATOM      7  O   UNL     1     -35.334  21.220   1.286  0.00  0.00    -0.478 OA
BRANCH   7   8
ATOM      8  C   UNL     1     -34.172  20.547   1.013  0.00  0.00    +0.139 C 
ATOM      9  C   UNL     1     -31.815  19.180   0.459  0.00  0.00    +0.057 C 
ATOM     10  C   UNL     1     -33.972  19.276   1.542  0.00  0.00    +0.038 C 
ATOM     11  C   UNL     1     -33.205  21.141   0.209  0.00  0.00    +0.038 C 
ATOM     12  C   UNL     1     -32.789  18.591   1.264  0.00  0.00    +0.018 C 
ATOM     13  C   UNL     1     -32.022  20.454  -0.069  0.00  0.00    +0.018 C 
BRANCH   9  14
ATOM     14  N   UNL     1     -30.643  18.500   0.183  0.00  0.00    -0.246 N 
ATOM     15  N   UNL     1     -28.919  17.689  -0.975  0.00  0.00    -0.224 NA
ATOM     16  C   UNL     1     -29.875  17.798   1.077  0.00  0.00    +0.092 C 
ATOM     17  C   UNL     1     -30.022  18.402  -1.037  0.00  0.00    +0.172 C 
ATOM     18  C   UNL     1     -28.823  17.309   0.339  0.00  0.00    +0.117 C 
ENDBRANCH   9  14
ENDBRANCH   7   8
ENDBRANCH   6   7
ENDBRANCH   5   6
ENDBRANCH   2   5
ENDBRANCH   1   2
BRANCH   1  19
ATOM     19  C   UNL     1     -37.024  24.986   4.499  0.00  0.00    +0.133 C 
BRANCH  19  20
ATOM     20  O   UNL     1     -37.358  26.166   3.762  0.00  0.00    -0.383 OA
ATOM     21  H   UNL     1     -37.561  25.927   2.844  0.00  0.00    +0.210 HD
ENDBRANCH  19  20
BRANCH  19  22
ATOM     22  C   UNL     1     -35.776  25.268   5.334  0.00  0.00    +0.232 C 
BRANCH  22  23
ATOM     23  O   UNL     1     -34.752  25.764   4.477  0.00  0.00    -0.473 OA
BRANCH  23  24
ATOM     24  C   UNL     1     -33.792  26.548   5.058  0.00  0.00    +0.139 C 
ATOM     25  C   UNL     1     -31.842  28.144   6.238  0.00  0.00    +0.065 C 
ATOM     26  C   UNL     1     -33.074  27.450   4.278  0.00  0.00    +0.038 C 
ATOM     27  C   UNL     1     -33.543  26.438   6.422  0.00  0.00    +0.038 C 
ATOM     28  C   UNL     1     -32.097  28.251   4.870  0.00  0.00    +0.019 C 
ATOM     29  C   UNL     1     -32.566  27.238   7.013  0.00  0.00    +0.019 C 
BRANCH  25  30
ATOM     30  N   UNL     1     -30.842  28.963   6.843  0.00  0.00    -0.219 N 
ATOM     31  H   UNL     1     -31.089  29.698   7.450  0.00  0.00    +0.173 HD
BRANCH  30  32
ATOM     32  S   UNL     1     -29.191  28.631   6.484  0.00  0.00    +0.056 S 
ATOM     33  O   UNL     1     -28.955  27.212   6.674  0.00  0.00    -0.154 OA
ATOM     34  O   UNL     1     -28.786  29.287   5.256  0.00  0.00    -0.154 OA
ATOM     35  C   UNL     1     -28.399  29.472   7.838  0.00  0.00    +0.200 C 
ENDBRANCH  30  32
ENDBRANCH  25  30
ENDBRANCH  23  24
ENDBRANCH  22  23
ENDBRANCH  19  22
ENDBRANCH   1  19
TORSDOF 13
ENDMDL
MODEL 3
REMARK VINA RESULT:      -6.3      2.275      3.216
REMARK  Name = 208932
REMARK  13 active torsions:
REMARK  status: ('A' for Active; 'I' for Inactive)
REMARK    1  A    between atoms: C_1  and  N_2
REMARK    2  A    between atoms: C_1  and  C_19
REMARK    3  A    between atoms: N_2  and  C_5
REMARK    4  A    between atoms: C_5  and  C_6
REMARK    5  A    between atoms: C_6  and  O_7
REMARK    6  A    between atoms: O_7  and  C_8
REMARK    7  A    between atoms: C_9  and  N_14
REMARK    8  A    between atoms: C_19  and  O_20
REMARK    9  A    between atoms: C_19  and  C_22
REMARK   10  A    between atoms: C_22  and  O_23
REMARK   11  A    between atoms: O_23  and  C_24
REMARK   12  A    between atoms: C_25  and  N_30
REMARK   13  A    between atoms: N_30  and  S_32
REMARK                            x       y       z     vdW  Elec       q    Type
REMARK                         _______ _______ _______ _____ _____    ______ ____
ROOT
ATOM      1  C   UNL     1     -35.395  22.035   4.319  0.00  0.00    -0.048 C 
ENDROOT
BRANCH   1   2
ATOM      2  N   UNL     1     -36.725  22.237   3.759  0.00  0.00    +0.388 N 
ATOM      3  H   UNL     1     -37.095  23.127   4.093  0.00  0.00    -0.084 HD
ATOM      4  H   UNL     1     -37.324  21.467   4.058  0.00  0.00    -0.084 HD
BRANCH   2   5
ATOM      5  C   UNL     1     -36.680  22.256   2.304  0.00  0.00    -0.033 C 
BRANCH   5   6
ATOM      6  C   UNL     1     -35.257  22.059   1.808  0.00  0.00    +0.182 C 
BRANCH   6   7
ATOM      7  O   UNL     1     -35.207  20.875   1.023  0.00  0.00    -0.478 OA
BRANCH   7   8
ATOM      8  C   UNL     1     -33.973  20.307   0.839  0.00  0.00    +0.139 C 
ATOM      9  C   UNL     1     -31.470  19.156   0.466  0.00  0.00    +0.057 C 
ATOM     10  C   UNL     1     -33.009  20.983   0.098  0.00  0.00    +0.038 C 
ATOM     11  C   UNL     1     -33.699  19.063   1.395  0.00  0.00    +0.038 C 
ATOM     12  C   UNL     1     -31.753  20.405  -0.089  0.00  0.00    +0.018 C 
ATOM     13  C   UNL     1     -32.443  18.486   1.208  0.00  0.00    +0.018 C 
BRANCH   9  14
ATOM     14  N   UNL     1     -30.225  18.584   0.280  0.00  0.00    -0.246 N 
ATOM     15  N   UNL     1     -28.465  17.256   0.609  0.00  0.00    -0.224 NA
ATOM     16  C   UNL     1     -29.320  18.896  -0.701  0.00  0.00    +0.092 C 
ATOM     17  C   UNL     1     -29.661  17.591   1.041  0.00  0.00    +0.172 C 
ATOM     18  C   UNL     1     -28.246  18.067  -0.476  0.00  0.00    +0.117 C 
ENDBRANCH   9  14
ENDBRANCH   7   8
ENDBRANCH   6   7
ENDBRANCH   5   6
ENDBRANCH   2   5
ENDBRANCH   1   2
BRANCH   1  19
ATOM     19  C   UNL     1     -35.246  22.685   5.698  0.00  0.00    +0.133 C 
BRANCH  19  20
ATOM     20  O   UNL     1     -36.172  22.057   6.589  0.00  0.00    -0.383 OA
ATOM     21  H   UNL     1     -36.346  21.151   6.289  0.00  0.00    +0.210 HD
ENDBRANCH  19  20
BRANCH  19  22
ATOM     22  C   UNL     1     -35.516  24.188   5.689  0.00  0.00    +0.232 C 
BRANCH  22  23
ATOM     23  O   UNL     1     -34.842  24.769   4.577  0.00  0.00    -0.473 OA
BRANCH  23  24
ATOM     24  C   UNL     1     -34.034  25.843   4.840  0.00  0.00    +0.139 C 
ATOM     25  C   UNL     1     -32.390  28.023   5.374  0.00  0.00    +0.065 C 
ATOM     26  C   UNL     1     -33.722  26.165   6.156  0.00  0.00    +0.038 C 
ATOM     27  C   UNL     1     -33.532  26.601   3.788  0.00  0.00    +0.038 C 
ATOM     28  C   UNL     1     -32.897  27.257   6.425  0.00  0.00    +0.019 C 
ATOM     29  C   UNL     1     -32.707  27.694   4.056  0.00  0.00    +0.019 C 
BRANCH  25  30
ATOM     30  N   UNL     1     -31.547  29.141   5.648  0.00  0.00    -0.219 N 
ATOM     31  H   UNL     1     -31.915  30.052   5.698  0.00  0.00    +0.173 HD
BRANCH  30  32
ATOM     32  S   UNL     1     -29.866  28.854   5.889  0.00  0.00    +0.056 S 
ATOM     33  O   UNL     1     -29.507  29.312   7.218  0.00  0.00    -0.154 OA
ATOM     34  O   UNL     1     -29.499  27.524   5.444  0.00  0.00    -0.154 OA
ATOM     35  C   UNL     1     -29.179  30.023   4.737  0.00  0.00    +0.200 C 
ENDBRANCH  30  32
ENDBRANCH  25  30
ENDBRANCH  23  24
ENDBRANCH  22  23
ENDBRANCH  19  22
ENDBRANCH   1  19
TORSDOF 13
ENDMDL
MODEL 4
REMARK VINA RESULT:      -6.2      2.932      8.894
REMARK  Name = 208932
REMARK  13 active torsions:
REMARK  status: ('A' for Active; 'I' for Inactive)
REMARK    1  A    between atoms: C_1  and  N_2
REMARK    2  A    between atoms: C_1  and  C_19
REMARK    3  A    between atoms: N_2  and  C_5
REMARK    4  A    between atoms: C_5  and  C_6
REMARK    5  A    between atoms: C_6  and  O_7
REMARK    6  A    between atoms: O_7  and  C_8
REMARK    7  A    between atoms: C_9  and  N_14
REMARK    8  A    between atoms: C_19  and  O_20
REMARK    9  A    between atoms: C_19  and  C_22
REMARK   10  A    between atoms: C_22  and  O_23
REMARK   11  A    between atoms: O_23  and  C_24
REMARK   12  A    between atoms: C_25  and  N_30
REMARK   13  A    between atoms: N_30  and  S_32
REMARK                            x       y       z     vdW  Elec       q    Type
REMARK                         _______ _______ _______ _____ _____    ______ ____
ROOT
ATOM      1  C   UNL     1     -37.707  20.990   0.956  0.00  0.00    -0.048 C 
ENDROOT
BRANCH   1   2
ATOM      2  N   UNL     1     -38.683  21.097   2.032  0.00  0.00    +0.388 N 
ATOM      3  H   UNL     1     -38.373  20.531   2.821  0.00  0.00    -0.084 HD
ATOM      4  H   UNL     1     -39.585  20.767   1.687  0.00  0.00    -0.084 HD
BRANCH   2   5
ATOM      5  C   UNL     1     -38.830  22.480   2.466  0.00  0.00    -0.033 C 
BRANCH   5   6
ATOM      6  C   UNL     1     -37.475  23.085   2.795  0.00  0.00    +0.182 C 
BRANCH   6   7
ATOM      7  O   UNL     1     -37.635  24.004   3.868  0.00  0.00    -0.478 OA
BRANCH   7   8
ATOM      8  C   UNL     1     -36.545  24.768   4.194  0.00  0.00    +0.139 C 
ATOM      9  C   UNL     1     -34.335  26.320   4.855  0.00  0.00    +0.057 C 
ATOM     10  C   UNL     1     -36.171  25.821   3.366  0.00  0.00    +0.038 C 
ATOM     11  C   UNL     1     -35.826  24.484   5.350  0.00  0.00    +0.038 C 
ATOM     12  C   UNL     1     -35.062  26.600   3.698  0.00  0.00    +0.018 C 
ATOM     13  C   UNL     1     -34.717  25.263   5.681  0.00  0.00    +0.018 C 
BRANCH   9  14
ATOM     14  N   UNL     1     -33.235  27.091   5.184  0.00  0.00    -0.246 N 
ATOM     15  N   UNL     1     -31.613  28.004   6.412  0.00  0.00    -0.224 NA
ATOM     16  C   UNL     1     -32.523  27.902   4.338  0.00  0.00    +0.092 C 
ATOM     17  C   UNL     1     -32.646  27.190   6.419  0.00  0.00    +0.172 C 
ATOM     18  C   UNL     1     -31.532  28.452   5.117  0.00  0.00    +0.117 C 
ENDBRANCH   9  14
ENDBRANCH   7   8
ENDBRANCH   6   7
ENDBRANCH   5   6
ENDBRANCH   2   5
ENDBRANCH   1   2
BRANCH   1  19
ATOM     19  C   UNL     1     -36.727  19.835   1.180  0.00  0.00    +0.133 C 
BRANCH  19  20
ATOM     20  O   UNL     1     -36.467  19.737   2.584  0.00  0.00    -0.383 OA
ATOM     21  H   UNL     1     -37.151  19.190   3.002  0.00  0.00    +0.210 HD
ENDBRANCH  19  20
BRANCH  19  22
ATOM     22  C   UNL     1     -35.399  20.019   0.448  0.00  0.00    +0.232 C 
BRANCH  22  23
ATOM     23  O   UNL     1     -34.342  20.006   1.403  0.00  0.00    -0.473 OA
BRANCH  23  24
ATOM     24  C   UNL     1     -33.154  19.459   0.998  0.00  0.00    +0.139 C 
ATOM     25  C   UNL     1     -30.740  18.348   0.177  0.00  0.00    +0.065 C 
ATOM     26  C   UNL     1     -32.238  20.239   0.300  0.00  0.00    +0.038 C 
ATOM     27  C   UNL     1     -32.874  18.128   1.288  0.00  0.00    +0.038 C 
ATOM     28  C   UNL     1     -31.027  19.683  -0.111  0.00  0.00    +0.019 C 
ATOM     29  C   UNL     1     -31.663  17.571   0.876  0.00  0.00    +0.019 C 
BRANCH  25  30
ATOM     30  N   UNL     1     -29.500  17.778  -0.245  0.00  0.00    -0.219 N 
ATOM     31  H   UNL     1     -29.437  17.271  -1.086  0.00  0.00    +0.173 HD
BRANCH  30  32
ATOM     32  S   UNL     1     -28.118  18.002   0.758  0.00  0.00    +0.056 S 
ATOM     33  O   UNL     1     -27.564  19.316   0.490  0.00  0.00    -0.154 OA
ATOM     34  O   UNL     1     -28.391  17.581   2.118  0.00  0.00    -0.154 OA
ATOM     35  C   UNL     1     -27.008  16.816   0.032  0.00  0.00    +0.200 C 
ENDBRANCH  30  32
ENDBRANCH  25  30
ENDBRANCH  23  24
ENDBRANCH  22  23
ENDBRANCH  19  22
ENDBRANCH   1  19
TORSDOF 13
ENDMDL
MODEL 5
REMARK VINA RESULT:      -6.1      5.772     12.392
REMARK  Name = 208932
REMARK  13 active torsions:
REMARK  status: ('A' for Active; 'I' for Inactive)
REMARK    1  A    between atoms: C_1  and  N_2
REMARK    2  A    between atoms: C_1  and  C_19
REMARK    3  A    between atoms: N_2  and  C_5
REMARK    4  A    between atoms: C_5  and  C_6
REMARK    5  A    between atoms: C_6  and  O_7
REMARK    6  A    between atoms: O_7  and  C_8
REMARK    7  A    between atoms: C_9  and  N_14
REMARK    8  A    between atoms: C_19  and  O_20
REMARK    9  A    between atoms: C_19  and  C_22
REMARK   10  A    between atoms: C_22  and  O_23
REMARK   11  A    between atoms: O_23  and  C_24
REMARK   12  A    between atoms: C_25  and  N_30
REMARK   13  A    between atoms: N_30  and  S_32
REMARK                            x       y       z     vdW  Elec       q    Type
REMARK                         _______ _______ _______ _____ _____    ______ ____
ROOT
ATOM      1  C   UNL     1     -31.926  28.745   4.967  0.00  0.00    -0.048 C 
ENDROOT
BRANCH   1   2
ATOM      2  N   UNL     1     -32.948  29.768   4.786  0.00  0.00    +0.388 N 
ATOM      3  H   UNL     1     -32.850  30.470   5.519  0.00  0.00    -0.084 HD
ATOM      4  H   UNL     1     -33.865  29.324   4.838  0.00  0.00    -0.084 HD
BRANCH   2   5
ATOM      5  C   UNL     1     -32.817  30.413   3.487  0.00  0.00    -0.033 C 
BRANCH   5   6
ATOM      6  C   UNL     1     -34.129  30.349   2.721  0.00  0.00    +0.182 C 
BRANCH   6   7
ATOM      7  O   UNL     1     -34.108  31.337   1.699  0.00  0.00    -0.478 OA
BRANCH   7   8
ATOM      8  C   UNL     1     -35.214  32.139   1.592  0.00  0.00    +0.139 C 
ATOM      9  C   UNL     1     -37.458  33.765   1.374  0.00  0.00    +0.057 C 
ATOM     10  C   UNL     1     -35.074  33.449   1.148  0.00  0.00    +0.038 C 
ATOM     11  C   UNL     1     -36.465  31.633   1.927  0.00  0.00    +0.038 C 
ATOM     12  C   UNL     1     -36.200  34.266   1.040  0.00  0.00    +0.018 C 
ATOM     13  C   UNL     1     -37.591  32.449   1.817  0.00  0.00    +0.018 C 
BRANCH   9  14
ATOM     14  N   UNL     1     -38.575  34.574   1.266  0.00  0.00    -0.246 N 
ATOM     15  N   UNL     1     -40.164  35.829   0.335  0.00  0.00    -0.224 NA
ATOM     16  C   UNL     1     -39.379  35.000   2.292  0.00  0.00    +0.092 C 
ATOM     17  C   UNL     1     -39.092  35.103   0.110  0.00  0.00    +0.172 C 
ATOM     18  C   UNL     1     -40.348  35.770   1.693  0.00  0.00    +0.117 C 
ENDBRANCH   9  14
ENDBRANCH   7   8
ENDBRANCH   6   7
ENDBRANCH   5   6
ENDBRANCH   2   5
ENDBRANCH   1   2
BRANCH   1  19
ATOM     19  C   UNL     1     -31.970  28.128   6.367  0.00  0.00    +0.133 C 
BRANCH  19  20
ATOM     20  O   UNL     1     -30.665  27.634   6.678  0.00  0.00    -0.383 OA
ATOM     21  H   UNL     1     -30.555  26.747   6.300  0.00  0.00    +0.210 HD
ENDBRANCH  19  20
BRANCH  19  22
ATOM     22  C   UNL     1     -32.970  26.980   6.489  0.00  0.00    +0.232 C 
BRANCH  22  23
ATOM     23  O   UNL     1     -33.953  27.116   5.468  0.00  0.00    -0.473 OA
BRANCH  23  24
ATOM     24  C   UNL     1     -34.637  25.982   5.118  0.00  0.00    +0.139 C 
ATOM     25  C   UNL     1     -36.026  23.679   4.405  0.00  0.00    +0.065 C 
ATOM     26  C   UNL     1     -35.918  26.086   4.586  0.00  0.00    +0.038 C 
ATOM     27  C   UNL     1     -34.044  24.737   5.297  0.00  0.00    +0.038 C 
ATOM     28  C   UNL     1     -36.615  24.932   4.228  0.00  0.00    +0.019 C 
ATOM     29  C   UNL     1     -34.741  23.582   4.939  0.00  0.00    +0.019 C 
BRANCH  25  30
ATOM     30  N   UNL     1     -36.738  22.498   4.039  0.00  0.00    -0.219 N 
ATOM     31  H   UNL     1     -37.471  22.155   4.600  0.00  0.00    +0.173 HD
BRANCH  30  32
ATOM     32  S   UNL     1     -36.281  21.687   2.590  0.00  0.00    +0.056 S 
ATOM     33  O   UNL     1     -35.539  22.616   1.759  0.00  0.00    -0.154 OA
ATOM     34  O   UNL     1     -35.749  20.370   2.880  0.00  0.00    -0.154 OA
ATOM     35  C   UNL     1     -37.877  21.475   1.832  0.00  0.00    +0.200 C 
ENDBRANCH  30  32
ENDBRANCH  25  30
ENDBRANCH  23  24
ENDBRANCH  22  23
ENDBRANCH  19  22
ENDBRANCH   1  19
TORSDOF 13
ENDMDL
MODEL 6
REMARK VINA RESULT:      -6.1      4.809      8.264
REMARK  Name = 208932
REMARK  13 active torsions:
REMARK  status: ('A' for Active; 'I' for Inactive)
REMARK    1  A    between atoms: C_1  and  N_2
REMARK    2  A    between atoms: C_1  and  C_19
REMARK    3  A    between atoms: N_2  and  C_5
REMARK    4  A    between atoms: C_5  and  C_6
REMARK    5  A    between atoms: C_6  and  O_7
REMARK    6  A    between atoms: O_7  and  C_8
REMARK    7  A    between atoms: C_9  and  N_14
REMARK    8  A    between atoms: C_19  and  O_20
REMARK    9  A    between atoms: C_19  and  C_22
REMARK   10  A    between atoms: C_22  and  O_23
REMARK   11  A    between atoms: O_23  and  C_24
REMARK   12  A    between atoms: C_25  and  N_30
REMARK   13  A    between atoms: N_30  and  S_32
REMARK                            x       y       z     vdW  Elec       q    Type
REMARK                         _______ _______ _______ _____ _____    ______ ____
ROOT
ATOM      1  C   UNL     1     -37.868  20.940   1.266  0.00  0.00    -0.048 C 
ENDROOT
BRANCH   1   2
ATOM      2  N   UNL     1     -37.025  20.354   2.299  0.00  0.00    +0.388 N 
ATOM      3  H   UNL     1     -36.797  19.394   2.039  0.00  0.00    -0.084 HD
ATOM      4  H   UNL     1     -37.533  20.372   3.183  0.00  0.00    -0.084 HD
BRANCH   2   5
ATOM      5  C   UNL     1     -35.791  21.111   2.456  0.00  0.00    -0.033 C 
BRANCH   5   6
ATOM      6  C   UNL     1     -35.682  21.673   3.864  0.00  0.00    +0.182 C 
BRANCH   6   7
ATOM      7  O   UNL     1     -36.289  22.958   3.889  0.00  0.00    -0.478 OA
BRANCH   7   8
ATOM      8  C   UNL     1     -35.484  24.016   4.225  0.00  0.00    +0.139 C 
ATOM      9  C   UNL     1     -33.850  26.160   4.907  0.00  0.00    +0.057 C 
ATOM     10  C   UNL     1     -35.715  24.707   5.409  0.00  0.00    +0.038 C 
ATOM     11  C   UNL     1     -34.444  24.385   3.379  0.00  0.00    +0.038 C 
ATOM     12  C   UNL     1     -34.895  25.784   5.751  0.00  0.00    +0.018 C 
ATOM     13  C   UNL     1     -33.625  25.460   3.721  0.00  0.00    +0.018 C 
BRANCH   9  14
ATOM     14  N   UNL     1     -33.038  27.226   5.246  0.00  0.00    -0.246 N 
ATOM     15  N   UNL     1     -31.789  28.590   6.491  0.00  0.00    -0.224 NA
ATOM     16  C   UNL     1     -32.580  28.205   4.402  0.00  0.00    +0.092 C 
ATOM     17  C   UNL     1     -32.533  27.505   6.491  0.00  0.00    +0.172 C 
ATOM     18  C   UNL     1     -31.816  29.031   5.193  0.00  0.00    +0.117 C 
ENDBRANCH   9  14
ENDBRANCH   7   8
ENDBRANCH   6   7
ENDBRANCH   5   6
ENDBRANCH   2   5
ENDBRANCH   1   2
BRANCH   1  19
ATOM     19  C   UNL     1     -38.966  21.830   1.856  0.00  0.00    +0.133 C 
BRANCH  19  20
ATOM     20  O   UNL     1     -40.078  20.998   2.201  0.00  0.00    -0.383 OA
ATOM     21  H   UNL     1     -39.785  20.075   2.256  0.00  0.00    +0.210 HD
ENDBRANCH  19  20
BRANCH  19  22
ATOM     22  C   UNL     1     -39.446  22.914   0.893  0.00  0.00    +0.232 C 
BRANCH  22  23
ATOM     23  O   UNL     1     -40.844  23.110   1.082  0.00  0.00    -0.473 OA
BRANCH  23  24
ATOM     24  C   UNL     1     -41.255  24.387   1.357  0.00  0.00    +0.139 C 
ATOM     25  C   UNL     1     -42.089  26.981   1.918  0.00  0.00    +0.065 C 
ATOM     26  C   UNL     1     -42.419  24.878   0.774  0.00  0.00    +0.038 C 
ATOM     27  C   UNL     1     -40.504  25.181   2.217  0.00  0.00    +0.038 C 
ATOM     28  C   UNL     1     -42.838  26.178   1.056  0.00  0.00    +0.019 C 
ATOM     29  C   UNL     1     -40.923  26.482   2.498  0.00  0.00    +0.019 C 
BRANCH  25  30
ATOM     30  N   UNL     1     -42.518  28.312   2.205  0.00  0.00    -0.219 N 
ATOM     31  H   UNL     1     -42.436  29.026   1.533  0.00  0.00    +0.173 HD
BRANCH  30  32
ATOM     32  S   UNL     1     -43.182  28.635   3.761  0.00  0.00    +0.056 S 
ATOM     33  O   UNL     1     -42.090  28.875   4.686  0.00  0.00    -0.154 OA
ATOM     34  O   UNL     1     -44.287  29.568   3.669  0.00  0.00    -0.154 OA
ATOM     35  C   UNL     1     -43.851  27.034   4.156  0.00  0.00    +0.200 C 
ENDBRANCH  30  32
ENDBRANCH  25  30
ENDBRANCH  23  24
ENDBRANCH  22  23
ENDBRANCH  19  22
ENDBRANCH   1  19
TORSDOF 13
ENDMDL
MODEL 7
REMARK VINA RESULT:      -6.1      1.793      2.316
REMARK  Name = 208932
REMARK  13 active torsions:
REMARK  status: ('A' for Active; 'I' for Inactive)
REMARK    1  A    between atoms: C_1  and  N_2
REMARK    2  A    between atoms: C_1  and  C_19
REMARK    3  A    between atoms: N_2  and  C_5
REMARK    4  A    between atoms: C_5  and  C_6
REMARK    5  A    between atoms: C_6  and  O_7
REMARK    6  A    between atoms: O_7  and  C_8
REMARK    7  A    between atoms: C_9  and  N_14
REMARK    8  A    between atoms: C_19  and  O_20
REMARK    9  A    between atoms: C_19  and  C_22
REMARK   10  A    between atoms: C_22  and  O_23
REMARK   11  A    between atoms: O_23  and  C_24
REMARK   12  A    between atoms: C_25  and  N_30
REMARK   13  A    between atoms: N_30  and  S_32
REMARK                            x       y       z     vdW  Elec       q    Type
REMARK                         _______ _______ _______ _____ _____    ______ ____
ROOT
ATOM      1  C   UNL     1     -35.190  21.028   3.645  0.00  0.00    -0.048 C 
ENDROOT
BRANCH   1   2
ATOM      2  N   UNL     1     -36.490  21.239   3.022  0.00  0.00    +0.388 N 
ATOM      3  H   UNL     1     -36.922  22.070   3.425  0.00  0.00    -0.084 HD
ATOM      4  H   UNL     1     -37.069  20.416   3.192  0.00  0.00    -0.084 HD
BRANCH   2   5
ATOM      5  C   UNL     1     -36.354  21.422   1.583  0.00  0.00    -0.033 C 
BRANCH   5   6
ATOM      6  C   UNL     1     -35.520  20.305   0.976  0.00  0.00    +0.182 C 
BRANCH   6   7
ATOM      7  O   UNL     1     -34.279  20.846   0.544  0.00  0.00    -0.478 OA
BRANCH   7   8
ATOM      8  C   UNL     1     -33.195  20.007   0.579  0.00  0.00    +0.139 C 
ATOM      9  C   UNL     1     -30.996  18.308   0.649  0.00  0.00    +0.057 C 
ATOM     10  C   UNL     1     -32.032  20.359  -0.098  0.00  0.00    +0.038 C 
ATOM     11  C   UNL     1     -33.269  18.816   1.291  0.00  0.00    +0.038 C 
ATOM     12  C   UNL     1     -30.928  19.506  -0.063  0.00  0.00    +0.018 C 
ATOM     13  C   UNL     1     -32.165  17.963   1.326  0.00  0.00    +0.018 C 
BRANCH   9  14
ATOM     14  N   UNL     1     -29.902  17.463   0.684  0.00  0.00    -0.246 N 
ATOM     15  N   UNL     1     -28.577  15.737   0.198  0.00  0.00    -0.224 NA
ATOM     16  C   UNL     1     -28.784  17.604   1.465  0.00  0.00    +0.092 C 
ATOM     17  C   UNL     1     -29.726  16.322  -0.059  0.00  0.00    +0.172 C 
ATOM     18  C   UNL     1     -27.986  16.530   1.148  0.00  0.00    +0.117 C 
ENDBRANCH   9  14
ENDBRANCH   7   8
ENDBRANCH   6   7
ENDBRANCH   5   6
ENDBRANCH   2   5
ENDBRANCH   1   2
BRANCH   1  19
ATOM     19  C   UNL     1     -35.118  21.641   5.047  0.00  0.00    +0.133 C 
BRANCH  19  20
ATOM     20  O   UNL     1     -35.576  20.663   5.985  0.00  0.00    -0.383 OA
ATOM     21  H   UNL     1     -35.999  21.108   6.736  0.00  0.00    +0.210 HD
ENDBRANCH  19  20
BRANCH  19  22
ATOM     22  C   UNL     1     -35.968  22.901   5.199  0.00  0.00    +0.232 C 
BRANCH  22  23
ATOM     23  O   UNL     1     -35.687  23.778   4.113  0.00  0.00    -0.473 OA
BRANCH  23  24
ATOM     24  C   UNL     1     -34.856  24.835   4.375  0.00  0.00    +0.139 C 
ATOM     25  C   UNL     1     -33.172  26.984   4.908  0.00  0.00    +0.065 C 
ATOM     26  C   UNL     1     -34.095  25.384   3.350  0.00  0.00    +0.038 C 
ATOM     27  C   UNL     1     -34.784  25.350   5.665  0.00  0.00    +0.038 C 
ATOM     28  C   UNL     1     -33.250  26.462   3.616  0.00  0.00    +0.019 C 
ATOM     29  C   UNL     1     -33.938  26.427   5.932  0.00  0.00    +0.019 C 
BRANCH  25  30
ATOM     30  N   UNL     1     -32.307  28.086   5.181  0.00  0.00    -0.219 N 
ATOM     31  H   UNL     1     -31.652  28.045   5.915  0.00  0.00    +0.173 HD
BRANCH  30  32
ATOM     32  S   UNL     1     -32.441  29.491   4.194  0.00  0.00    +0.056 S 
ATOM     33  O   UNL     1     -31.454  29.403   3.134  0.00  0.00    -0.154 OA
ATOM     34  O   UNL     1     -33.828  29.777   3.886  0.00  0.00    -0.154 OA
ATOM     35  C   UNL     1     -31.868  30.732   5.333  0.00  0.00    +0.200 C 
ENDBRANCH  30  32
ENDBRANCH  25  30
ENDBRANCH  23  24
ENDBRANCH  22  23
ENDBRANCH  19  22
ENDBRANCH   1  19
TORSDOF 13
ENDMDL
MODEL 8
REMARK VINA RESULT:      -6.0      3.228      9.149
REMARK  Name = 208932
REMARK  13 active torsions:
REMARK  status: ('A' for Active; 'I' for Inactive)
REMARK    1  A    between atoms: C_1  and  N_2
REMARK    2  A    between atoms: C_1  and  C_19
REMARK    3  A    between atoms: N_2  and  C_5
REMARK    4  A    between atoms: C_5  and  C_6
REMARK    5  A    between atoms: C_6  and  O_7
REMARK    6  A    between atoms: O_7  and  C_8
REMARK    7  A    between atoms: C_9  and  N_14
REMARK    8  A    between atoms: C_19  and  O_20
REMARK    9  A    between atoms: C_19  and  C_22
REMARK   10  A    between atoms: C_22  and  O_23
REMARK   11  A    between atoms: O_23  and  C_24
REMARK   12  A    between atoms: C_25  and  N_30
REMARK   13  A    between atoms: N_30  and  S_32
REMARK                            x       y       z     vdW  Elec       q    Type
REMARK                         _______ _______ _______ _____ _____    ______ ____
ROOT
ATOM      1  C   UNL     1     -37.245  21.248   1.299  0.00  0.00    -0.048 C 
ENDROOT
BRANCH   1   2
ATOM      2  N   UNL     1     -38.513  21.070   1.992  0.00  0.00    +0.388 N 
ATOM      3  H   UNL     1     -38.349  20.569   2.865  0.00  0.00    -0.084 HD
ATOM      4  H   UNL     1     -39.142  20.540   1.389  0.00  0.00    -0.084 HD
BRANCH   2   5
ATOM      5  C   UNL     1     -39.129  22.356   2.291  0.00  0.00    -0.033 C 
BRANCH   5   6
ATOM      6  C   UNL     1     -38.068  23.429   2.476  0.00  0.00    +0.182 C 
BRANCH   6   7
ATOM      7  O   UNL     1     -37.492  23.282   3.767  0.00  0.00    -0.478 OA
BRANCH   7   8
ATOM      8  C   UNL     1     -36.493  24.160   4.102  0.00  0.00    +0.139 C 
ATOM      9  C   UNL     1     -34.468  25.939   4.781  0.00  0.00    +0.057 C 
ATOM     10  C   UNL     1     -35.777  23.970   5.279  0.00  0.00    +0.038 C 
ATOM     11  C   UNL     1     -36.207  25.229   3.261  0.00  0.00    +0.038 C 
ATOM     12  C   UNL     1     -34.761  24.863   5.619  0.00  0.00    +0.018 C 
ATOM     13  C   UNL     1     -35.191  26.122   3.602  0.00  0.00    +0.018 C 
BRANCH   9  14
ATOM     14  N   UNL     1     -33.461  26.824   5.118  0.00  0.00    -0.246 N 
ATOM     15  N   UNL     1     -31.943  27.892   6.354  0.00  0.00    -0.224 NA
ATOM     16  C   UNL     1     -32.851  27.726   4.284  0.00  0.00    +0.092 C 
ATOM     17  C   UNL     1     -32.877  26.966   6.352  0.00  0.00    +0.172 C 
ATOM     18  C   UNL     1     -31.923  28.370   5.069  0.00  0.00    +0.117 C 
ENDBRANCH   9  14
ENDBRANCH   7   8
ENDBRANCH   6   7
ENDBRANCH   5   6
ENDBRANCH   2   5
ENDBRANCH   1   2
BRANCH   1  19
ATOM     19  C   UNL     1     -36.114  20.449   1.952  0.00  0.00    +0.133 C 
BRANCH  19  20
ATOM     20  O   UNL     1     -36.195  20.638   3.368  0.00  0.00    -0.383 OA
ATOM     21  H   UNL     1     -35.420  20.237   3.792  0.00  0.00    +0.210 HD
ENDBRANCH  19  20
BRANCH  19  22
ATOM     22  C   UNL     1     -34.725  20.872   1.481  0.00  0.00    +0.232 C 
BRANCH  22  23
ATOM     23  O   UNL     1     -34.328  20.027   0.404  0.00  0.00    -0.473 OA
BRANCH  23  24
ATOM     24  C   UNL     1     -33.073  19.484   0.480  0.00  0.00    +0.139 C 
ATOM     25  C   UNL     1     -30.525  18.379   0.629  0.00  0.00    +0.065 C 
ATOM     26  C   UNL     1     -32.884  18.275   1.140  0.00  0.00    +0.038 C 
ATOM     27  C   UNL     1     -32.000  20.146  -0.107  0.00  0.00    +0.038 C 
ATOM     28  C   UNL     1     -31.606  17.720   1.215  0.00  0.00    +0.019 C 
ATOM     29  C   UNL     1     -30.722  19.591  -0.031  0.00  0.00    +0.019 C 
BRANCH  25  30
ATOM     30  N   UNL     1     -29.217  17.812   0.707  0.00  0.00    -0.219 N 
ATOM     31  H   UNL     1     -28.505  18.251   1.225  0.00  0.00    +0.173 HD
BRANCH  30  32
ATOM     32  S   UNL     1     -28.918  16.338  -0.133  0.00  0.00    +0.056 S 
ATOM     33  O   UNL     1     -27.486  16.200  -0.322  0.00  0.00    -0.154 OA
ATOM     34  O   UNL     1     -29.694  15.253   0.434  0.00  0.00    -0.154 OA
ATOM     35  C   UNL     1     -29.613  16.735  -1.722  0.00  0.00    +0.200 C 
ENDBRANCH  30  32
ENDBRANCH  25  30
ENDBRANCH  23  24
ENDBRANCH  22  23
ENDBRANCH  19  22
ENDBRANCH   1  19
TORSDOF 13
ENDMDL
MODEL 9
REMARK VINA RESULT:      -6.0      3.952      7.071
REMARK  Name = 208932
REMARK  13 active torsions:
REMARK  status: ('A' for Active; 'I' for Inactive)
REMARK    1  A    between atoms: C_1  and  N_2
REMARK    2  A    between atoms: C_1  and  C_19
REMARK    3  A    between atoms: N_2  and  C_5
REMARK    4  A    between atoms: C_5  and  C_6
REMARK    5  A    between atoms: C_6  and  O_7
REMARK    6  A    between atoms: O_7  and  C_8
REMARK    7  A    between atoms: C_9  and  N_14
REMARK    8  A    between atoms: C_19  and  O_20
REMARK    9  A    between atoms: C_19  and  C_22
REMARK   10  A    between atoms: C_22  and  O_23
REMARK   11  A    between atoms: O_23  and  C_24
REMARK   12  A    between atoms: C_25  and  N_30
REMARK   13  A    between atoms: N_30  and  S_32
REMARK                            x       y       z     vdW  Elec       q    Type
REMARK                         _______ _______ _______ _____ _____    ______ ____
ROOT
ATOM      1  C   UNL     1     -34.903  26.566   3.714  0.00  0.00    -0.048 C 
ENDROOT
BRANCH   1   2
ATOM      2  N   UNL     1     -35.833  26.795   4.812  0.00  0.00    +0.388 N 
ATOM      3  H   UNL     1     -36.729  27.099   4.432  0.00  0.00    -0.084 HD
ATOM      4  H   UNL     1     -35.444  27.512   5.425  0.00  0.00    -0.084 HD
BRANCH   2   5
ATOM      5  C   UNL     1     -36.034  25.578   5.588  0.00  0.00    -0.033 C 
BRANCH   5   6
ATOM      6  C   UNL     1     -35.611  24.357   4.788  0.00  0.00    +0.182 C 
BRANCH   6   7
ATOM      7  O   UNL     1     -36.771  23.602   4.462  0.00  0.00    -0.478 OA
BRANCH   7   8
ATOM      8  C   UNL     1     -36.616  22.597   3.543  0.00  0.00    +0.139 C 
ATOM      9  C   UNL     1     -36.300  20.557   1.681  0.00  0.00    +0.057 C 
ATOM     10  C   UNL     1     -35.509  21.758   3.622  0.00  0.00    +0.038 C 
ATOM     11  C   UNL     1     -37.567  22.425   2.544  0.00  0.00    +0.038 C 
ATOM     12  C   UNL     1     -35.350  20.735   2.687  0.00  0.00    +0.018 C 
ATOM     13  C   UNL     1     -37.408  21.401   1.610  0.00  0.00    +0.018 C 
BRANCH   9  14
ATOM     14  N   UNL     1     -36.143  19.542   0.755  0.00  0.00    -0.246 N 
ATOM     15  N   UNL     1     -35.139  18.032  -0.542  0.00  0.00    -0.224 NA
ATOM     16  C   UNL     1     -37.141  18.901   0.067  0.00  0.00    +0.092 C 
ATOM     17  C   UNL     1     -34.958  18.980   0.351  0.00  0.00    +0.172 C 
ATOM     18  C   UNL     1     -36.497  17.979  -0.724  0.00  0.00    +0.117 C 
ENDBRANCH   9  14
ENDBRANCH   7   8
ENDBRANCH   6   7
ENDBRANCH   5   6
ENDBRANCH   2   5
ENDBRANCH   1   2
BRANCH   1  19
ATOM     19  C   UNL     1     -35.001  27.653   2.641  0.00  0.00    +0.133 C 
BRANCH  19  20
ATOM     20  O   UNL     1     -35.199  28.910   3.295  0.00  0.00    -0.383 OA
ATOM     21  H   UNL     1     -35.458  29.578   2.641  0.00  0.00    +0.210 HD
ENDBRANCH  19  20
BRANCH  19  22
ATOM     22  C   UNL     1     -36.147  27.428   1.656  0.00  0.00    +0.232 C 
BRANCH  22  23
ATOM     23  O   UNL     1     -36.828  26.228   2.011  0.00  0.00    -0.473 OA
BRANCH  23  24
ATOM     24  C   UNL     1     -38.197  26.266   1.978  0.00  0.00    +0.139 C 
ATOM     25  C   UNL     1     -40.977  26.345   1.911  0.00  0.00    +0.065 C 
ATOM     26  C   UNL     1     -38.926  25.784   3.060  0.00  0.00    +0.038 C 
ATOM     27  C   UNL     1     -38.844  26.786   0.863  0.00  0.00    +0.038 C 
ATOM     28  C   UNL     1     -40.320  25.824   3.027  0.00  0.00    +0.019 C 
ATOM     29  C   UNL     1     -40.239  26.825   0.829  0.00  0.00    +0.019 C 
BRANCH  25  30
ATOM     30  N   UNL     1     -42.403  26.385   1.877  0.00  0.00    -0.219 N 
ATOM     31  H   UNL     1     -42.922  25.634   1.507  0.00  0.00    +0.173 HD
BRANCH  30  32
ATOM     32  S   UNL     1     -43.194  27.783   2.499  0.00  0.00    +0.056 S 
ATOM     33  O   UNL     1     -42.186  28.684   3.025  0.00  0.00    -0.154 OA
ATOM     34  O   UNL     1     -44.201  28.263   1.574  0.00  0.00    -0.154 OA
ATOM     35  C   UNL     1     -44.032  27.072   3.899  0.00  0.00    +0.200 C 
ENDBRANCH  30  32
ENDBRANCH  25  30
ENDBRANCH  23  24
ENDBRANCH  22  23
ENDBRANCH  19  22
ENDBRANCH   1  19
TORSDOF 13
ENDMDL
