MODEL 1
REMARK VINA RESULT:      -7.3      0.000      0.000
REMARK  Name = 54693697
REMARK  9 active torsions:
REMARK  status: ('A' for Active; 'I' for Inactive)
REMARK    1  A    between atoms: C_3  and  C_8
REMARK    2  A    between atoms: C_3  and  C_22
REMARK    3  A    between atoms: C_5  and  O_36
REMARK    4  A    between atoms: C_6  and  C_14
REMARK    5  A    between atoms: N_21  and  C_24
REMARK    6  A    between atoms: C_24  and  C_26
REMARK    7  A    between atoms: C_24  and  C_29
REMARK    8  A    between atoms: C_26  and  O_27
REMARK    9  A    between atoms: C_29  and  C_30
REMARK                            x       y       z     vdW  Elec       q    Type
REMARK                         _______ _______ _______ _____ _____    ______ ____
ROOT
ATOM      1  O   UNL     1     -34.392  17.480  -0.734  0.00  0.00    -0.418 OA
ATOM      2  O   UNL     1     -35.471  15.891  -1.987  0.00  0.00    -0.244 OA
ATOM      3  C   UNL     1     -34.046  19.262   0.804  0.00  0.00    +0.091 C 
ATOM      4  C   UNL     1     -34.872  18.434   0.156  0.00  0.00    +0.187 C 
ATOM      5  C   UNL     1     -36.292  18.340   0.216  0.00  0.00    +0.175 C 
ATOM      6  C   UNL     1     -36.733  17.372  -0.584  0.00  0.00    +0.113 C 
ATOM      7  C   UNL     1     -35.505  16.818  -1.193  0.00  0.00    +0.349 C 
ENDROOT
BRANCH   3   8
ATOM      8  C   UNL     1     -32.595  19.165   0.571  0.00  0.00    +0.007 C 
ATOM      9  C   UNL     1     -31.948  20.124  -0.208  0.00  0.00    +0.000 C 
ATOM     10  C   UNL     1     -31.868  18.114   1.129  0.00  0.00    +0.000 C 
ATOM     11  C   UNL     1     -30.574  20.032  -0.428  0.00  0.00    +0.000 C 
ATOM     12  C   UNL     1     -30.494  18.022   0.910  0.00  0.00    +0.000 C 
ATOM     13  C   UNL     1     -29.847  18.981   0.130  0.00  0.00    +0.000 C 
ENDBRANCH   3   8
BRANCH   6  14
ATOM     14  C   UNL     1     -38.105  16.943  -0.849  0.00  0.00    +0.009 C 
ATOM     15  C   UNL     1     -38.547  15.703  -0.392  0.00  0.00    +0.000 C 
ATOM     16  C   UNL     1     -38.971  17.775  -1.560  0.00  0.00    +0.000 C 
ATOM     17  C   UNL     1     -39.857  15.293  -0.645  0.00  0.00    +0.000 C 
ATOM     18  C   UNL     1     -40.279  17.364  -1.814  0.00  0.00    +0.000 C 
ATOM     19  C   UNL     1     -40.722  16.123  -1.356  0.00  0.00    +0.000 C 
ENDBRANCH   6  14
BRANCH   3  22
ATOM     20  O   UNL     1     -34.832  19.924   2.961  0.00  0.00    -0.270 OA
ATOM     21  N   UNL     1     -35.031  21.439   1.225  0.00  0.00    -0.293 N 
ATOM     22  C   UNL     1     -34.665  20.222   1.780  0.00  0.00    +0.249 C 
ATOM     23  H   UNL     1     -34.862  21.599   0.268  0.00  0.00    +0.150 HD
BRANCH  21  24
ATOM     24  C   UNL     1     -35.652  22.478   2.009  0.00  0.00    +0.176 C 
BRANCH  24  26
ATOM     25  O   UNL     1     -37.505  23.572   0.909  0.00  0.00    -0.248 OA
ATOM     26  C   UNL     1     -37.119  22.675   1.651  0.00  0.00    +0.335 C 
BRANCH  26  27
ATOM     27  O   UNL     1     -37.924  21.760   2.260  0.00  0.00    -0.443 OA
ATOM     28  C   UNL     1     -39.302  21.791   1.878  0.00  0.00    +0.256 C 
ENDBRANCH  26  27
ENDBRANCH  24  26
BRANCH  24  29
ATOM     29  C   UNL     1     -34.857  23.789   1.927  0.00  0.00    +0.057 C 
BRANCH  29  30
ATOM     30  C   UNL     1     -34.671  24.499   3.250  0.00  0.00    -0.020 C 
ATOM     31  C   UNL     1     -34.139  25.788   3.281  0.00  0.00    -0.004 C 
ATOM     32  C   UNL     1     -35.030  23.864   4.438  0.00  0.00    -0.004 C 
ATOM     33  C   UNL     1     -33.966  26.442   4.501  0.00  0.00    -0.000 C 
ATOM     34  C   UNL     1     -34.859  24.518   5.658  0.00  0.00    -0.000 C 
ATOM     35  C   UNL     1     -34.326  25.808   5.689  0.00  0.00    -0.000 C 
ENDBRANCH  29  30
ENDBRANCH  24  29
ENDBRANCH  21  24
ENDBRANCH   3  22
BRANCH   5  36
ATOM     36  O   UNL     1     -37.061  19.171   0.981  0.00  0.00    -0.503 OA
ATOM     37  H   UNL     1     -37.826  19.570   0.614  0.00  0.00    +0.292 HD
ENDBRANCH   5  36
TORSDOF 9
ENDMDL
MODEL 2
REMARK VINA RESULT:      -7.2      5.497      7.693
REMARK  Name = 54693697
REMARK  9 active torsions:
REMARK  status: ('A' for Active; 'I' for Inactive)
REMARK    1  A    between atoms: C_3  and  C_8
REMARK    2  A    between atoms: C_3  and  C_22
REMARK    3  A    between atoms: C_5  and  O_36
REMARK    4  A    between atoms: C_6  and  C_14
REMARK    5  A    between atoms: N_21  and  C_24
REMARK    6  A    between atoms: C_24  and  C_26
REMARK    7  A    between atoms: C_24  and  C_29
REMARK    8  A    between atoms: C_26  and  O_27
REMARK    9  A    between atoms: C_29  and  C_30
REMARK                            x       y       z     vdW  Elec       q    Type
REMARK                         _______ _______ _______ _____ _____    ______ ____
ROOT
ATOM      1  O   UNL     1     -38.375  23.497   3.177  0.00  0.00    -0.418 OA
ATOM      2  O   UNL     1     -40.414  23.060   2.222  0.00  0.00    -0.244 OA
ATOM      3  C   UNL     1     -36.463  24.705   3.918  0.00  0.00    +0.091 C 
ATOM      4  C   UNL     1     -37.644  24.675   3.291  0.00  0.00    +0.187 C 
ATOM      5  C   UNL     1     -38.361  25.729   2.658  0.00  0.00    +0.175 C 
ATOM      6  C   UNL     1     -39.510  25.281   2.155  0.00  0.00    +0.113 C 
ATOM      7  C   UNL     1     -39.516  23.842   2.495  0.00  0.00    +0.349 C 
ENDROOT
BRANCH   3   8
ATOM      8  C   UNL     1     -35.921  23.465   4.500  0.00  0.00    +0.007 C 
ATOM      9  C   UNL     1     -35.670  22.363   3.683  0.00  0.00    +0.000 C 
ATOM     10  C   UNL     1     -35.659  23.394   5.867  0.00  0.00    +0.000 C 
ATOM     11  C   UNL     1     -35.157  21.189   4.234  0.00  0.00    +0.000 C 
ATOM     12  C   UNL     1     -35.146  22.221   6.420  0.00  0.00    +0.000 C 
ATOM     13  C   UNL     1     -34.895  21.118   5.602  0.00  0.00    +0.000 C 
ENDBRANCH   3   8
BRANCH   6  14
ATOM     14  C   UNL     1     -40.540  26.004   1.411  0.00  0.00    +0.009 C 
ATOM     15  C   UNL     1     -40.427  26.150   0.030  0.00  0.00    +0.000 C 
ATOM     16  C   UNL     1     -41.634  26.547   2.085  0.00  0.00    +0.000 C 
ATOM     17  C   UNL     1     -41.410  26.841  -0.680  0.00  0.00    +0.000 C 
ATOM     18  C   UNL     1     -42.616  27.238   1.375  0.00  0.00    +0.000 C 
ATOM     19  C   UNL     1     -42.504  27.385  -0.008  0.00  0.00    +0.000 C 
ENDBRANCH   6  14
BRANCH   3  22
ATOM     20  O   UNL     1     -35.922  26.757   5.015  0.00  0.00    -0.270 OA
ATOM     21  N   UNL     1     -35.006  26.373   2.926  0.00  0.00    -0.293 N 
ATOM     22  C   UNL     1     -35.780  26.038   4.027  0.00  0.00    +0.249 C 
ATOM     23  H   UNL     1     -34.946  25.740   2.174  0.00  0.00    +0.150 HD
BRANCH  21  24
ATOM     24  C   UNL     1     -34.288  27.620   2.850  0.00  0.00    +0.176 C 
BRANCH  24  26
ATOM     25  O   UNL     1     -33.362  28.451   0.778  0.00  0.00    -0.248 OA
ATOM     26  C   UNL     1     -34.359  28.245   1.462  0.00  0.00    +0.335 C 
BRANCH  26  27
ATOM     27  O   UNL     1     -35.636  28.551   1.101  0.00  0.00    -0.443 OA
ATOM     28  C   UNL     1     -36.083  29.865   1.451  0.00  0.00    +0.256 C 
ENDBRANCH  26  27
ENDBRANCH  24  26
BRANCH  24  29
ATOM     29  C   UNL     1     -32.841  27.463   3.338  0.00  0.00    +0.057 C 
BRANCH  29  30
ATOM     30  C   UNL     1     -32.443  28.409   4.449  0.00  0.00    -0.020 C 
ATOM     31  C   UNL     1     -32.279  29.768   4.183  0.00  0.00    -0.004 C 
ATOM     32  C   UNL     1     -32.238  27.922   5.740  0.00  0.00    -0.004 C 
ATOM     33  C   UNL     1     -31.911  30.640   5.207  0.00  0.00    -0.000 C 
ATOM     34  C   UNL     1     -31.871  28.793   6.764  0.00  0.00    -0.000 C 
ATOM     35  C   UNL     1     -31.707  30.153   6.498  0.00  0.00    -0.000 C 
ENDBRANCH  29  30
ENDBRANCH  24  29
ENDBRANCH  21  24
ENDBRANCH   3  22
BRANCH   5  36
ATOM     36  O   UNL     1     -37.885  27.007   2.572  0.00  0.00    -0.503 OA
ATOM     37  H   UNL     1     -37.722  27.499   3.353  0.00  0.00    +0.292 HD
ENDBRANCH   5  36
TORSDOF 9
ENDMDL
MODEL 3
REMARK VINA RESULT:      -7.1      5.898     10.065
REMARK  Name = 54693697
REMARK  9 active torsions:
REMARK  status: ('A' for Active; 'I' for Inactive)
REMARK    1  A    between atoms: C_3  and  C_8
REMARK    2  A    between atoms: C_3  and  C_22
REMARK    3  A    between atoms: C_5  and  O_36
REMARK    4  A    between atoms: C_6  and  C_14
REMARK    5  A    between atoms: N_21  and  C_24
REMARK    6  A    between atoms: C_24  and  C_26
REMARK    7  A    between atoms: C_24  and  C_29
REMARK    8  A    between atoms: C_26  and  O_27
REMARK    9  A    between atoms: C_29  and  C_30
REMARK                            x       y       z     vdW  Elec       q    Type
REMARK                         _______ _______ _______ _____ _____    ______ ____
ROOT
ATOM      1  O   UNL     1     -36.360  27.044   2.625  0.00  0.00    -0.418 OA
ATOM      2  O   UNL     1     -37.686  25.185   2.836  0.00  0.00    -0.244 OA
ATOM      3  C   UNL     1     -34.459  28.466   2.779  0.00  0.00    +0.091 C 
ATOM      4  C   UNL     1     -35.053  27.295   3.028  0.00  0.00    +0.187 C 
ATOM      5  C   UNL     1     -34.545  26.144   3.695  0.00  0.00    +0.175 C 
ATOM      6  C   UNL     1     -35.459  25.177   3.728  0.00  0.00    +0.113 C 
ATOM      7  C   UNL     1     -36.628  25.760   3.034  0.00  0.00    +0.349 C 
ENDROOT
BRANCH   3   8
ATOM      8  C   UNL     1     -35.202  29.517   2.063  0.00  0.00    +0.007 C 
ATOM      9  C   UNL     1     -35.471  29.375   0.702  0.00  0.00    +0.000 C 
ATOM     10  C   UNL     1     -35.636  30.652   2.745  0.00  0.00    +0.000 C 
ATOM     11  C   UNL     1     -36.175  30.370   0.023  0.00  0.00    +0.000 C 
ATOM     12  C   UNL     1     -36.341  31.648   2.068  0.00  0.00    +0.000 C 
ATOM     13  C   UNL     1     -36.610  31.507   0.706  0.00  0.00    +0.000 C 
ENDBRANCH   3   8
BRANCH   6  14
ATOM     14  C   UNL     1     -35.377  23.845   4.324  0.00  0.00    +0.009 C 
ATOM     15  C   UNL     1     -35.314  23.705   5.710  0.00  0.00    +0.000 C 
ATOM     16  C   UNL     1     -35.362  22.715   3.507  0.00  0.00    +0.000 C 
ATOM     17  C   UNL     1     -35.234  22.434   6.279  0.00  0.00    +0.000 C 
ATOM     18  C   UNL     1     -35.283  21.444   4.076  0.00  0.00    +0.000 C 
ATOM     19  C   UNL     1     -35.219  21.304   5.463  0.00  0.00    +0.000 C 
ENDBRANCH   6  14
BRANCH   3  22
ATOM     20  O   UNL     1     -32.095  28.278   2.489  0.00  0.00    -0.270 OA
ATOM     21  N   UNL     1     -32.875  29.143   4.488  0.00  0.00    -0.293 N 
ATOM     22  C   UNL     1     -33.029  28.615   3.215  0.00  0.00    +0.249 C 
ATOM     23  H   UNL     1     -33.676  29.387   5.005  0.00  0.00    +0.150 HD
BRANCH  21  24
ATOM     24  C   UNL     1     -31.575  29.345   5.077  0.00  0.00    +0.176 C 
BRANCH  24  26
ATOM     25  O   UNL     1     -32.019  27.390   6.427  0.00  0.00    -0.248 OA
ATOM     26  C   UNL     1     -31.259  28.312   6.151  0.00  0.00    +0.335 C 
BRANCH  26  27
ATOM     27  O   UNL     1     -30.064  28.552   6.759  0.00  0.00    -0.443 OA
ATOM     28  C   UNL     1     -28.908  28.058   6.075  0.00  0.00    +0.256 C 
ENDBRANCH  26  27
ENDBRANCH  24  26
BRANCH  24  29
ATOM     29  C   UNL     1     -31.411  30.781   5.593  0.00  0.00    +0.057 C 
BRANCH  29  30
ATOM     30  C   UNL     1     -30.574  31.679   4.709  0.00  0.00    -0.020 C 
ATOM     31  C   UNL     1     -31.185  32.453   3.723  0.00  0.00    -0.004 C 
ATOM     32  C   UNL     1     -29.191  31.733   4.880  0.00  0.00    -0.004 C 
ATOM     33  C   UNL     1     -30.413  33.281   2.907  0.00  0.00    -0.000 C 
ATOM     34  C   UNL     1     -28.419  32.560   4.066  0.00  0.00    -0.000 C 
ATOM     35  C   UNL     1     -29.031  33.334   3.078  0.00  0.00    -0.000 C 
ENDBRANCH  29  30
ENDBRANCH  24  29
ENDBRANCH  21  24
ENDBRANCH   3  22
BRANCH   5  36
ATOM     36  O   UNL     1     -33.293  26.092   4.240  0.00  0.00    -0.503 OA
ATOM     37  H   UNL     1     -33.136  26.458   5.088  0.00  0.00    +0.292 HD
ENDBRANCH   5  36
TORSDOF 9
ENDMDL
MODEL 4
REMARK VINA RESULT:      -7.0      5.976      9.981
REMARK  Name = 54693697
REMARK  9 active torsions:
REMARK  status: ('A' for Active; 'I' for Inactive)
REMARK    1  A    between atoms: C_3  and  C_8
REMARK    2  A    between atoms: C_3  and  C_22
REMARK    3  A    between atoms: C_5  and  O_36
REMARK    4  A    between atoms: C_6  and  C_14
REMARK    5  A    between atoms: N_21  and  C_24
REMARK    6  A    between atoms: C_24  and  C_26
REMARK    7  A    between atoms: C_24  and  C_29
REMARK    8  A    between atoms: C_26  and  O_27
REMARK    9  A    between atoms: C_29  and  C_30
REMARK                            x       y       z     vdW  Elec       q    Type
REMARK                         _______ _______ _______ _____ _____    ______ ____
ROOT
ATOM      1  O   UNL     1     -36.046  27.174   2.741  0.00  0.00    -0.418 OA
ATOM      2  O   UNL     1     -37.540  25.467   3.076  0.00  0.00    -0.244 OA
ATOM      3  C   UNL     1     -33.996  28.382   2.721  0.00  0.00    +0.091 C 
ATOM      4  C   UNL     1     -34.689  27.280   3.026  0.00  0.00    +0.187 C 
ATOM      5  C   UNL     1     -34.250  26.078   3.650  0.00  0.00    +0.175 C 
ATOM      6  C   UNL     1     -35.257  25.215   3.768  0.00  0.00    +0.113 C 
ATOM      7  C   UNL     1     -36.413  25.925   3.178  0.00  0.00    +0.349 C 
ENDROOT
BRANCH   3   8
ATOM      8  C   UNL     1     -34.682  29.511   2.069  0.00  0.00    +0.007 C 
ATOM      9  C   UNL     1     -34.641  29.643   0.681  0.00  0.00    +0.000 C 
ATOM     10  C   UNL     1     -35.371  30.447   2.839  0.00  0.00    +0.000 C 
ATOM     11  C   UNL     1     -35.291  30.712   0.063  0.00  0.00    +0.000 C 
ATOM     12  C   UNL     1     -36.021  31.515   2.222  0.00  0.00    +0.000 C 
ATOM     13  C   UNL     1     -35.980  31.648   0.833  0.00  0.00    +0.000 C 
ENDBRANCH   3   8
BRANCH   6  14
ATOM     14  C   UNL     1     -35.267  23.879   4.360  0.00  0.00    +0.009 C 
ATOM     15  C   UNL     1     -35.227  23.731   5.746  0.00  0.00    +0.000 C 
ATOM     16  C   UNL     1     -35.317  22.752   3.539  0.00  0.00    +0.000 C 
ATOM     17  C   UNL     1     -35.235  22.455   6.312  0.00  0.00    +0.000 C 
ATOM     18  C   UNL     1     -35.325  21.477   4.104  0.00  0.00    +0.000 C 
ATOM     19  C   UNL     1     -35.285  21.329   5.491  0.00  0.00    +0.000 C 
ENDBRANCH   6  14
BRANCH   3  22
ATOM     20  O   UNL     1     -31.720  27.782   2.311  0.00  0.00    -0.270 OA
ATOM     21  N   UNL     1     -32.181  29.069   4.177  0.00  0.00    -0.293 N 
ATOM     22  C   UNL     1     -32.525  28.374   3.028  0.00  0.00    +0.249 C 
ATOM     23  H   UNL     1     -32.888  29.516   4.696  0.00  0.00    +0.150 HD
BRANCH  21  24
ATOM     24  C   UNL     1     -30.817  29.157   4.635  0.00  0.00    +0.176 C 
BRANCH  24  26
ATOM     25  O   UNL     1     -31.101  29.517   7.008  0.00  0.00    -0.248 OA
ATOM     26  C   UNL     1     -30.676  28.799   6.108  0.00  0.00    +0.335 C 
BRANCH  26  27
ATOM     27  O   UNL     1     -30.019  27.620   6.290  0.00  0.00    -0.443 OA
ATOM     28  C   UNL     1     -28.632  27.726   6.628  0.00  0.00    +0.256 C 
ENDBRANCH  26  27
ENDBRANCH  24  26
BRANCH  24  29
ATOM     29  C   UNL     1     -30.207  30.529   4.314  0.00  0.00    +0.057 C 
BRANCH  29  30
ATOM     30  C   UNL     1     -30.882  31.272   3.183  0.00  0.00    -0.020 C 
ATOM     31  C   UNL     1     -31.911  32.173   3.457  0.00  0.00    -0.004 C 
ATOM     32  C   UNL     1     -30.477  31.056   1.866  0.00  0.00    -0.004 C 
ATOM     33  C   UNL     1     -32.534  32.859   2.413  0.00  0.00    -0.000 C 
ATOM     34  C   UNL     1     -31.099  31.740   0.823  0.00  0.00    -0.000 C 
ATOM     35  C   UNL     1     -32.129  32.642   1.097  0.00  0.00    -0.000 C 
ENDBRANCH  29  30
ENDBRANCH  24  29
ENDBRANCH  21  24
ENDBRANCH   3  22
BRANCH   5  36
ATOM     36  O   UNL     1     -32.969  25.888   4.083  0.00  0.00    -0.503 OA
ATOM     37  H   UNL     1     -32.799  25.733   4.992  0.00  0.00    +0.292 HD
ENDBRANCH   5  36
TORSDOF 9
ENDMDL
MODEL 5
REMARK VINA RESULT:      -6.9      2.091      6.497
REMARK  Name = 54693697
REMARK  9 active torsions:
REMARK  status: ('A' for Active; 'I' for Inactive)
REMARK    1  A    between atoms: C_3  and  C_8
REMARK    2  A    between atoms: C_3  and  C_22
REMARK    3  A    between atoms: C_5  and  O_36
REMARK    4  A    between atoms: C_6  and  C_14
REMARK    5  A    between atoms: N_21  and  C_24
REMARK    6  A    between atoms: C_24  and  C_26
REMARK    7  A    between atoms: C_24  and  C_29
REMARK    8  A    between atoms: C_26  and  O_27
REMARK    9  A    between atoms: C_29  and  C_30
REMARK                            x       y       z     vdW  Elec       q    Type
REMARK                         _______ _______ _______ _____ _____    ______ ____
ROOT
ATOM      1  O   UNL     1     -38.213  22.546   2.561  0.00  0.00    -0.418 OA
ATOM      2  O   UNL     1     -40.385  23.096   2.070  0.00  0.00    -0.244 OA
ATOM      3  C   UNL     1     -36.005  21.700   2.299  0.00  0.00    +0.091 C 
ATOM      4  C   UNL     1     -37.233  21.902   1.813  0.00  0.00    +0.187 C 
ATOM      5  C   UNL     1     -37.777  21.545   0.546  0.00  0.00    +0.175 C 
ATOM      6  C   UNL     1     -39.046  21.936   0.452  0.00  0.00    +0.113 C 
ATOM      7  C   UNL     1     -39.323  22.583   1.752  0.00  0.00    +0.349 C 
ENDROOT
BRANCH   3   8
ATOM      8  C   UNL     1     -35.678  22.167   3.657  0.00  0.00    +0.007 C 
ATOM      9  C   UNL     1     -35.416  21.242   4.668  0.00  0.00    +0.000 C 
ATOM     10  C   UNL     1     -35.631  23.533   3.933  0.00  0.00    +0.000 C 
ATOM     11  C   UNL     1     -35.107  21.684   5.954  0.00  0.00    +0.000 C 
ATOM     12  C   UNL     1     -35.322  23.976   5.218  0.00  0.00    +0.000 C 
ATOM     13  C   UNL     1     -35.060  23.051   6.230  0.00  0.00    +0.000 C 
ENDBRANCH   3   8
BRANCH   6  14
ATOM     14  C   UNL     1     -39.989  21.761  -0.651  0.00  0.00    +0.009 C 
ATOM     15  C   UNL     1     -39.903  22.579  -1.777  0.00  0.00    +0.000 C 
ATOM     16  C   UNL     1     -40.975  20.777  -0.576  0.00  0.00    +0.000 C 
ATOM     17  C   UNL     1     -40.805  22.413  -2.830  0.00  0.00    +0.000 C 
ATOM     18  C   UNL     1     -41.876  20.612  -1.628  0.00  0.00    +0.000 C 
ATOM     19  C   UNL     1     -41.790  21.430  -2.755  0.00  0.00    +0.000 C 
ENDBRANCH   6  14
BRANCH   3  22
ATOM     20  O   UNL     1     -34.257  21.695   0.669  0.00  0.00    -0.270 OA
ATOM     21  N   UNL     1     -35.031  19.653   1.434  0.00  0.00    -0.293 N 
ATOM     22  C   UNL     1     -35.008  21.039   1.390  0.00  0.00    +0.249 C 
ATOM     23  H   UNL     1     -35.664  19.204   2.039  0.00  0.00    +0.150 HD
BRANCH  21  24
ATOM     24  C   UNL     1     -34.153  18.850   0.619  0.00  0.00    +0.176 C 
BRANCH  24  26
ATOM     25  O   UNL     1     -34.429  16.556  -0.087  0.00  0.00    -0.248 OA
ATOM     26  C   UNL     1     -34.883  17.694  -0.052  0.00  0.00    +0.335 C 
BRANCH  26  27
ATOM     27  O   UNL     1     -36.065  18.085  -0.606  0.00  0.00    -0.443 OA
ATOM     28  C   UNL     1     -37.181  17.223  -0.364  0.00  0.00    +0.256 C 
ENDBRANCH  26  27
ENDBRANCH  24  26
BRANCH  24  29
ATOM     29  C   UNL     1     -32.930  18.375   1.416  0.00  0.00    +0.057 C 
BRANCH  29  30
ATOM     30  C   UNL     1     -31.597  18.693   0.777  0.00  0.00    -0.020 C 
ATOM     31  C   UNL     1     -31.437  19.869   0.045  0.00  0.00    -0.004 C 
ATOM     32  C   UNL     1     -30.527  17.810   0.919  0.00  0.00    -0.004 C 
ATOM     33  C   UNL     1     -30.208  20.162  -0.545  0.00  0.00    -0.000 C 
ATOM     34  C   UNL     1     -29.298  18.103   0.330  0.00  0.00    -0.000 C 
ATOM     35  C   UNL     1     -29.138  19.279  -0.403  0.00  0.00    -0.000 C 
ENDBRANCH  29  30
ENDBRANCH  24  29
ENDBRANCH  21  24
ENDBRANCH   3  22
BRANCH   5  36
ATOM     36  O   UNL     1     -37.067  20.867  -0.404  0.00  0.00    -0.503 OA
ATOM     37  H   UNL     1     -36.154  20.698  -0.275  0.00  0.00    +0.292 HD
ENDBRANCH   5  36
TORSDOF 9
ENDMDL
MODEL 6
REMARK VINA RESULT:      -6.7      1.581      7.799
REMARK  Name = 54693697
REMARK  9 active torsions:
REMARK  status: ('A' for Active; 'I' for Inactive)
REMARK    1  A    between atoms: C_3  and  C_8
REMARK    2  A    between atoms: C_3  and  C_22
REMARK    3  A    between atoms: C_5  and  O_36
REMARK    4  A    between atoms: C_6  and  C_14
REMARK    5  A    between atoms: N_21  and  C_24
REMARK    6  A    between atoms: C_24  and  C_26
REMARK    7  A    between atoms: C_24  and  C_29
REMARK    8  A    between atoms: C_26  and  O_27
REMARK    9  A    between atoms: C_29  and  C_30
REMARK                            x       y       z     vdW  Elec       q    Type
REMARK                         _______ _______ _______ _____ _____    ______ ____
ROOT
ATOM      1  O   UNL     1     -38.102  20.994   1.230  0.00  0.00    -0.418 OA
ATOM      2  O   UNL     1     -38.681  22.516   2.845  0.00  0.00    -0.244 OA
ATOM      3  C   UNL     1     -36.757  19.606  -0.157  0.00  0.00    +0.091 C 
ATOM      4  C   UNL     1     -36.863  20.527   0.806  0.00  0.00    +0.187 C 
ATOM      5  C   UNL     1     -35.841  21.183   1.549  0.00  0.00    +0.175 C 
ATOM      6  C   UNL     1     -36.369  22.034   2.426  0.00  0.00    +0.113 C 
ATOM      7  C   UNL     1     -37.828  21.907   2.219  0.00  0.00    +0.349 C 
ENDROOT
BRANCH   3   8
ATOM      8  C   UNL     1     -37.978  19.071  -0.784  0.00  0.00    +0.007 C 
ATOM      9  C   UNL     1     -38.262  17.708  -0.705  0.00  0.00    +0.000 C 
ATOM     10  C   UNL     1     -38.848  19.927  -1.457  0.00  0.00    +0.000 C 
ATOM     11  C   UNL     1     -39.419  17.202  -1.299  0.00  0.00    +0.000 C 
ATOM     12  C   UNL     1     -40.004  19.422  -2.051  0.00  0.00    +0.000 C 
ATOM     13  C   UNL     1     -40.289  18.058  -1.973  0.00  0.00    +0.000 C 
ENDBRANCH   3   8
BRANCH   6  14
ATOM     14  C   UNL     1     -35.699  22.925   3.372  0.00  0.00    +0.009 C 
ATOM     15  C   UNL     1     -35.685  22.614   4.731  0.00  0.00    +0.000 C 
ATOM     16  C   UNL     1     -35.074  24.085   2.914  0.00  0.00    +0.000 C 
ATOM     17  C   UNL     1     -35.046  23.465   5.634  0.00  0.00    +0.000 C 
ATOM     18  C   UNL     1     -34.435  24.935   3.817  0.00  0.00    +0.000 C 
ATOM     19  C   UNL     1     -34.421  24.624   5.177  0.00  0.00    +0.000 C 
ENDBRANCH   6  14
BRANCH   3  22
ATOM     20  O   UNL     1     -34.735  19.637  -1.429  0.00  0.00    -0.270 OA
ATOM     21  N   UNL     1     -34.909  18.098   0.289  0.00  0.00    -0.293 N 
ATOM     22  C   UNL     1     -35.373  19.135  -0.505  0.00  0.00    +0.249 C 
ATOM     23  H   UNL     1     -35.485  17.753   1.010  0.00  0.00    +0.150 HD
BRANCH  21  24
ATOM     24  C   UNL     1     -33.608  17.510   0.091  0.00  0.00    +0.176 C 
BRANCH  24  26
ATOM     25  O   UNL     1     -32.662  15.296  -0.113  0.00  0.00    -0.248 OA
ATOM     26  C   UNL     1     -33.665  15.991   0.010  0.00  0.00    +0.335 C 
BRANCH  26  27
ATOM     27  O   UNL     1     -34.943  15.521   0.071  0.00  0.00    -0.443 OA
ATOM     28  C   UNL     1     -35.373  14.741  -1.048  0.00  0.00    +0.256 C 
ENDBRANCH  26  27
ENDBRANCH  24  26
BRANCH  24  29
ATOM     29  C   UNL     1     -32.609  17.993   1.153  0.00  0.00    +0.057 C 
BRANCH  29  30
ATOM     30  C   UNL     1     -31.341  18.601   0.597  0.00  0.00    -0.020 C 
ATOM     31  C   UNL     1     -31.388  19.826  -0.067  0.00  0.00    -0.004 C 
ATOM     32  C   UNL     1     -30.124  17.937   0.749  0.00  0.00    -0.004 C 
ATOM     33  C   UNL     1     -30.218  20.387  -0.580  0.00  0.00    -0.000 C 
ATOM     34  C   UNL     1     -28.955  18.497   0.237  0.00  0.00    -0.000 C 
ATOM     35  C   UNL     1     -29.002  19.723  -0.428  0.00  0.00    -0.000 C 
ENDBRANCH  29  30
ENDBRANCH  24  29
ENDBRANCH  21  24
ENDBRANCH   3  22
BRANCH   5  36
ATOM     36  O   UNL     1     -34.509  20.962   1.339  0.00  0.00    -0.503 OA
ATOM     37  H   UNL     1     -33.991  20.553   2.004  0.00  0.00    +0.292 HD
ENDBRANCH   5  36
TORSDOF 9
ENDMDL
MODEL 7
REMARK VINA RESULT:      -6.7      4.482      7.483
REMARK  Name = 54693697
REMARK  9 active torsions:
REMARK  status: ('A' for Active; 'I' for Inactive)
REMARK    1  A    between atoms: C_3  and  C_8
REMARK    2  A    between atoms: C_3  and  C_22
REMARK    3  A    between atoms: C_5  and  O_36
REMARK    4  A    between atoms: C_6  and  C_14
REMARK    5  A    between atoms: N_21  and  C_24
REMARK    6  A    between atoms: C_24  and  C_26
REMARK    7  A    between atoms: C_24  and  C_29
REMARK    8  A    between atoms: C_26  and  O_27
REMARK    9  A    between atoms: C_29  and  C_30
REMARK                            x       y       z     vdW  Elec       q    Type
REMARK                         _______ _______ _______ _____ _____    ______ ____
ROOT
ATOM      1  O   UNL     1     -38.641  23.301   1.907  0.00  0.00    -0.418 OA
ATOM      2  O   UNL     1     -40.862  23.159   1.355  0.00  0.00    -0.244 OA
ATOM      3  C   UNL     1     -36.603  24.163   2.781  0.00  0.00    +0.091 C 
ATOM      4  C   UNL     1     -37.910  24.302   2.537  0.00  0.00    +0.187 C 
ATOM      5  C   UNL     1     -38.776  25.392   2.833  0.00  0.00    +0.175 C 
ATOM      6  C   UNL     1     -40.018  25.130   2.430  0.00  0.00    +0.113 C 
ATOM      7  C   UNL     1     -39.927  23.779   1.835  0.00  0.00    +0.349 C 
ENDROOT
BRANCH   3   8
ATOM      8  C   UNL     1     -35.919  22.924   2.374  0.00  0.00    +0.007 C 
ATOM      9  C   UNL     1     -35.214  22.880   1.170  0.00  0.00    +0.000 C 
ATOM     10  C   UNL     1     -35.975  21.795   3.190  0.00  0.00    +0.000 C 
ATOM     11  C   UNL     1     -34.566  21.707   0.784  0.00  0.00    +0.000 C 
ATOM     12  C   UNL     1     -35.327  20.622   2.805  0.00  0.00    +0.000 C 
ATOM     13  C   UNL     1     -34.623  20.578   1.601  0.00  0.00    +0.000 C 
ENDBRANCH   3   8
BRANCH   6  14
ATOM     14  C   UNL     1     -41.214  25.966   2.511  0.00  0.00    +0.009 C 
ATOM     15  C   UNL     1     -41.679  26.397   3.752  0.00  0.00    +0.000 C 
ATOM     16  C   UNL     1     -41.890  26.331   1.347  0.00  0.00    +0.000 C 
ATOM     17  C   UNL     1     -42.822  27.194   3.830  0.00  0.00    +0.000 C 
ATOM     18  C   UNL     1     -43.032  27.127   1.425  0.00  0.00    +0.000 C 
ATOM     19  C   UNL     1     -43.498  27.559   2.667  0.00  0.00    +0.000 C 
ENDBRANCH   6  14
BRANCH   3  22
ATOM     20  O   UNL     1     -35.822  25.291   4.738  0.00  0.00    -0.270 OA
ATOM     21  N   UNL     1     -35.436  26.288   2.686  0.00  0.00    -0.293 N 
ATOM     22  C   UNL     1     -35.919  25.284   3.511  0.00  0.00    +0.249 C 
ATOM     23  H   UNL     1     -35.555  26.205   1.712  0.00  0.00    +0.150 HD
BRANCH  21  24
ATOM     24  C   UNL     1     -34.762  27.448   3.213  0.00  0.00    +0.176 C 
BRANCH  24  26
ATOM     25  O   UNL     1     -35.007  28.635   1.121  0.00  0.00    -0.248 OA
ATOM     26  C   UNL     1     -34.975  28.683   2.346  0.00  0.00    +0.335 C 
BRANCH  26  27
ATOM     27  O   UNL     1     -35.103  29.817   3.091  0.00  0.00    -0.443 OA
ATOM     28  C   UNL     1     -35.795  30.899   2.461  0.00  0.00    +0.256 C 
ENDBRANCH  26  27
ENDBRANCH  24  26
BRANCH  24  29
ATOM     29  C   UNL     1     -33.274  27.167   3.460  0.00  0.00    +0.057 C 
BRANCH  29  30
ATOM     30  C   UNL     1     -32.707  27.810   4.707  0.00  0.00    -0.020 C 
ATOM     31  C   UNL     1     -32.865  27.187   5.945  0.00  0.00    -0.004 C 
ATOM     32  C   UNL     1     -32.029  29.025   4.618  0.00  0.00    -0.004 C 
ATOM     33  C   UNL     1     -32.343  27.780   7.095  0.00  0.00    -0.000 C 
ATOM     34  C   UNL     1     -31.507  29.617   5.767  0.00  0.00    -0.000 C 
ATOM     35  C   UNL     1     -31.664  28.995   7.006  0.00  0.00    -0.000 C 
ENDBRANCH  29  30
ENDBRANCH  24  29
ENDBRANCH  21  24
ENDBRANCH   3  22
BRANCH   5  36
ATOM     36  O   UNL     1     -38.345  26.546   3.425  0.00  0.00    -0.503 OA
ATOM     37  H   UNL     1     -38.213  26.575   4.352  0.00  0.00    +0.292 HD
ENDBRANCH   5  36
TORSDOF 9
ENDMDL
MODEL 8
REMARK VINA RESULT:      -6.5      1.399      2.475
REMARK  Name = 54693697
REMARK  9 active torsions:
REMARK  status: ('A' for Active; 'I' for Inactive)
REMARK    1  A    between atoms: C_3  and  C_8
REMARK    2  A    between atoms: C_3  and  C_22
REMARK    3  A    between atoms: C_5  and  O_36
REMARK    4  A    between atoms: C_6  and  C_14
REMARK    5  A    between atoms: N_21  and  C_24
REMARK    6  A    between atoms: C_24  and  C_26
REMARK    7  A    between atoms: C_24  and  C_29
REMARK    8  A    between atoms: C_26  and  O_27
REMARK    9  A    between atoms: C_29  and  C_30
REMARK                            x       y       z     vdW  Elec       q    Type
REMARK                         _______ _______ _______ _____ _____    ______ ____
ROOT
ATOM      1  O   UNL     1     -34.543  18.490  -1.163  0.00  0.00    -0.418 OA
ATOM      2  O   UNL     1     -35.501  16.940  -2.555  0.00  0.00    -0.244 OA
ATOM      3  C   UNL     1     -34.270  19.996   0.659  0.00  0.00    +0.091 C 
ATOM      4  C   UNL     1     -35.022  19.125  -0.022  0.00  0.00    +0.187 C 
ATOM      5  C   UNL     1     -36.352  18.684   0.231  0.00  0.00    +0.175 C 
ATOM      6  C   UNL     1     -36.736  17.798  -0.686  0.00  0.00    +0.113 C 
ATOM      7  C   UNL     1     -35.566  17.674  -1.581  0.00  0.00    +0.349 C 
ENDROOT
BRANCH   3   8
ATOM      8  C   UNL     1     -32.905  20.293   0.192  0.00  0.00    +0.007 C 
ATOM      9  C   UNL     1     -31.882  19.367   0.396  0.00  0.00    +0.000 C 
ATOM     10  C   UNL     1     -32.635  21.499  -0.452  0.00  0.00    +0.000 C 
ATOM     11  C   UNL     1     -30.589  19.647  -0.045  0.00  0.00    +0.000 C 
ATOM     12  C   UNL     1     -31.343  21.781  -0.894  0.00  0.00    +0.000 C 
ATOM     13  C   UNL     1     -30.319  20.855  -0.690  0.00  0.00    +0.000 C 
ENDBRANCH   3   8
BRANCH   6  14
ATOM     14  C   UNL     1     -38.017  17.108  -0.827  0.00  0.00    +0.009 C 
ATOM     15  C   UNL     1     -39.074  17.730  -1.488  0.00  0.00    +0.000 C 
ATOM     16  C   UNL     1     -38.179  15.827  -0.299  0.00  0.00    +0.000 C 
ATOM     17  C   UNL     1     -40.297  17.071  -1.622  0.00  0.00    +0.000 C 
ATOM     18  C   UNL     1     -39.402  15.168  -0.433  0.00  0.00    +0.000 C 
ATOM     19  C   UNL     1     -40.460  15.791  -1.095  0.00  0.00    +0.000 C 
ENDBRANCH   6  14
BRANCH   3  22
ATOM     20  O   UNL     1     -34.797  20.013   2.989  0.00  0.00    -0.270 OA
ATOM     21  N   UNL     1     -35.497  21.808   1.708  0.00  0.00    -0.293 N 
ATOM     22  C   UNL     1     -34.866  20.588   1.904  0.00  0.00    +0.249 C 
ATOM     23  H   UNL     1     -35.508  22.201   0.805  0.00  0.00    +0.150 HD
BRANCH  21  24
ATOM     24  C   UNL     1     -36.137  22.517   2.787  0.00  0.00    +0.176 C 
BRANCH  24  26
ATOM     25  O   UNL     1     -38.267  21.671   2.021  0.00  0.00    -0.248 OA
ATOM     26  C   UNL     1     -37.654  22.521   2.658  0.00  0.00    +0.335 C 
BRANCH  26  27
ATOM     27  O   UNL     1     -38.222  23.573   3.311  0.00  0.00    -0.443 OA
ATOM     28  C   UNL     1     -39.344  24.177   2.658  0.00  0.00    +0.256 C 
ENDBRANCH  26  27
ENDBRANCH  24  26
BRANCH  24  29
ATOM     29  C   UNL     1     -35.567  23.935   2.940  0.00  0.00    +0.057 C 
BRANCH  29  30
ATOM     30  C   UNL     1     -35.081  24.562   1.652  0.00  0.00    -0.020 C 
ATOM     31  C   UNL     1     -33.720  24.569   1.351  0.00  0.00    -0.004 C 
ATOM     32  C   UNL     1     -35.994  25.134   0.767  0.00  0.00    -0.004 C 
ATOM     33  C   UNL     1     -33.271  25.149   0.164  0.00  0.00    -0.000 C 
ATOM     34  C   UNL     1     -35.546  25.712  -0.420  0.00  0.00    -0.000 C 
ATOM     35  C   UNL     1     -34.183  25.720  -0.721  0.00  0.00    -0.000 C 
ENDBRANCH  29  30
ENDBRANCH  24  29
ENDBRANCH  21  24
ENDBRANCH   3  22
BRANCH   5  36
ATOM     36  O   UNL     1     -37.107  19.154   1.267  0.00  0.00    -0.503 OA
ATOM     37  H   UNL     1     -37.620  18.561   1.780  0.00  0.00    +0.292 HD
ENDBRANCH   5  36
TORSDOF 9
ENDMDL
MODEL 9
REMARK VINA RESULT:      -6.5      2.788      7.615
REMARK  Name = 54693697
REMARK  9 active torsions:
REMARK  status: ('A' for Active; 'I' for Inactive)
REMARK    1  A    between atoms: C_3  and  C_8
REMARK    2  A    between atoms: C_3  and  C_22
REMARK    3  A    between atoms: C_5  and  O_36
REMARK    4  A    between atoms: C_6  and  C_14
REMARK    5  A    between atoms: N_21  and  C_24
REMARK    6  A    between atoms: C_24  and  C_26
REMARK    7  A    between atoms: C_24  and  C_29
REMARK    8  A    between atoms: C_26  and  O_27
REMARK    9  A    between atoms: C_29  and  C_30
REMARK                            x       y       z     vdW  Elec       q    Type
REMARK                         _______ _______ _______ _____ _____    ______ ____
ROOT
ATOM      1  O   UNL     1     -38.403  25.764   2.920  0.00  0.00    -0.418 OA
ATOM      2  O   UNL     1     -40.414  26.861   2.811  0.00  0.00    -0.244 OA
ATOM      3  C   UNL     1     -36.623  24.291   2.350  0.00  0.00    +0.091 C 
ATOM      4  C   UNL     1     -37.841  24.785   2.107  0.00  0.00    +0.187 C 
ATOM      5  C   UNL     1     -38.759  24.462   1.068  0.00  0.00    +0.175 C 
ATOM      6  C   UNL     1     -39.869  25.190   1.177  0.00  0.00    +0.113 C 
ATOM      7  C   UNL     1     -39.633  26.031   2.371  0.00  0.00    +0.349 C 
ENDROOT
BRANCH   3   8
ATOM      8  C   UNL     1     -35.856  24.792   3.503  0.00  0.00    +0.007 C 
ATOM      9  C   UNL     1     -35.938  24.138   4.732  0.00  0.00    +0.000 C 
ATOM     10  C   UNL     1     -35.048  25.920   3.366  0.00  0.00    +0.000 C 
ATOM     11  C   UNL     1     -35.211  24.612   5.824  0.00  0.00    +0.000 C 
ATOM     12  C   UNL     1     -34.321  26.395   4.458  0.00  0.00    +0.000 C 
ATOM     13  C   UNL     1     -34.403  25.741   5.688  0.00  0.00    +0.000 C 
ENDBRANCH   3   8
BRANCH   6  14
ATOM     14  C   UNL     1     -41.073  25.174   0.348  0.00  0.00    +0.009 C 
ATOM     15  C   UNL     1     -42.221  24.526   0.801  0.00  0.00    +0.000 C 
ATOM     16  C   UNL     1     -41.071  25.806  -0.895  0.00  0.00    +0.000 C 
ATOM     17  C   UNL     1     -43.370  24.510   0.009  0.00  0.00    +0.000 C 
ATOM     18  C   UNL     1     -42.219  25.790  -1.687  0.00  0.00    +0.000 C 
ATOM     19  C   UNL     1     -43.369  25.142  -1.234  0.00  0.00    +0.000 C 
ENDBRANCH   6  14
BRANCH   3  22
ATOM     20  O   UNL     1     -35.540  23.605   0.334  0.00  0.00    -0.270 OA
ATOM     21  N   UNL     1     -36.293  21.958   1.773  0.00  0.00    -0.293 N 
ATOM     22  C   UNL     1     -36.091  23.273   1.382  0.00  0.00    +0.249 C 
ATOM     23  H   UNL     1     -36.744  21.777   2.629  0.00  0.00    +0.150 HD
BRANCH  21  24
ATOM     24  C   UNL     1     -35.860  20.847   0.963  0.00  0.00    +0.176 C 
BRANCH  24  26
ATOM     25  O   UNL     1     -38.186  20.519   0.392  0.00  0.00    -0.248 OA
ATOM     26  C   UNL     1     -37.024  20.143   0.277  0.00  0.00    +0.335 C 
BRANCH  26  27
ATOM     27  O   UNL     1     -36.617  19.061  -0.444  0.00  0.00    -0.443 OA
ATOM     28  C   UNL     1     -37.561  17.991  -0.547  0.00  0.00    +0.256 C 
ENDBRANCH  26  27
ENDBRANCH  24  26
BRANCH  24  29
ATOM     29  C   UNL     1     -34.991  19.872   1.769  0.00  0.00    +0.057 C 
BRANCH  29  30
ATOM     30  C   UNL     1     -33.611  19.634   1.198  0.00  0.00    -0.020 C 
ATOM     31  C   UNL     1     -32.939  18.443   1.471  0.00  0.00    -0.004 C 
ATOM     32  C   UNL     1     -33.011  20.605   0.398  0.00  0.00    -0.004 C 
ATOM     33  C   UNL     1     -31.666  18.223   0.944  0.00  0.00    -0.000 C 
ATOM     34  C   UNL     1     -31.739  20.386  -0.129  0.00  0.00    -0.000 C 
ATOM     35  C   UNL     1     -31.066  19.194   0.145  0.00  0.00    -0.000 C 
ENDBRANCH  29  30
ENDBRANCH  24  29
ENDBRANCH  21  24
ENDBRANCH   3  22
BRANCH   5  36
ATOM     36  O   UNL     1     -38.510  23.506   0.125  0.00  0.00    -0.503 OA
ATOM     37  H   UNL     1     -39.115  23.373  -0.578  0.00  0.00    +0.292 HD
ENDBRANCH   5  36
TORSDOF 9
ENDMDL
