MODEL 1
REMARK VINA RESULT:      -5.6      0.000      0.000
REMARK  Name = 196788
REMARK  4 active torsions:
REMARK  status: ('A' for Active; 'I' for Inactive)
REMARK    1  A    between atoms: N_1  and  C_11
REMARK    2  A    between atoms: C_12  and  O_15
REMARK    3  A    between atoms: C_13  and  O_17
REMARK    4  A    between atoms: C_14  and  C_19
REMARK                            x       y       z     vdW  Elec       q    Type
REMARK                         _______ _______ _______ _____ _____    ______ ____
ROOT
ATOM      1  N   UNL     1     -37.510  24.157   2.864  0.00  0.00    -0.247 N 
ATOM      2  N   UNL     1     -39.000  22.677   2.111  0.00  0.00    -0.242 NA
ATOM      3  N   UNL     1     -38.641  26.224   2.266  0.00  0.00    -0.228 NA
ATOM      4  N   UNL     1     -40.777  25.782   1.173  0.00  0.00    -0.229 NA
ATOM      5  C   UNL     1     -38.536  24.888   2.331  0.00  0.00    +0.152 C 
ATOM      6  C   UNL     1     -37.837  22.836   2.706  0.00  0.00    +0.223 C 
ATOM      7  C   UNL     1     -39.449  23.952   1.871  0.00  0.00    +0.140 C 
ATOM      8  C   UNL     1     -40.606  24.442   1.273  0.00  0.00    +0.143 C 
ATOM      9  C   UNL     1     -39.799  26.578   1.668  0.00  0.00    +0.253 C 
ATOM     10  N   UNL     1     -41.586  23.565   0.779  0.00  0.00    -0.342 N 
ATOM     11  H   UNL     1     -42.401  23.923   0.359  0.00  0.00    +0.144 HD
ATOM     12  H   UNL     1     -41.458  22.591   0.855  0.00  0.00    +0.144 HD
ENDROOT
BRANCH   1  14
ATOM     13  O   UNL     1     -35.299  23.635   3.530  0.00  0.00    -0.322 OA
ATOM     14  C   UNL     1     -36.293  24.676   3.484  0.00  0.00    +0.226 C 
ATOM     15  C   UNL     1     -36.482  25.147   4.917  0.00  0.00    +0.188 C 
ATOM     16  C   UNL     1     -35.082  24.984   5.479  0.00  0.00    +0.181 C 
ATOM     17  C   UNL     1     -34.597  23.712   4.791  0.00  0.00    +0.210 C 
BRANCH  15  18
ATOM     18  O   UNL     1     -36.952  26.478   4.978  0.00  0.00    -0.378 OA
ATOM     19  H   UNL     1     -36.303  27.029   5.442  0.00  0.00    +0.211 HD
ENDBRANCH  15  18
BRANCH  16  20
ATOM     20  O   UNL     1     -34.264  26.076   5.060  0.00  0.00    -0.379 OA
ATOM     21  H   UNL     1     -33.923  25.901   4.169  0.00  0.00    +0.211 HD
ENDBRANCH  16  20
BRANCH  17  22
ATOM     22  C   UNL     1     -34.882  22.510   5.584  0.00  0.00    -0.046 C 
ATOM     23  C   UNL     1     -35.116  21.527   6.233  0.00  0.00    -0.012 C 
ENDBRANCH  17  22
ENDBRANCH   1  14
TORSDOF 4
ENDMDL
MODEL 2
REMARK VINA RESULT:      -5.6      4.304      6.373
REMARK  Name = 196788
REMARK  4 active torsions:
REMARK  status: ('A' for Active; 'I' for Inactive)
REMARK    1  A    between atoms: N_1  and  C_11
REMARK    2  A    between atoms: C_12  and  O_15
REMARK    3  A    between atoms: C_13  and  O_17
REMARK    4  A    between atoms: C_14  and  C_19
REMARK                            x       y       z     vdW  Elec       q    Type
REMARK                         _______ _______ _______ _____ _____    ______ ____
ROOT
ATOM      1  N   UNL     1     -35.691  21.360   2.390  0.00  0.00    -0.247 N 
ATOM      2  N   UNL     1     -36.226  23.525   2.419  0.00  0.00    -0.242 NA
ATOM      3  N   UNL     1     -35.278  21.005   4.759  0.00  0.00    -0.228 NA
ATOM      4  N   UNL     1     -35.615  23.056   6.036  0.00  0.00    -0.229 NA
ATOM      5  C   UNL     1     -35.610  21.754   3.697  0.00  0.00    +0.152 C 
ATOM      6  C   UNL     1     -36.063  22.460   1.663  0.00  0.00    +0.223 C 
ATOM      7  C   UNL     1     -35.946  23.099   3.693  0.00  0.00    +0.140 C 
ATOM      8  C   UNL     1     -35.941  23.753   4.921  0.00  0.00    +0.143 C 
ATOM      9  C   UNL     1     -35.308  21.744   5.888  0.00  0.00    +0.253 C 
ATOM     10  N   UNL     1     -36.270  25.116   5.010  0.00  0.00    -0.342 N 
ATOM     11  H   UNL     1     -36.264  25.568   5.884  0.00  0.00    +0.144 HD
ATOM     12  H   UNL     1     -36.508  25.619   4.197  0.00  0.00    +0.144 HD
ENDROOT
BRANCH   1  14
ATOM     13  O   UNL     1     -34.060  19.663   2.123  0.00  0.00    -0.322 OA
ATOM     14  C   UNL     1     -35.431  20.023   1.860  0.00  0.00    +0.226 C 
ATOM     15  C   UNL     1     -35.620  19.906   0.356  0.00  0.00    +0.188 C 
ATOM     16  C   UNL     1     -34.702  18.746   0.022  0.00  0.00    +0.181 C 
ATOM     17  C   UNL     1     -33.530  18.969   0.972  0.00  0.00    +0.210 C 
BRANCH  15  18
ATOM     18  O   UNL     1     -36.968  19.664   0.012  0.00  0.00    -0.378 OA
ATOM     19  H   UNL     1     -37.517  20.403   0.317  0.00  0.00    +0.211 HD
ENDBRANCH  15  18
BRANCH  16  20
ATOM     20  O   UNL     1     -35.339  17.514   0.358  0.00  0.00    -0.379 OA
ATOM     21  H   UNL     1     -34.667  16.829   0.497  0.00  0.00    +0.211 HD
ENDBRANCH  16  20
BRANCH  17  22
ATOM     22  C   UNL     1     -32.467  19.777   0.360  0.00  0.00    -0.046 C 
ATOM     23  C   UNL     1     -31.598  20.437  -0.141  0.00  0.00    -0.012 C 
ENDBRANCH  17  22
ENDBRANCH   1  14
TORSDOF 4
ENDMDL
MODEL 3
REMARK VINA RESULT:      -5.5      4.548      6.819
REMARK  Name = 196788
REMARK  4 active torsions:
REMARK  status: ('A' for Active; 'I' for Inactive)
REMARK    1  A    between atoms: N_1  and  C_11
REMARK    2  A    between atoms: C_12  and  O_15
REMARK    3  A    between atoms: C_13  and  O_17
REMARK    4  A    between atoms: C_14  and  C_19
REMARK                            x       y       z     vdW  Elec       q    Type
REMARK                         _______ _______ _______ _____ _____    ______ ____
ROOT
ATOM      1  N   UNL     1     -33.782  26.614   5.004  0.00  0.00    -0.247 N 
ATOM      2  N   UNL     1     -32.537  27.246   6.744  0.00  0.00    -0.242 NA
ATOM      3  N   UNL     1     -32.868  28.074   3.289  0.00  0.00    -0.228 NA
ATOM      4  N   UNL     1     -31.099  29.495   4.184  0.00  0.00    -0.229 NA
ATOM      5  C   UNL     1     -32.942  27.586   4.537  0.00  0.00    +0.152 C 
ATOM      6  C   UNL     1     -33.499  26.447   6.335  0.00  0.00    +0.223 C 
ATOM      7  C   UNL     1     -32.178  27.964   5.631  0.00  0.00    +0.140 C 
ATOM      8  C   UNL     1     -31.227  28.958   5.421  0.00  0.00    +0.143 C 
ATOM      9  C   UNL     1     -31.915  29.027   3.209  0.00  0.00    +0.253 C 
ATOM     10  N   UNL     1     -30.408  29.402   6.473  0.00  0.00    -0.342 N 
ATOM     11  H   UNL     1     -29.739  30.105   6.314  0.00  0.00    +0.144 HD
ATOM     12  H   UNL     1     -30.504  29.008   7.371  0.00  0.00    +0.144 HD
ENDROOT
BRANCH   1  14
ATOM     13  O   UNL     1     -35.724  25.266   5.148  0.00  0.00    -0.322 OA
ATOM     14  C   UNL     1     -34.792  25.886   4.239  0.00  0.00    +0.226 C 
ATOM     15  C   UNL     1     -34.229  24.767   3.378  0.00  0.00    +0.188 C 
ATOM     16  C   UNL     1     -35.422  23.837   3.268  0.00  0.00    +0.181 C 
ATOM     17  C   UNL     1     -36.058  23.952   4.649  0.00  0.00    +0.210 C 
BRANCH  15  18
ATOM     18  O   UNL     1     -33.778  25.242   2.126  0.00  0.00    -0.378 OA
ATOM     19  H   UNL     1     -33.724  26.210   2.148  0.00  0.00    +0.211 HD
ENDBRANCH  15  18
BRANCH  16  20
ATOM     20  O   UNL     1     -36.338  24.340   2.295  0.00  0.00    -0.379 OA
ATOM     21  H   UNL     1     -36.589  23.626   1.689  0.00  0.00    +0.211 HD
ENDBRANCH  16  20
BRANCH  17  22
ATOM     22  C   UNL     1     -35.553  22.933   5.578  0.00  0.00    -0.046 C 
ATOM     23  C   UNL     1     -35.141  22.099   6.337  0.00  0.00    -0.012 C 
ENDBRANCH  17  22
ENDBRANCH   1  14
TORSDOF 4
ENDMDL
MODEL 4
REMARK VINA RESULT:      -5.5      3.095      4.599
REMARK  Name = 196788
REMARK  4 active torsions:
REMARK  status: ('A' for Active; 'I' for Inactive)
REMARK    1  A    between atoms: N_1  and  C_11
REMARK    2  A    between atoms: C_12  and  O_15
REMARK    3  A    between atoms: C_13  and  O_17
REMARK    4  A    between atoms: C_14  and  C_19
REMARK                            x       y       z     vdW  Elec       q    Type
REMARK                         _______ _______ _______ _____ _____    ______ ____
ROOT
ATOM      1  N   UNL     1     -36.324  22.650   2.327  0.00  0.00    -0.247 N 
ATOM      2  N   UNL     1     -36.078  23.508   0.283  0.00  0.00    -0.242 NA
ATOM      3  N   UNL     1     -36.553  20.297   1.763  0.00  0.00    -0.228 NA
ATOM      4  N   UNL     1     -36.419  19.945  -0.647  0.00  0.00    -0.229 NA
ATOM      5  C   UNL     1     -36.383  21.593   1.461  0.00  0.00    +0.152 C 
ATOM      6  C   UNL     1     -36.140  23.777   1.569  0.00  0.00    +0.223 C 
ATOM      7  C   UNL     1     -36.228  22.147   0.200  0.00  0.00    +0.140 C 
ATOM      8  C   UNL     1     -36.250  21.269  -0.880  0.00  0.00    +0.143 C 
ATOM      9  C   UNL     1     -36.559  19.547   0.640  0.00  0.00    +0.253 C 
ATOM     10  N   UNL     1     -36.099  21.743  -2.194  0.00  0.00    -0.342 N 
ATOM     11  H   UNL     1     -36.116  21.113  -2.950  0.00  0.00    +0.144 HD
ATOM     12  H   UNL     1     -35.975  22.706  -2.358  0.00  0.00    +0.144 HD
ENDROOT
BRANCH   1  14
ATOM     13  O   UNL     1     -36.637  23.931   4.294  0.00  0.00    -0.322 OA
ATOM     14  C   UNL     1     -36.435  22.598   3.783  0.00  0.00    +0.226 C 
ATOM     15  C   UNL     1     -35.195  22.060   4.479  0.00  0.00    +0.188 C 
ATOM     16  C   UNL     1     -35.304  22.712   5.845  0.00  0.00    +0.181 C 
ATOM     17  C   UNL     1     -35.871  24.087   5.509  0.00  0.00    +0.210 C 
BRANCH  15  18
ATOM     18  O   UNL     1     -35.194  20.648   4.537  0.00  0.00    -0.378 OA
ATOM     19  H   UNL     1     -35.424  20.290   3.665  0.00  0.00    +0.211 HD
ENDBRANCH  15  18
BRANCH  16  20
ATOM     20  O   UNL     1     -36.254  22.004   6.642  0.00  0.00    -0.379 OA
ATOM     21  H   UNL     1     -36.605  21.254   6.137  0.00  0.00    +0.211 HD
ENDBRANCH  16  20
BRANCH  17  22
ATOM     22  C   UNL     1     -34.814  25.084   5.296  0.00  0.00    -0.046 C 
ATOM     23  C   UNL     1     -33.949  25.898   5.122  0.00  0.00    -0.012 C 
ENDBRANCH  17  22
ENDBRANCH   1  14
TORSDOF 4
ENDMDL
MODEL 5
REMARK VINA RESULT:      -5.4      3.686      5.256
REMARK  Name = 196788
REMARK  4 active torsions:
REMARK  status: ('A' for Active; 'I' for Inactive)
REMARK    1  A    between atoms: N_1  and  C_11
REMARK    2  A    between atoms: C_12  and  O_15
REMARK    3  A    between atoms: C_13  and  O_17
REMARK    4  A    between atoms: C_14  and  C_19
REMARK                            x       y       z     vdW  Elec       q    Type
REMARK                         _______ _______ _______ _____ _____    ______ ____
ROOT
ATOM      1  N   UNL     1     -36.301  21.832   2.568  0.00  0.00    -0.247 N 
ATOM      2  N   UNL     1     -35.705  23.778   3.480  0.00  0.00    -0.242 NA
ATOM      3  N   UNL     1     -38.689  22.208   2.314  0.00  0.00    -0.228 NA
ATOM      4  N   UNL     1     -39.330  24.419   3.123  0.00  0.00    -0.229 NA
ATOM      5  C   UNL     1     -37.448  22.568   2.677  0.00  0.00    +0.152 C 
ATOM      6  C   UNL     1     -35.283  22.603   3.065  0.00  0.00    +0.223 C 
ATOM      7  C   UNL     1     -37.057  23.771   3.244  0.00  0.00    +0.140 C 
ATOM      8  C   UNL     1     -38.053  24.716   3.466  0.00  0.00    +0.143 C 
ATOM      9  C   UNL     1     -39.565  23.202   2.576  0.00  0.00    +0.253 C 
ATOM     10  N   UNL     1     -37.746  25.963   4.035  0.00  0.00    -0.342 N 
ATOM     11  H   UNL     1     -38.459  26.625   4.187  0.00  0.00    +0.144 HD
ATOM     12  H   UNL     1     -36.816  26.176   4.282  0.00  0.00    +0.144 HD
ENDROOT
BRANCH   1  14
ATOM     13  O   UNL     1     -34.866  19.962   2.339  0.00  0.00    -0.322 OA
ATOM     14  C   UNL     1     -36.175  20.480   2.028  0.00  0.00    +0.226 C 
ATOM     15  C   UNL     1     -36.315  20.402   0.516  0.00  0.00    +0.188 C 
ATOM     16  C   UNL     1     -35.522  19.148   0.200  0.00  0.00    +0.181 C 
ATOM     17  C   UNL     1     -34.373  19.224   1.199  0.00  0.00    +0.210 C 
BRANCH  15  18
ATOM     18  O   UNL     1     -37.667  20.320   0.115  0.00  0.00    -0.378 OA
ATOM     19  H   UNL     1     -38.045  19.482   0.424  0.00  0.00    +0.211 HD
ENDBRANCH  15  18
BRANCH  16  20
ATOM     20  O   UNL     1     -36.310  17.994   0.492  0.00  0.00    -0.379 OA
ATOM     21  H   UNL     1     -36.651  17.618  -0.335  0.00  0.00    +0.211 HD
ENDBRANCH  16  20
BRANCH  17  22
ATOM     22  C   UNL     1     -33.200  19.911   0.642  0.00  0.00    -0.046 C 
ATOM     23  C   UNL     1     -32.242  20.473   0.186  0.00  0.00    -0.012 C 
ENDBRANCH  17  22
ENDBRANCH   1  14
TORSDOF 4
ENDMDL
MODEL 6
REMARK VINA RESULT:      -5.4      2.343      3.536
REMARK  Name = 196788
REMARK  4 active torsions:
REMARK  status: ('A' for Active; 'I' for Inactive)
REMARK    1  A    between atoms: N_1  and  C_11
REMARK    2  A    between atoms: C_12  and  O_15
REMARK    3  A    between atoms: C_13  and  O_17
REMARK    4  A    between atoms: C_14  and  C_19
REMARK                            x       y       z     vdW  Elec       q    Type
REMARK                         _______ _______ _______ _____ _____    ______ ____
ROOT
ATOM      1  N   UNL     1     -36.496  23.924   1.918  0.00  0.00    -0.247 N 
ATOM      2  N   UNL     1     -37.410  23.273  -0.010  0.00  0.00    -0.242 NA
ATOM      3  N   UNL     1     -35.843  21.762   2.816  0.00  0.00    -0.228 NA
ATOM      4  N   UNL     1     -36.444  19.951   1.296  0.00  0.00    -0.229 NA
ATOM      5  C   UNL     1     -36.386  22.561   1.886  0.00  0.00    +0.152 C 
ATOM      6  C   UNL     1     -37.118  24.302   0.757  0.00  0.00    +0.223 C 
ATOM      7  C   UNL     1     -36.959  22.178   0.683  0.00  0.00    +0.140 C 
ATOM      8  C   UNL     1     -36.977  20.816   0.400  0.00  0.00    +0.143 C 
ATOM      9  C   UNL     1     -35.918  20.470   2.432  0.00  0.00    +0.253 C 
ATOM     10  N   UNL     1     -37.536  20.339  -0.797  0.00  0.00    -0.342 N 
ATOM     11  H   UNL     1     -37.542  19.373  -0.988  0.00  0.00    +0.144 HD
ATOM     12  H   UNL     1     -37.921  20.971  -1.447  0.00  0.00    +0.144 HD
ENDROOT
BRANCH   1  14
ATOM     13  O   UNL     1     -34.896  24.232   3.636  0.00  0.00    -0.322 OA
ATOM     14  C   UNL     1     -36.040  24.816   2.982  0.00  0.00    +0.226 C 
ATOM     15  C   UNL     1     -37.073  25.061   4.070  0.00  0.00    +0.188 C 
ATOM     16  C   UNL     1     -36.192  25.398   5.257  0.00  0.00    +0.181 C 
ATOM     17  C   UNL     1     -35.000  24.469   5.058  0.00  0.00    +0.210 C 
BRANCH  15  18
ATOM     18  O   UNL     1     -37.964  26.102   3.725  0.00  0.00    -0.378 OA
ATOM     19  H   UNL     1     -38.266  25.980   2.812  0.00  0.00    +0.211 HD
ENDBRANCH  15  18
BRANCH  16  20
ATOM     20  O   UNL     1     -35.744  26.750   5.157  0.00  0.00    -0.379 OA
ATOM     21  H   UNL     1     -36.327  27.323   5.679  0.00  0.00    +0.211 HD
ENDBRANCH  16  20
BRANCH  17  22
ATOM     22  C   UNL     1     -35.173  23.189   5.756  0.00  0.00    -0.046 C 
ATOM     23  C   UNL     1     -35.316  22.142   6.327  0.00  0.00    -0.012 C 
ENDBRANCH  17  22
ENDBRANCH   1  14
TORSDOF 4
ENDMDL
MODEL 7
REMARK VINA RESULT:      -5.3      3.166      6.062
REMARK  Name = 196788
REMARK  4 active torsions:
REMARK  status: ('A' for Active; 'I' for Inactive)
REMARK    1  A    between atoms: N_1  and  C_11
REMARK    2  A    between atoms: C_12  and  O_15
REMARK    3  A    between atoms: C_13  and  O_17
REMARK    4  A    between atoms: C_14  and  C_19
REMARK                            x       y       z     vdW  Elec       q    Type
REMARK                         _______ _______ _______ _____ _____    ______ ____
ROOT
ATOM      1  N   UNL     1     -37.778  23.231   2.400  0.00  0.00    -0.247 N 
ATOM      2  N   UNL     1     -38.090  25.305   3.159  0.00  0.00    -0.242 NA
ATOM      3  N   UNL     1     -36.019  22.499   3.909  0.00  0.00    -0.228 NA
ATOM      4  N   UNL     1     -35.416  24.258   5.488  0.00  0.00    -0.229 NA
ATOM      5  C   UNL     1     -36.898  23.394   3.434  0.00  0.00    +0.152 C 
ATOM      6  C   UNL     1     -38.470  24.407   2.275  0.00  0.00    +0.223 C 
ATOM      7  C   UNL     1     -37.108  24.686   3.890  0.00  0.00    +0.140 C 
ATOM      8  C   UNL     1     -36.325  25.111   4.959  0.00  0.00    +0.143 C 
ATOM      9  C   UNL     1     -35.320  23.023   4.939  0.00  0.00    +0.253 C 
ATOM     10  N   UNL     1     -36.471  26.405   5.486  0.00  0.00    -0.342 N 
ATOM     11  H   UNL     1     -35.912  26.695   6.243  0.00  0.00    +0.144 HD
ATOM     12  H   UNL     1     -37.135  27.022   5.100  0.00  0.00    +0.144 HD
ENDROOT
BRANCH   1  14
ATOM     13  O   UNL     1     -37.217  22.186   0.351  0.00  0.00    -0.322 OA
ATOM     14  C   UNL     1     -37.955  22.035   1.579  0.00  0.00    +0.226 C 
ATOM     15  C   UNL     1     -39.396  21.766   1.179  0.00  0.00    +0.188 C 
ATOM     16  C   UNL     1     -39.215  20.974  -0.102  0.00  0.00    +0.181 C 
ATOM     17  C   UNL     1     -38.001  21.646  -0.735  0.00  0.00    +0.210 C 
BRANCH  15  18
ATOM     18  O   UNL     1     -40.097  21.053   2.178  0.00  0.00    -0.378 OA
ATOM     19  H   UNL     1     -39.463  20.649   2.790  0.00  0.00    +0.211 HD
ENDBRANCH  15  18
BRANCH  16  20
ATOM     20  O   UNL     1     -38.883  19.621   0.211  0.00  0.00    -0.379 OA
ATOM     21  H   UNL     1     -37.979  19.434  -0.087  0.00  0.00    +0.211 HD
ENDBRANCH  16  20
BRANCH  17  22
ATOM     22  C   UNL     1     -38.383  22.729  -1.649  0.00  0.00    -0.046 C 
ATOM     23  C   UNL     1     -38.696  23.616  -2.397  0.00  0.00    -0.012 C 
ENDBRANCH  17  22
ENDBRANCH   1  14
TORSDOF 4
ENDMDL
MODEL 8
REMARK VINA RESULT:      -5.3      2.011      3.015
REMARK  Name = 196788
REMARK  4 active torsions:
REMARK  status: ('A' for Active; 'I' for Inactive)
REMARK    1  A    between atoms: N_1  and  C_11
REMARK    2  A    between atoms: C_12  and  O_15
REMARK    3  A    between atoms: C_13  and  O_17
REMARK    4  A    between atoms: C_14  and  C_19
REMARK                            x       y       z     vdW  Elec       q    Type
REMARK                         _______ _______ _______ _____ _____    ______ ____
ROOT
ATOM      1  N   UNL     1     -37.054  23.238   2.393  0.00  0.00    -0.247 N 
ATOM      2  N   UNL     1     -36.598  23.576   0.235  0.00  0.00    -0.242 NA
ATOM      3  N   UNL     1     -39.455  23.613   2.372  0.00  0.00    -0.228 NA
ATOM      4  N   UNL     1     -40.249  24.160   0.130  0.00  0.00    -0.229 NA
ATOM      5  C   UNL     1     -38.247  23.535   1.794  0.00  0.00    +0.152 C 
ATOM      6  C   UNL     1     -36.096  23.276   1.414  0.00  0.00    +0.223 C 
ATOM      7  C   UNL     1     -37.942  23.741   0.458  0.00  0.00    +0.140 C 
ATOM      8  C   UNL     1     -39.000  24.064  -0.387  0.00  0.00    +0.143 C 
ATOM      9  C   UNL     1     -40.397  23.932   1.458  0.00  0.00    +0.253 C 
ATOM     10  N   UNL     1     -38.783  24.288  -1.757  0.00  0.00    -0.342 N 
ATOM     11  H   UNL     1     -39.539  24.516  -2.345  0.00  0.00    +0.144 HD
ATOM     12  H   UNL     1     -37.874  24.216  -2.129  0.00  0.00    +0.144 HD
ENDROOT
BRANCH   1  14
ATOM     13  O   UNL     1     -36.821  24.164   4.560  0.00  0.00    -0.322 OA
ATOM     14  C   UNL     1     -36.833  22.936   3.805  0.00  0.00    +0.226 C 
ATOM     15  C   UNL     1     -35.507  22.249   4.091  0.00  0.00    +0.188 C 
ATOM     16  C   UNL     1     -35.257  22.655   5.531  0.00  0.00    +0.181 C 
ATOM     17  C   UNL     1     -35.789  24.084   5.568  0.00  0.00    +0.210 C 
BRANCH  15  18
ATOM     18  O   UNL     1     -35.591  20.849   3.916  0.00  0.00    -0.378 OA
ATOM     19  H   UNL     1     -34.699  20.468   3.933  0.00  0.00    +0.211 HD
ENDBRANCH  15  18
BRANCH  16  20
ATOM     20  O   UNL     1     -36.046  21.847   6.404  0.00  0.00    -0.379 OA
ATOM     21  H   UNL     1     -35.925  22.146   7.319  0.00  0.00    +0.211 HD
ENDBRANCH  16  20
BRANCH  17  22
ATOM     22  C   UNL     1     -34.743  25.071   5.276  0.00  0.00    -0.046 C 
ATOM     23  C   UNL     1     -33.887  25.879   5.038  0.00  0.00    -0.012 C 
ENDBRANCH  17  22
ENDBRANCH   1  14
TORSDOF 4
ENDMDL
MODEL 9
REMARK VINA RESULT:      -5.3      4.117      5.763
REMARK  Name = 196788
REMARK  4 active torsions:
REMARK  status: ('A' for Active; 'I' for Inactive)
REMARK    1  A    between atoms: N_1  and  C_11
REMARK    2  A    between atoms: C_12  and  O_15
REMARK    3  A    between atoms: C_13  and  O_17
REMARK    4  A    between atoms: C_14  and  C_19
REMARK                            x       y       z     vdW  Elec       q    Type
REMARK                         _______ _______ _______ _____ _____    ______ ____
ROOT
ATOM      1  N   UNL     1     -35.490  22.127   4.202  0.00  0.00    -0.247 N 
ATOM      2  N   UNL     1     -35.209  23.347   6.048  0.00  0.00    -0.242 NA
ATOM      3  N   UNL     1     -34.838  23.760   2.524  0.00  0.00    -0.228 NA
ATOM      4  N   UNL     1     -34.203  25.881   3.549  0.00  0.00    -0.229 NA
ATOM      5  C   UNL     1     -35.056  23.354   3.784  0.00  0.00    +0.152 C 
ATOM      6  C   UNL     1     -35.567  22.175   5.569  0.00  0.00    +0.223 C 
ATOM      7  C   UNL     1     -34.887  24.095   4.943  0.00  0.00    +0.140 C 
ATOM      8  C   UNL     1     -34.443  25.405   4.794  0.00  0.00    +0.143 C 
ATOM      9  C   UNL     1     -34.412  25.041   2.506  0.00  0.00    +0.253 C 
ATOM     10  N   UNL     1     -34.243  26.228   5.915  0.00  0.00    -0.342 N 
ATOM     11  H   UNL     1     -33.928  27.153   5.798  0.00  0.00    +0.144 HD
ATOM     12  H   UNL     1     -34.418  25.878   6.820  0.00  0.00    +0.144 HD
ENDROOT
BRANCH   1  14
ATOM     13  O   UNL     1     -34.595  20.344   2.926  0.00  0.00    -0.322 OA
ATOM     14  C   UNL     1     -35.815  20.978   3.360  0.00  0.00    +0.226 C 
ATOM     15  C   UNL     1     -36.582  21.333   2.096  0.00  0.00    +0.188 C 
ATOM     16  C   UNL     1     -36.201  20.189   1.176  0.00  0.00    +0.181 C 
ATOM     17  C   UNL     1     -34.744  19.938   1.548  0.00  0.00    +0.210 C 
BRANCH  15  18
ATOM     18  O   UNL     1     -37.972  21.419   2.330  0.00  0.00    -0.378 OA
ATOM     19  H   UNL     1     -38.251  22.347   2.286  0.00  0.00    +0.211 HD
ENDBRANCH  15  18
BRANCH  16  20
ATOM     20  O   UNL     1     -36.967  19.030   1.505  0.00  0.00    -0.379 OA
ATOM     21  H   UNL     1     -36.503  18.237   1.196  0.00  0.00    +0.211 HD
ENDBRANCH  16  20
BRANCH  17  22
ATOM     22  C   UNL     1     -33.818  20.709   0.708  0.00  0.00    -0.046 C 
ATOM     23  C   UNL     1     -33.061  21.339   0.021  0.00  0.00    -0.012 C 
ENDBRANCH  17  22
ENDBRANCH   1  14
TORSDOF 4
ENDMDL
