MODEL 1
REMARK VINA RESULT:      -6.2      0.000      0.000
REMARK  Name = 57346386
REMARK  10 active torsions:
REMARK  status: ('A' for Active; 'I' for Inactive)
REMARK    1  A    between atoms: N_1  and  CA_4
REMARK    2  A    between atoms: N_1  and  CA_17
REMARK    3  A    between atoms: CA_4  and  C_12
REMARK    4  A    between atoms: CA_8  and  C_14
REMARK    5  A    between atoms: C_14  and  O_15
REMARK    6  A    between atoms: CA_17  and  C_19
REMARK    7  A    between atoms: CA_17  and  C_22
REMARK    8  A    between atoms: C_19  and  O_20
REMARK    9  A    between atoms: C_22  and  C_24
REMARK   10  A    between atoms: C_29  and  O_30
REMARK                            x       y       z     vdW  Elec       q    Type
REMARK                         _______ _______ _______ _____ _____    ______ ____
ROOT
ATOM      1  N   UNL     1     -34.442  23.982   4.909  0.00  0.00    +0.399 N 
ATOM      2  H1  UNL     1     -34.016  23.892   5.830  0.00  0.00    -0.083 HD
ATOM      3  H2  UNL     1     -33.761  23.777   4.177  0.00  0.00    -0.083 HD
ENDROOT
BRANCH   1   4
ATOM      4  CA  UNL     1     -34.910  25.346   4.733  0.00  0.00    +0.018 C 
ATOM      5  CB  UNL     1     -36.101  25.633   5.625  0.00  0.00    -0.014 C 
BRANCH   4  12
ATOM      6  O   UNL     1     -33.309  26.251   6.247  0.00  0.00    -0.277 OA
ATOM      7  N   UNL     1     -33.291  27.064   4.079  0.00  0.00    -0.273 N 
ATOM      8  CA  UNL     1     -32.090  27.878   4.217  0.00  0.00    +0.174 C 
ATOM      9  CB  UNL     1     -31.686  28.215   2.787  0.00  0.00    +0.033 C 
ATOM     10  CG  UNL     1     -33.013  28.211   2.032  0.00  0.00    +0.024 C 
ATOM     11  CD  UNL     1     -33.797  27.099   2.709  0.00  0.00    +0.094 C 
ATOM     12  C   UNL     1     -33.762  26.254   5.100  0.00  0.00    +0.206 C 
BRANCH   8  14
ATOM     13  OXT UNL     1     -32.975  30.108   4.510  0.00  0.00    -0.248 OA
ATOM     14  C   UNL     1     -32.473  29.103   4.990  0.00  0.00    +0.332 C 
BRANCH  14  15
ATOM     15  O   UNL     1     -32.187  28.947   6.306  0.00  0.00    -0.479 OA
ATOM     16  H   UNL     1     -32.226  28.095   6.696  0.00  0.00    +0.295 HD
ENDBRANCH  14  15
ENDBRANCH   8  14
ENDBRANCH   4  12
ENDBRANCH   1   4
BRANCH   1  17
ATOM     17  CA  UNL     1     -35.542  23.031   4.797  0.00  0.00    +0.045 C 
BRANCH  17  19
ATOM     18  OXT UNL     1     -35.188  22.125   7.029  0.00  0.00    -0.253 OA
ATOM     19  C   UNL     1     -35.280  21.942   5.823  0.00  0.00    +0.294 C 
BRANCH  19  20
ATOM     20  O   UNL     1     -35.187  20.710   5.257  0.00  0.00    -0.482 OA
ATOM     21  H   UNL     1     -35.959  20.195   5.127  0.00  0.00    +0.295 HD
ENDBRANCH  19  20
ENDBRANCH  17  19
BRANCH  17  22
ATOM     22  C   UNL     1     -35.605  22.476   3.366  0.00  0.00    +0.016 C 
BRANCH  22  24
ATOM     23  I   UNL     1     -40.158  25.504   2.625  0.00  0.00    -0.039 I 
ATOM     24  C   UNL     1     -36.994  22.541   2.772  0.00  0.00    -0.023 C 
ATOM     25  C   UNL     1     -37.763  23.695   2.921  0.00  0.00    +0.004 C 
ATOM     26  C   UNL     1     -37.505  21.446   2.076  0.00  0.00    -0.001 C 
ATOM     27  C   UNL     1     -39.045  23.754   2.372  0.00  0.00    +0.063 C 
ATOM     28  C   UNL     1     -38.787  21.505   1.528  0.00  0.00    +0.037 C 
ATOM     29  C   UNL     1     -39.557  22.659   1.676  0.00  0.00    +0.139 C 
BRANCH  29  30
ATOM     30  O   UNL     1     -40.804  22.675   1.125  0.00  0.00    -0.505 OA
ATOM     31  H   UNL     1     -41.539  22.950   1.638  0.00  0.00    +0.292 HD
ENDBRANCH  29  30
ENDBRANCH  22  24
ENDBRANCH  17  22
ENDBRANCH   1  17
TORSDOF 10
ENDMDL
MODEL 2
REMARK VINA RESULT:      -6.2      3.141      5.879
REMARK  Name = 57346386
REMARK  10 active torsions:
REMARK  status: ('A' for Active; 'I' for Inactive)
REMARK    1  A    between atoms: N_1  and  CA_4
REMARK    2  A    between atoms: N_1  and  CA_17
REMARK    3  A    between atoms: CA_4  and  C_12
REMARK    4  A    between atoms: CA_8  and  C_14
REMARK    5  A    between atoms: C_14  and  O_15
REMARK    6  A    between atoms: CA_17  and  C_19
REMARK    7  A    between atoms: CA_17  and  C_22
REMARK    8  A    between atoms: C_19  and  O_20
REMARK    9  A    between atoms: C_22  and  C_24
REMARK   10  A    between atoms: C_29  and  O_30
REMARK                            x       y       z     vdW  Elec       q    Type
REMARK                         _______ _______ _______ _____ _____    ______ ____
ROOT
ATOM      1  N   UNL     1     -37.657  21.566   2.644  0.00  0.00    +0.399 N 
ATOM      2  H1  UNL     1     -37.929  20.599   2.473  0.00  0.00    -0.083 HD
ATOM      3  H2  UNL     1     -37.960  21.867   3.570  0.00  0.00    -0.083 HD
ENDROOT
BRANCH   1   4
ATOM      4  CA  UNL     1     -38.292  22.419   1.653  0.00  0.00    +0.018 C 
ATOM      5  CB  UNL     1     -39.579  21.801   1.145  0.00  0.00    -0.014 C 
BRANCH   4  12
ATOM      6  O   UNL     1     -39.097  23.757   3.450  0.00  0.00    -0.277 OA
ATOM      7  N   UNL     1     -38.250  24.867   1.604  0.00  0.00    -0.273 N 
ATOM      8  CA  UNL     1     -38.315  26.208   2.171  0.00  0.00    +0.174 C 
ATOM      9  CB  UNL     1     -37.453  27.061   1.248  0.00  0.00    +0.033 C 
ATOM     10  CG  UNL     1     -37.574  26.358  -0.102  0.00  0.00    +0.024 C 
ATOM     11  CD  UNL     1     -37.641  24.887   0.276  0.00  0.00    +0.094 C 
ATOM     12  C   UNL     1     -38.584  23.735   2.330  0.00  0.00    +0.206 C 
BRANCH   8  14
ATOM     13  OXT UNL     1     -40.363  26.966   1.135  0.00  0.00    -0.248 OA
ATOM     14  C   UNL     1     -39.752  26.631   2.139  0.00  0.00    +0.332 C 
BRANCH  14  15
ATOM     15  O   UNL     1     -40.290  26.595   3.382  0.00  0.00    -0.479 OA
ATOM     16  H   UNL     1     -40.549  25.775   3.757  0.00  0.00    +0.295 HD
ENDBRANCH  14  15
ENDBRANCH   8  14
ENDBRANCH   4  12
ENDBRANCH   1   4
BRANCH   1  17
ATOM     17  CA  UNL     1     -36.204  21.673   2.575  0.00  0.00    +0.045 C 
BRANCH  17  19
ATOM     18  OXT UNL     1     -34.502  19.997   2.097  0.00  0.00    -0.253 OA
ATOM     19  C   UNL     1     -35.685  20.290   2.222  0.00  0.00    +0.294 C 
BRANCH  19  20
ATOM     20  O   UNL     1     -36.685  19.380   2.088  0.00  0.00    -0.482 OA
ATOM     21  H   UNL     1     -36.481  18.475   1.957  0.00  0.00    +0.295 HD
ENDBRANCH  19  20
ENDBRANCH  17  19
BRANCH  17  22
ATOM     22  C   UNL     1     -35.656  22.172   3.920  0.00  0.00    +0.016 C 
BRANCH  22  24
ATOM     23  I   UNL     1     -33.460  26.591   1.450  0.00  0.00    -0.039 I 
ATOM     24  C   UNL     1     -35.463  23.671   3.955  0.00  0.00    -0.023 C 
ATOM     25  C   UNL     1     -34.736  24.305   2.947  0.00  0.00    +0.004 C 
ATOM     26  C   UNL     1     -36.011  24.419   4.997  0.00  0.00    -0.001 C 
ATOM     27  C   UNL     1     -34.558  25.689   2.981  0.00  0.00    +0.063 C 
ATOM     28  C   UNL     1     -35.833  25.802   5.031  0.00  0.00    +0.037 C 
ATOM     29  C   UNL     1     -35.106  26.437   4.023  0.00  0.00    +0.139 C 
BRANCH  29  30
ATOM     30  O   UNL     1     -34.956  27.791   4.094  0.00  0.00    -0.505 OA
ATOM     31  H   UNL     1     -35.053  28.230   4.916  0.00  0.00    +0.292 HD
ENDBRANCH  29  30
ENDBRANCH  22  24
ENDBRANCH  17  22
ENDBRANCH   1  17
TORSDOF 10
ENDMDL
MODEL 3
REMARK VINA RESULT:      -6.2      3.512      5.213
REMARK  Name = 57346386
REMARK  10 active torsions:
REMARK  status: ('A' for Active; 'I' for Inactive)
REMARK    1  A    between atoms: N_1  and  CA_4
REMARK    2  A    between atoms: N_1  and  CA_17
REMARK    3  A    between atoms: CA_4  and  C_12
REMARK    4  A    between atoms: CA_8  and  C_14
REMARK    5  A    between atoms: C_14  and  O_15
REMARK    6  A    between atoms: CA_17  and  C_19
REMARK    7  A    between atoms: CA_17  and  C_22
REMARK    8  A    between atoms: C_19  and  O_20
REMARK    9  A    between atoms: C_22  and  C_24
REMARK   10  A    between atoms: C_29  and  O_30
REMARK                            x       y       z     vdW  Elec       q    Type
REMARK                         _______ _______ _______ _____ _____    ______ ____
ROOT
ATOM      1  N   UNL     1     -38.107  22.459   2.993  0.00  0.00    +0.399 N 
ATOM      2  H1  UNL     1     -39.123  22.381   3.030  0.00  0.00    -0.083 HD
ATOM      3  H2  UNL     1     -37.687  22.083   3.843  0.00  0.00    -0.083 HD
ENDROOT
BRANCH   1   4
ATOM      4  CA  UNL     1     -37.743  23.861   2.881  0.00  0.00    +0.018 C 
ATOM      5  CB  UNL     1     -38.884  24.758   3.316  0.00  0.00    -0.014 C 
BRANCH   4  12
ATOM      6  O   UNL     1     -36.517  23.575   4.902  0.00  0.00    -0.277 OA
ATOM      7  N   UNL     1     -35.540  24.866   3.248  0.00  0.00    -0.273 N 
ATOM      8  CA  UNL     1     -34.254  25.042   3.912  0.00  0.00    +0.174 C 
ATOM      9  CB  UNL     1     -33.324  25.559   2.821  0.00  0.00    +0.033 C 
ATOM     10  CG  UNL     1     -34.263  26.309   1.880  0.00  0.00    +0.024 C 
ATOM     11  CD  UNL     1     -35.536  25.480   1.923  0.00  0.00    +0.094 C 
ATOM     12  C   UNL     1     -36.548  24.077   3.777  0.00  0.00    +0.206 C 
BRANCH   8  14
ATOM     13  OXT UNL     1     -35.502  26.636   5.233  0.00  0.00    -0.248 OA
ATOM     14  C   UNL     1     -34.453  26.052   5.000  0.00  0.00    +0.332 C 
BRANCH  14  15
ATOM     15  O   UNL     1     -33.306  26.237   5.697  0.00  0.00    -0.479 OA
ATOM     16  H   UNL     1     -33.331  26.297   6.632  0.00  0.00    +0.295 HD
ENDBRANCH  14  15
ENDBRANCH   8  14
ENDBRANCH   4  12
ENDBRANCH   1   4
BRANCH   1  17
ATOM     17  CA  UNL     1     -37.611  21.696   1.854  0.00  0.00    +0.045 C 
BRANCH  17  19
ATOM     18  OXT UNL     1     -38.831  20.505   0.114  0.00  0.00    -0.253 OA
ATOM     19  C   UNL     1     -38.819  21.025   1.222  0.00  0.00    +0.294 C 
BRANCH  19  20
ATOM     20  O   UNL     1     -39.902  21.033   2.042  0.00  0.00    -0.482 OA
ATOM     21  H   UNL     1     -40.244  21.846   2.358  0.00  0.00    +0.295 HD
ENDBRANCH  19  20
ENDBRANCH  17  19
BRANCH  17  22
ATOM     22  C   UNL     1     -36.565  20.676   2.328  0.00  0.00    +0.016 C 
BRANCH  22  24
ATOM     23  I   UNL     1     -31.939  18.110   0.759  0.00  0.00    -0.039 I 
ATOM     24  C   UNL     1     -35.259  20.780   1.574  0.00  0.00    -0.023 C 
ATOM     25  C   UNL     1     -34.399  19.683   1.514  0.00  0.00    +0.004 C 
ATOM     26  C   UNL     1     -34.915  21.972   0.939  0.00  0.00    -0.001 C 
ATOM     27  C   UNL     1     -33.193  19.780   0.817  0.00  0.00    +0.063 C 
ATOM     28  C   UNL     1     -33.709  22.069   0.244  0.00  0.00    +0.037 C 
ATOM     29  C   UNL     1     -32.848  20.973   0.183  0.00  0.00    +0.139 C 
BRANCH  29  30
ATOM     30  O   UNL     1     -31.681  21.110  -0.508  0.00  0.00    -0.505 OA
ATOM     31  H   UNL     1     -31.700  21.295  -1.426  0.00  0.00    +0.292 HD
ENDBRANCH  29  30
ENDBRANCH  22  24
ENDBRANCH  17  22
ENDBRANCH   1  17
TORSDOF 10
ENDMDL
MODEL 4
REMARK VINA RESULT:      -6.1      3.054      7.637
REMARK  Name = 57346386
REMARK  10 active torsions:
REMARK  status: ('A' for Active; 'I' for Inactive)
REMARK    1  A    between atoms: N_1  and  CA_4
REMARK    2  A    between atoms: N_1  and  CA_17
REMARK    3  A    between atoms: CA_4  and  C_12
REMARK    4  A    between atoms: CA_8  and  C_14
REMARK    5  A    between atoms: C_14  and  O_15
REMARK    6  A    between atoms: CA_17  and  C_19
REMARK    7  A    between atoms: CA_17  and  C_22
REMARK    8  A    between atoms: C_19  and  O_20
REMARK    9  A    between atoms: C_22  and  C_24
REMARK   10  A    between atoms: C_29  and  O_30
REMARK                            x       y       z     vdW  Elec       q    Type
REMARK                         _______ _______ _______ _____ _____    ______ ____
ROOT
ATOM      1  N   UNL     1     -36.688  22.212   3.717  0.00  0.00    +0.399 N 
ATOM      2  H1  UNL     1     -36.770  21.250   4.045  0.00  0.00    -0.083 HD
ATOM      3  H2  UNL     1     -37.581  22.697   3.801  0.00  0.00    -0.083 HD
ENDROOT
BRANCH   1   4
ATOM      4  CA  UNL     1     -36.299  22.204   2.316  0.00  0.00    +0.018 C 
ATOM      5  CB  UNL     1     -34.999  22.954   2.107  0.00  0.00    -0.014 C 
BRANCH   4  12
ATOM      6  O   UNL     1     -35.396  20.015   2.572  0.00  0.00    -0.277 OA
ATOM      7  N   UNL     1     -36.831  20.364   0.790  0.00  0.00    -0.273 N 
ATOM      8  CA  UNL     1     -36.907  18.973   0.362  0.00  0.00    +0.174 C 
ATOM      9  CB  UNL     1     -38.102  18.923  -0.582  0.00  0.00    +0.033 C 
ATOM     10  CG  UNL     1     -38.146  20.330  -1.174  0.00  0.00    +0.024 C 
ATOM     11  CD  UNL     1     -37.709  21.211  -0.014  0.00  0.00    +0.094 C 
ATOM     12  C   UNL     1     -36.129  20.759   1.918  0.00  0.00    +0.206 C 
BRANCH   8  14
ATOM     13  OXT UNL     1     -35.335  19.033  -1.472  0.00  0.00    -0.248 OA
ATOM     14  C   UNL     1     -35.625  18.658  -0.346  0.00  0.00    +0.332 C 
BRANCH  14  15
ATOM     15  O   UNL     1     -34.822  17.895   0.435  0.00  0.00    -0.479 OA
ATOM     16  H   UNL     1     -35.149  17.101   0.809  0.00  0.00    +0.295 HD
ENDBRANCH  14  15
ENDBRANCH   8  14
ENDBRANCH   4  12
ENDBRANCH   1   4
BRANCH   1  17
ATOM     17  CA  UNL     1     -35.701  22.912   4.531  0.00  0.00    +0.045 C 
BRANCH  17  19
ATOM     18  OXT UNL     1     -35.335  22.323   6.866  0.00  0.00    -0.253 OA
ATOM     19  C   UNL     1     -35.360  21.989   5.688  0.00  0.00    +0.294 C 
BRANCH  19  20
ATOM     20  O   UNL     1     -35.112  20.717   5.279  0.00  0.00    -0.482 OA
ATOM     21  H   UNL     1     -35.627  20.009   5.611  0.00  0.00    +0.295 HD
ENDBRANCH  19  20
ENDBRANCH  17  19
BRANCH  17  22
ATOM     22  C   UNL     1     -36.280  24.251   5.011  0.00  0.00    +0.016 C 
BRANCH  22  24
ATOM     23  I   UNL     1     -34.500  28.485   1.953  0.00  0.00    -0.039 I 
ATOM     24  C   UNL     1     -35.298  25.393   4.889  0.00  0.00    -0.023 C 
ATOM     25  C   UNL     1     -35.326  26.222   3.766  0.00  0.00    +0.004 C 
ATOM     26  C   UNL     1     -34.362  25.618   5.898  0.00  0.00    -0.001 C 
ATOM     27  C   UNL     1     -34.418  27.276   3.654  0.00  0.00    +0.063 C 
ATOM     28  C   UNL     1     -33.454  26.671   5.785  0.00  0.00    +0.037 C 
ATOM     29  C   UNL     1     -33.482  27.500   4.663  0.00  0.00    +0.139 C 
BRANCH  29  30
ATOM     30  O   UNL     1     -32.578  28.518   4.593  0.00  0.00    -0.505 OA
ATOM     31  H   UNL     1     -32.638  29.239   5.189  0.00  0.00    +0.292 HD
ENDBRANCH  29  30
ENDBRANCH  22  24
ENDBRANCH  17  22
ENDBRANCH   1  17
TORSDOF 10
ENDMDL
MODEL 5
REMARK VINA RESULT:      -6.1      3.316      5.002
REMARK  Name = 57346386
REMARK  10 active torsions:
REMARK  status: ('A' for Active; 'I' for Inactive)
REMARK    1  A    between atoms: N_1  and  CA_4
REMARK    2  A    between atoms: N_1  and  CA_17
REMARK    3  A    between atoms: CA_4  and  C_12
REMARK    4  A    between atoms: CA_8  and  C_14
REMARK    5  A    between atoms: C_14  and  O_15
REMARK    6  A    between atoms: CA_17  and  C_19
REMARK    7  A    between atoms: CA_17  and  C_22
REMARK    8  A    between atoms: C_19  and  O_20
REMARK    9  A    between atoms: C_22  and  C_24
REMARK   10  A    between atoms: C_29  and  O_30
REMARK                            x       y       z     vdW  Elec       q    Type
REMARK                         _______ _______ _______ _____ _____    ______ ____
ROOT
ATOM      1  N   UNL     1     -37.797  22.271   2.975  0.00  0.00    +0.399 N 
ATOM      2  H1  UNL     1     -38.804  22.118   2.969  0.00  0.00    -0.083 HD
ATOM      3  H2  UNL     1     -37.387  21.929   3.844  0.00  0.00    -0.083 HD
ENDROOT
BRANCH   1   4
ATOM      4  CA  UNL     1     -37.534  23.697   2.872  0.00  0.00    +0.018 C 
ATOM      5  CB  UNL     1     -38.752  24.506   3.269  0.00  0.00    -0.014 C 
BRANCH   4  12
ATOM      6  O   UNL     1     -36.382  23.542   4.951  0.00  0.00    -0.277 OA
ATOM      7  N   UNL     1     -35.394  24.813   3.287  0.00  0.00    -0.273 N 
ATOM      8  CA  UNL     1     -34.146  25.071   3.994  0.00  0.00    +0.174 C 
ATOM      9  CB  UNL     1     -33.194  25.588   2.922  0.00  0.00    +0.033 C 
ATOM     10  CG  UNL     1     -34.125  26.259   1.914  0.00  0.00    +0.024 C 
ATOM     11  CD  UNL     1     -35.361  25.375   1.940  0.00  0.00    +0.094 C 
ATOM     12  C   UNL     1     -36.388  23.999   3.807  0.00  0.00    +0.206 C 
BRANCH   8  14
ATOM     13  OXT UNL     1     -35.498  26.700   5.162  0.00  0.00    -0.248 OA
ATOM     14  C   UNL     1     -34.434  26.113   5.032  0.00  0.00    +0.332 C 
BRANCH  14  15
ATOM     15  O   UNL     1     -33.348  26.320   5.816  0.00  0.00    -0.479 OA
ATOM     16  H   UNL     1     -32.900  25.592   6.200  0.00  0.00    +0.295 HD
ENDBRANCH  14  15
ENDBRANCH   8  14
ENDBRANCH   4  12
ENDBRANCH   1   4
BRANCH   1  17
ATOM     17  CA  UNL     1     -37.195  21.545   1.862  0.00  0.00    +0.045 C 
BRANCH  17  19
ATOM     18  OXT UNL     1     -38.211  20.194   0.109  0.00  0.00    -0.253 OA
ATOM     19  C   UNL     1     -38.330  20.834   1.146  0.00  0.00    +0.294 C 
BRANCH  19  20
ATOM     20  O   UNL     1     -39.513  20.954   1.803  0.00  0.00    -0.482 OA
ATOM     21  H   UNL     1     -39.541  20.874   2.737  0.00  0.00    +0.295 HD
ENDBRANCH  19  20
ENDBRANCH  17  19
BRANCH  17  22
ATOM     22  C   UNL     1     -36.140  20.563   2.392  0.00  0.00    +0.016 C 
BRANCH  22  24
ATOM     23  I   UNL     1     -32.778  23.564  -0.791  0.00  0.00    -0.039 I 
ATOM     24  C   UNL     1     -34.854  20.599   1.599  0.00  0.00    -0.023 C 
ATOM     25  C   UNL     1     -34.480  21.764   0.928  0.00  0.00    +0.004 C 
ATOM     26  C   UNL     1     -34.043  19.467   1.536  0.00  0.00    -0.001 C 
ATOM     27  C   UNL     1     -33.292  21.797   0.196  0.00  0.00    +0.063 C 
ATOM     28  C   UNL     1     -32.856  19.499   0.802  0.00  0.00    +0.037 C 
ATOM     29  C   UNL     1     -32.481  20.664   0.132  0.00  0.00    +0.139 C 
BRANCH  29  30
ATOM     30  O   UNL     1     -31.314  20.653  -0.572  0.00  0.00    -0.505 OA
ATOM     31  H   UNL     1     -31.273  20.224  -1.404  0.00  0.00    +0.292 HD
ENDBRANCH  29  30
ENDBRANCH  22  24
ENDBRANCH  17  22
ENDBRANCH   1  17
TORSDOF 10
ENDMDL
MODEL 6
REMARK VINA RESULT:      -6.1      2.797      4.757
REMARK  Name = 57346386
REMARK  10 active torsions:
REMARK  status: ('A' for Active; 'I' for Inactive)
REMARK    1  A    between atoms: N_1  and  CA_4
REMARK    2  A    between atoms: N_1  and  CA_17
REMARK    3  A    between atoms: CA_4  and  C_12
REMARK    4  A    between atoms: CA_8  and  C_14
REMARK    5  A    between atoms: C_14  and  O_15
REMARK    6  A    between atoms: CA_17  and  C_19
REMARK    7  A    between atoms: CA_17  and  C_22
REMARK    8  A    between atoms: C_19  and  O_20
REMARK    9  A    between atoms: C_22  and  C_24
REMARK   10  A    between atoms: C_29  and  O_30
REMARK                            x       y       z     vdW  Elec       q    Type
REMARK                         _______ _______ _______ _____ _____    ______ ____
ROOT
ATOM      1  N   UNL     1     -35.025  27.482   3.845  0.00  0.00    +0.399 N 
ATOM      2  H1  UNL     1     -35.110  28.418   3.452  0.00  0.00    -0.083 HD
ATOM      3  H2  UNL     1     -35.426  27.449   4.782  0.00  0.00    -0.083 HD
ENDROOT
BRANCH   1   4
ATOM      4  CA  UNL     1     -33.618  27.130   3.933  0.00  0.00    +0.018 C 
ATOM      5  CB  UNL     1     -33.289  25.966   3.020  0.00  0.00    -0.014 C 
BRANCH   4  12
ATOM      6  O   UNL     1     -32.842  28.721   2.340  0.00  0.00    -0.277 OA
ATOM      7  N   UNL     1     -32.127  28.979   4.527  0.00  0.00    -0.273 N 
ATOM      8  CA  UNL     1     -31.451  30.256   4.331  0.00  0.00    +0.174 C 
ATOM      9  CB  UNL     1     -31.223  30.792   5.739  0.00  0.00    +0.033 C 
ATOM     10  CG  UNL     1     -31.105  29.527   6.586  0.00  0.00    +0.024 C 
ATOM     11  CD  UNL     1     -32.091  28.574   5.929  0.00  0.00    +0.094 C 
ATOM     12  C   UNL     1     -32.835  28.350   3.515  0.00  0.00    +0.206 C 
BRANCH   8  14
ATOM     13  OXT UNL     1     -29.190  29.426   4.136  0.00  0.00    -0.248 OA
ATOM     14  C   UNL     1     -30.160  29.969   3.628  0.00  0.00    +0.332 C 
BRANCH  14  15
ATOM     15  O   UNL     1     -30.210  30.395   2.343  0.00  0.00    -0.479 OA
ATOM     16  H   UNL     1     -29.423  30.446   1.835  0.00  0.00    +0.295 HD
ENDBRANCH  14  15
ENDBRANCH   8  14
ENDBRANCH   4  12
ENDBRANCH   1   4
BRANCH   1  17
ATOM     17  CA  UNL     1     -35.749  26.541   2.999  0.00  0.00    +0.045 C 
BRANCH  17  19
ATOM     18  OXT UNL     1     -37.612  27.377   1.671  0.00  0.00    -0.253 OA
ATOM     19  C   UNL     1     -36.411  27.362   1.905  0.00  0.00    +0.294 C 
BRANCH  19  20
ATOM     20  O   UNL     1     -35.518  28.121   1.217  0.00  0.00    -0.482 OA
ATOM     21  H   UNL     1     -35.375  27.963   0.304  0.00  0.00    +0.295 HD
ENDBRANCH  19  20
ENDBRANCH  17  19
BRANCH  17  22
ATOM     22  C   UNL     1     -36.774  25.767   3.841  0.00  0.00    +0.016 C 
BRANCH  22  24
ATOM     23  I   UNL     1     -35.794  20.605   2.157  0.00  0.00    -0.039 I 
ATOM     24  C   UNL     1     -36.296  24.385   4.224  0.00  0.00    -0.023 C 
ATOM     25  C   UNL     1     -36.263  23.368   3.269  0.00  0.00    +0.004 C 
ATOM     26  C   UNL     1     -35.889  24.127   5.532  0.00  0.00    -0.001 C 
ATOM     27  C   UNL     1     -35.822  22.093   3.623  0.00  0.00    +0.063 C 
ATOM     28  C   UNL     1     -35.449  22.851   5.887  0.00  0.00    +0.037 C 
ATOM     29  C   UNL     1     -35.415  21.834   4.932  0.00  0.00    +0.139 C 
BRANCH  29  30
ATOM     30  O   UNL     1     -34.977  20.603   5.320  0.00  0.00    -0.505 OA
ATOM     31  H   UNL     1     -34.355  20.140   4.793  0.00  0.00    +0.292 HD
ENDBRANCH  29  30
ENDBRANCH  22  24
ENDBRANCH  17  22
ENDBRANCH   1  17
TORSDOF 10
ENDMDL
MODEL 7
REMARK VINA RESULT:      -6.0      2.373      6.997
REMARK  Name = 57346386
REMARK  10 active torsions:
REMARK  status: ('A' for Active; 'I' for Inactive)
REMARK    1  A    between atoms: N_1  and  CA_4
REMARK    2  A    between atoms: N_1  and  CA_17
REMARK    3  A    between atoms: CA_4  and  C_12
REMARK    4  A    between atoms: CA_8  and  C_14
REMARK    5  A    between atoms: C_14  and  O_15
REMARK    6  A    between atoms: CA_17  and  C_19
REMARK    7  A    between atoms: CA_17  and  C_22
REMARK    8  A    between atoms: C_19  and  O_20
REMARK    9  A    between atoms: C_22  and  C_24
REMARK   10  A    between atoms: C_29  and  O_30
REMARK                            x       y       z     vdW  Elec       q    Type
REMARK                         _______ _______ _______ _____ _____    ______ ____
ROOT
ATOM      1  N   UNL     1     -36.620  22.122   3.858  0.00  0.00    +0.399 N 
ATOM      2  H1  UNL     1     -36.347  21.150   3.721  0.00  0.00    -0.083 HD
ATOM      3  H2  UNL     1     -37.502  22.180   4.365  0.00  0.00    -0.083 HD
ENDROOT
BRANCH   1   4
ATOM      4  CA  UNL     1     -36.792  22.753   2.560  0.00  0.00    +0.018 C 
ATOM      5  CB  UNL     1     -35.993  22.033   1.493  0.00  0.00    -0.014 C 
BRANCH   4  12
ATOM      6  O   UNL     1     -38.834  21.599   2.146  0.00  0.00    -0.277 OA
ATOM      7  N   UNL     1     -38.885  23.911   2.037  0.00  0.00    -0.273 N 
ATOM      8  CA  UNL     1     -40.329  24.038   1.874  0.00  0.00    +0.174 C 
ATOM      9  CB  UNL     1     -40.621  25.507   2.153  0.00  0.00    +0.033 C 
ATOM     10  CG  UNL     1     -39.333  26.212   1.734  0.00  0.00    +0.024 C 
ATOM     11  CD  UNL     1     -38.249  25.222   2.130  0.00  0.00    +0.094 C 
ATOM     12  C   UNL     1     -38.264  22.688   2.234  0.00  0.00    +0.206 C 
BRANCH   8  14
ATOM     13  OXT UNL     1     -40.450  24.377  -0.517  0.00  0.00    -0.248 OA
ATOM     14  C   UNL     1     -40.647  23.666   0.458  0.00  0.00    +0.332 C 
BRANCH  14  15
ATOM     15  O   UNL     1     -41.189  22.425   0.399  0.00  0.00    -0.479 OA
ATOM     16  H   UNL     1     -41.978  22.280  -0.086  0.00  0.00    +0.295 HD
ENDBRANCH  14  15
ENDBRANCH   8  14
ENDBRANCH   4  12
ENDBRANCH   1   4
BRANCH   1  17
ATOM     17  CA  UNL     1     -35.592  22.801   4.638  0.00  0.00    +0.045 C 
BRANCH  17  19
ATOM     18  OXT UNL     1     -35.246  22.329   7.003  0.00  0.00    -0.253 OA
ATOM     19  C   UNL     1     -35.318  21.925   5.849  0.00  0.00    +0.294 C 
BRANCH  19  20
ATOM     20  O   UNL     1     -35.190  20.613   5.520  0.00  0.00    -0.482 OA
ATOM     21  H   UNL     1     -34.629  20.057   6.023  0.00  0.00    +0.295 HD
ENDBRANCH  19  20
ENDBRANCH  17  19
BRANCH  17  22
ATOM     22  C   UNL     1     -36.082  24.201   5.036  0.00  0.00    +0.016 C 
BRANCH  22  24
ATOM     23  I   UNL     1     -33.279  27.274   1.410  0.00  0.00    -0.039 I 
ATOM     24  C   UNL     1     -35.032  25.270   4.834  0.00  0.00    -0.023 C 
ATOM     25  C   UNL     1     -34.704  25.692   3.545  0.00  0.00    +0.004 C 
ATOM     26  C   UNL     1     -34.390  25.832   5.937  0.00  0.00    -0.001 C 
ATOM     27  C   UNL     1     -33.735  26.678   3.360  0.00  0.00    +0.063 C 
ATOM     28  C   UNL     1     -33.420  26.818   5.751  0.00  0.00    +0.037 C 
ATOM     29  C   UNL     1     -33.092  27.241   4.463  0.00  0.00    +0.139 C 
BRANCH  29  30
ATOM     30  O   UNL     1     -32.140  28.207   4.325  0.00  0.00    -0.505 OA
ATOM     31  H   UNL     1     -31.566  28.196   3.584  0.00  0.00    +0.292 HD
ENDBRANCH  29  30
ENDBRANCH  22  24
ENDBRANCH  17  22
ENDBRANCH   1  17
TORSDOF 10
ENDMDL
MODEL 8
REMARK VINA RESULT:      -6.0      3.322      7.710
REMARK  Name = 57346386
REMARK  10 active torsions:
REMARK  status: ('A' for Active; 'I' for Inactive)
REMARK    1  A    between atoms: N_1  and  CA_4
REMARK    2  A    between atoms: N_1  and  CA_17
REMARK    3  A    between atoms: CA_4  and  C_12
REMARK    4  A    between atoms: CA_8  and  C_14
REMARK    5  A    between atoms: C_14  and  O_15
REMARK    6  A    between atoms: CA_17  and  C_19
REMARK    7  A    between atoms: CA_17  and  C_22
REMARK    8  A    between atoms: C_19  and  O_20
REMARK    9  A    between atoms: C_22  and  C_24
REMARK   10  A    between atoms: C_29  and  O_30
REMARK                            x       y       z     vdW  Elec       q    Type
REMARK                         _______ _______ _______ _____ _____    ______ ____
ROOT
ATOM      1  N   UNL     1     -36.333  25.658   4.459  0.00  0.00    +0.399 N 
ATOM      2  H1  UNL     1     -36.280  25.887   5.451  0.00  0.00    -0.083 HD
ATOM      3  H2  UNL     1     -37.304  25.618   4.151  0.00  0.00    -0.083 HD
ENDROOT
BRANCH   1   4
ATOM      4  CA  UNL     1     -35.726  24.356   4.241  0.00  0.00    +0.018 C 
ATOM      5  CB  UNL     1     -35.497  23.634   5.553  0.00  0.00    -0.014 C 
BRANCH   4  12
ATOM      6  O   UNL     1     -37.868  23.472   3.693  0.00  0.00    -0.277 OA
ATOM      7  N   UNL     1     -36.121  22.973   2.259  0.00  0.00    -0.273 N 
ATOM      8  CA  UNL     1     -36.927  22.314   1.238  0.00  0.00    +0.174 C 
ATOM      9  CB  UNL     1     -36.016  22.232   0.019  0.00  0.00    +0.033 C 
ATOM     10  CG  UNL     1     -34.616  22.164   0.626  0.00  0.00    +0.024 C 
ATOM     11  CD  UNL     1     -34.722  23.060   1.850  0.00  0.00    +0.094 C 
ATOM     12  C   UNL     1     -36.680  23.566   3.379  0.00  0.00    +0.206 C 
BRANCH   8  14
ATOM     13  OXT UNL     1     -36.523  19.994   1.784  0.00  0.00    -0.248 OA
ATOM     14  C   UNL     1     -37.278  20.955   1.763  0.00  0.00    +0.332 C 
BRANCH  14  15
ATOM     15  O   UNL     1     -38.555  20.932   2.215  0.00  0.00    -0.479 OA
ATOM     16  H   UNL     1     -38.913  20.140   2.567  0.00  0.00    +0.295 HD
ENDBRANCH  14  15
ENDBRANCH   8  14
ENDBRANCH   4  12
ENDBRANCH   1   4
BRANCH   1  17
ATOM     17  CA  UNL     1     -35.646  26.691   3.693  0.00  0.00    +0.045 C 
BRANCH  17  19
ATOM     18  OXT UNL     1     -35.695  26.461   1.268  0.00  0.00    -0.253 OA
ATOM     19  C   UNL     1     -36.284  26.704   2.314  0.00  0.00    +0.294 C 
BRANCH  19  20
ATOM     20  O   UNL     1     -37.612  26.987   2.361  0.00  0.00    -0.482 OA
ATOM     21  H   UNL     1     -38.154  26.818   1.615  0.00  0.00    +0.295 HD
ENDBRANCH  19  20
ENDBRANCH  17  19
BRANCH  17  22
ATOM     22  C   UNL     1     -34.143  26.381   3.632  0.00  0.00    +0.016 C 
BRANCH  22  24
ATOM     23  I   UNL     1     -30.898  30.725   4.653  0.00  0.00    -0.039 I 
ATOM     24  C   UNL     1     -33.344  27.143   4.664  0.00  0.00    -0.023 C 
ATOM     25  C   UNL     1     -32.654  28.299   4.298  0.00  0.00    +0.004 C 
ATOM     26  C   UNL     1     -33.297  26.689   5.982  0.00  0.00    -0.001 C 
ATOM     27  C   UNL     1     -31.916  29.002   5.252  0.00  0.00    +0.063 C 
ATOM     28  C   UNL     1     -32.559  27.392   6.935  0.00  0.00    +0.037 C 
ATOM     29  C   UNL     1     -31.868  28.548   6.570  0.00  0.00    +0.139 C 
BRANCH  29  30
ATOM     30  O   UNL     1     -31.160  29.205   7.532  0.00  0.00    -0.505 OA
ATOM     31  H   UNL     1     -31.050  30.134   7.480  0.00  0.00    +0.292 HD
ENDBRANCH  29  30
ENDBRANCH  22  24
ENDBRANCH  17  22
ENDBRANCH   1  17
TORSDOF 10
ENDMDL
MODEL 9
REMARK VINA RESULT:      -6.0      2.851      6.184
REMARK  Name = 57346386
REMARK  10 active torsions:
REMARK  status: ('A' for Active; 'I' for Inactive)
REMARK    1  A    between atoms: N_1  and  CA_4
REMARK    2  A    between atoms: N_1  and  CA_17
REMARK    3  A    between atoms: CA_4  and  C_12
REMARK    4  A    between atoms: CA_8  and  C_14
REMARK    5  A    between atoms: C_14  and  O_15
REMARK    6  A    between atoms: CA_17  and  C_19
REMARK    7  A    between atoms: CA_17  and  C_22
REMARK    8  A    between atoms: C_19  and  O_20
REMARK    9  A    between atoms: C_22  and  C_24
REMARK   10  A    between atoms: C_29  and  O_30
REMARK                            x       y       z     vdW  Elec       q    Type
REMARK                         _______ _______ _______ _____ _____    ______ ____
ROOT
ATOM      1  N   UNL     1     -37.018  22.777   4.035  0.00  0.00    +0.399 N 
ATOM      2  H1  UNL     1     -37.454  21.919   4.371  0.00  0.00    -0.083 HD
ATOM      3  H2  UNL     1     -37.312  23.573   4.599  0.00  0.00    -0.083 HD
ENDROOT
BRANCH   1   4
ATOM      4  CA  UNL     1     -37.429  23.010   2.660  0.00  0.00    +0.018 C 
ATOM      5  CB  UNL     1     -38.268  21.861   2.139  0.00  0.00    -0.014 C 
BRANCH   4  12
ATOM      6  O   UNL     1     -39.149  24.444   3.471  0.00  0.00    -0.277 OA
ATOM      7  N   UNL     1     -37.890  25.208   1.685  0.00  0.00    -0.273 N 
ATOM      8  CA  UNL     1     -38.459  26.550   1.642  0.00  0.00    +0.174 C 
ATOM      9  CB  UNL     1     -37.501  27.348   0.766  0.00  0.00    +0.033 C 
ATOM     10  CG  UNL     1     -36.921  26.296  -0.177  0.00  0.00    +0.024 C 
ATOM     11  CD  UNL     1     -36.821  25.059   0.701  0.00  0.00    +0.094 C 
ATOM     12  C   UNL     1     -38.239  24.283   2.655  0.00  0.00    +0.206 C 
BRANCH   8  14
ATOM     13  OXT UNL     1     -40.150  25.575   0.216  0.00  0.00    -0.248 OA
ATOM     14  C   UNL     1     -39.817  26.433   1.020  0.00  0.00    +0.332 C 
BRANCH  14  15
ATOM     15  O   UNL     1     -40.635  27.415   1.470  0.00  0.00    -0.479 OA
ATOM     16  H   UNL     1     -40.498  28.301   1.197  0.00  0.00    +0.295 HD
ENDBRANCH  14  15
ENDBRANCH   8  14
ENDBRANCH   4  12
ENDBRANCH   1   4
BRANCH   1  17
ATOM     17  CA  UNL     1     -35.569  22.648   4.134  0.00  0.00    +0.045 C 
BRANCH  17  19
ATOM     18  OXT UNL     1     -35.095  20.388   3.359  0.00  0.00    -0.253 OA
ATOM     19  C   UNL     1     -35.276  21.165   4.288  0.00  0.00    +0.294 C 
BRANCH  19  20
ATOM     20  O   UNL     1     -35.200  20.785   5.590  0.00  0.00    -0.482 OA
ATOM     21  H   UNL     1     -35.348  19.890   5.826  0.00  0.00    +0.295 HD
ENDBRANCH  19  20
ENDBRANCH  17  19
BRANCH  17  22
ATOM     22  C   UNL     1     -35.056  23.466   5.328  0.00  0.00    +0.016 C 
BRANCH  22  24
ATOM     23  I   UNL     1     -33.043  26.478   1.166  0.00  0.00    -0.039 I 
ATOM     24  C   UNL     1     -34.397  24.761   4.913  0.00  0.00    -0.023 C 
ATOM     25  C   UNL     1     -34.091  24.989   3.571  0.00  0.00    +0.004 C 
ATOM     26  C   UNL     1     -34.093  25.727   5.872  0.00  0.00    -0.001 C 
ATOM     27  C   UNL     1     -33.482  26.185   3.188  0.00  0.00    +0.063 C 
ATOM     28  C   UNL     1     -33.484  26.922   5.489  0.00  0.00    +0.037 C 
ATOM     29  C   UNL     1     -33.178  27.151   4.147  0.00  0.00    +0.139 C 
BRANCH  29  30
ATOM     30  O   UNL     1     -32.584  28.333   3.815  0.00  0.00    -0.505 OA
ATOM     31  H   UNL     1     -32.845  28.786   3.037  0.00  0.00    +0.292 HD
ENDBRANCH  29  30
ENDBRANCH  22  24
ENDBRANCH  17  22
ENDBRANCH   1  17
TORSDOF 10
ENDMDL
