MODEL 1
REMARK VINA RESULT:      -5.2      0.000      0.000
REMARK  Name = 21150981
REMARK  15 active torsions:
REMARK  status: ('A' for Active; 'I' for Inactive)
REMARK    1  A    between atoms: N_2  and  CA_5
REMARK    2  A    between atoms: C_3  and  C_20
REMARK    3  A    between atoms: CA_5  and  C_8
REMARK    4  A    between atoms: CA_5  and  CB_15
REMARK    5  A    between atoms: N_7  and  CA_10
REMARK    6  A    between atoms: CA_10  and  C_12
REMARK    7  A    between atoms: C_12  and  O_13
REMARK    8  A    between atoms: CB_15  and  SG_16
REMARK    9  A    between atoms: SG_16  and  C_17
REMARK   10  A    between atoms: C_17  and  C_19
REMARK   11  A    between atoms: C_20  and  C_21
REMARK   12  A    between atoms: C_21  and  CA_22
REMARK   13  A    between atoms: CA_22  and  N_23
REMARK   14  A    between atoms: CA_22  and  C_28
REMARK   15  A    between atoms: C_28  and  O_29
REMARK                            x       y       z     vdW  Elec       q    Type
REMARK                         _______ _______ _______ _____ _____    ______ ____
ROOT
ATOM      1  O   UNL     1     -35.941  26.440   5.699  0.00  0.00    -0.275 OA
ATOM      2  N   UNL     1     -34.558  26.400   3.833  0.00  0.00    -0.298 N 
ATOM      3  C   UNL     1     -35.069  25.900   5.022  0.00  0.00    +0.223 C 
ATOM      4  H   UNL     1     -33.859  25.885   3.367  0.00  0.00    +0.150 HD
ENDROOT
BRANCH   2   5
ATOM      5  CA  UNL     1     -35.008  27.642   3.247  0.00  0.00    +0.159 C 
BRANCH   5   8
ATOM      6  O   UNL     1     -36.244  27.890   1.173  0.00  0.00    -0.273 OA
ATOM      7  N   UNL     1     -37.042  26.415   2.776  0.00  0.00    -0.294 N 
ATOM      8  C   ACE A   1     -36.143  27.344   2.269  0.00  0.00    +0.242 C 
ATOM      9  H   UNL     1     -36.874  26.032   3.667  0.00  0.00    +0.150 HD
BRANCH   7  10
ATOM     10  CA  UNL     1     -38.214  25.989   2.049  0.00  0.00    +0.200 C 
BRANCH  10  12
ATOM     11  OXT UNL     1     -40.415  26.637   2.776  0.00  0.00    -0.248 OA
ATOM     12  C   UNL     1     -39.444  25.903   2.915  0.00  0.00    +0.334 C 
BRANCH  12  13
ATOM     13  O   UNL     1     -39.372  24.940   3.862  0.00  0.00    -0.479 OA
ATOM     14  H   UNL     1     -38.588  24.437   3.961  0.00  0.00    +0.295 HD
ENDBRANCH  12  13
ENDBRANCH  10  12
ENDBRANCH   7  10
ENDBRANCH   5   8
BRANCH   5  15
ATOM     15  CB  UNL     1     -33.861  28.439   2.622  0.00  0.00    +0.086 C 
BRANCH  15  16
ATOM     16  SG  UNL     1     -32.219  28.009   3.284  0.00  0.00    -0.137 S 
BRANCH  16  17
ATOM     17  C   UNL     1     -31.829  29.596   4.054  0.00  0.00    +0.075 C 
BRANCH  17  19
ATOM     18 CL   UNL     1     -32.225  27.901   6.176  0.00  0.00    -0.113 Cl
ATOM     19  C   UNL     1     -31.961  29.555   5.569  0.00  0.00    +0.106 C 
ENDBRANCH  17  19
ENDBRANCH  16  17
ENDBRANCH  15  16
ENDBRANCH   5  15
ENDBRANCH   2   5
BRANCH   3  20
ATOM     20  C   UNL     1     -34.409  24.587   5.405  0.00  0.00    +0.083 C 
BRANCH  20  21
ATOM     21  C   UNL     1     -35.416  23.440   5.522  0.00  0.00    -0.001 C 
BRANCH  21  22
ATOM     22  CA  UNL     1     -35.678  22.741   4.183  0.00  0.00    +0.036 C 
BRANCH  22  23
ATOM     23  N   UNL     1     -37.095  22.867   3.835  0.00  0.00    +0.389 N 
ATOM     24  H1  UNL     1     -37.213  22.720   2.832  0.00  0.00    -0.088 HD
ATOM     25  H2  UNL     1     -37.424  23.800   4.082  0.00  0.00    -0.088 HD
ATOM     26  H3  UNL     1     -37.635  22.168   4.346  0.00  0.00    -0.088 HD
ENDBRANCH  22  23
BRANCH  22  28
ATOM     27  OXT UNL     1     -35.303  20.496   3.311  0.00  0.00    -0.253 OA
ATOM     28  C   UNL     1     -35.382  21.254   4.269  0.00  0.00    +0.293 C 
BRANCH  28  29
ATOM     29  O   UNL     1     -35.237  20.832   5.552  0.00  0.00    -0.482 OA
ATOM     30  H   UNL     1     -34.568  20.213   5.769  0.00  0.00    +0.295 HD
ENDBRANCH  28  29
ENDBRANCH  22  28
ENDBRANCH  21  22
ENDBRANCH  20  21
ENDBRANCH   3  20
TORSDOF 15
ENDMDL
MODEL 2
REMARK VINA RESULT:      -5.2      2.677      3.550
REMARK  Name = 21150981
REMARK  15 active torsions:
REMARK  status: ('A' for Active; 'I' for Inactive)
REMARK    1  A    between atoms: N_2  and  CA_5
REMARK    2  A    between atoms: C_3  and  C_20
REMARK    3  A    between atoms: CA_5  and  C_8
REMARK    4  A    between atoms: CA_5  and  CB_15
REMARK    5  A    between atoms: N_7  and  CA_10
REMARK    6  A    between atoms: CA_10  and  C_12
REMARK    7  A    between atoms: C_12  and  O_13
REMARK    8  A    between atoms: CB_15  and  SG_16
REMARK    9  A    between atoms: SG_16  and  C_17
REMARK   10  A    between atoms: C_17  and  C_19
REMARK   11  A    between atoms: C_20  and  C_21
REMARK   12  A    between atoms: C_21  and  CA_22
REMARK   13  A    between atoms: CA_22  and  N_23
REMARK   14  A    between atoms: CA_22  and  C_28
REMARK   15  A    between atoms: C_28  and  O_29
REMARK                            x       y       z     vdW  Elec       q    Type
REMARK                         _______ _______ _______ _____ _____    ______ ____
ROOT
ATOM      1  O   UNL     1     -35.379  26.892   4.741  0.00  0.00    -0.275 OA
ATOM      2  N   UNL     1     -36.977  25.300   4.185  0.00  0.00    -0.298 N 
ATOM      3  C   UNL     1     -35.897  25.790   4.905  0.00  0.00    +0.223 C 
ATOM      4  H   UNL     1     -37.316  24.400   4.398  0.00  0.00    +0.150 HD
ENDROOT
BRANCH   2   5
ATOM      5  CA  UNL     1     -37.627  26.053   3.137  0.00  0.00    +0.159 C 
BRANCH   5   8
ATOM      6  O   UNL     1     -40.032  25.960   2.833  0.00  0.00    -0.273 OA
ATOM      7  N   UNL     1     -38.787  24.040   2.457  0.00  0.00    -0.294 N 
ATOM      8  C   ACE A   1     -38.952  25.377   2.792  0.00  0.00    +0.242 C 
ATOM      9  H   UNL     1     -37.877  23.662   2.451  0.00  0.00    +0.150 HD
BRANCH   7  10
ATOM     10  CA  UNL     1     -39.895  23.180   2.115  0.00  0.00    +0.200 C 
BRANCH  10  12
ATOM     11  OXT UNL     1     -38.376  21.383   1.609  0.00  0.00    -0.248 OA
ATOM     12  C   UNL     1     -39.493  21.735   1.965  0.00  0.00    +0.334 C 
BRANCH  12  13
ATOM     13  O   UNL     1     -40.487  20.865   2.260  0.00  0.00    -0.479 OA
ATOM     14  H   UNL     1     -40.961  20.445   1.571  0.00  0.00    +0.295 HD
ENDBRANCH  12  13
ENDBRANCH  10  12
ENDBRANCH   7  10
ENDBRANCH   5   8
BRANCH   5  15
ATOM     15  CB  UNL     1     -36.718  26.265   1.923  0.00  0.00    +0.086 C 
BRANCH  15  16
ATOM     16  SG  UNL     1     -36.970  27.864   1.086  0.00  0.00    -0.137 S 
BRANCH  16  17
ATOM     17  C   UNL     1     -35.489  28.703   1.687  0.00  0.00    +0.075 C 
BRANCH  17  19
ATOM     18 CL   UNL     1     -35.519  30.998   3.194  0.00  0.00    -0.113 Cl
ATOM     19  C   UNL     1     -35.601  30.219   1.594  0.00  0.00    +0.106 C 
ENDBRANCH  17  19
ENDBRANCH  16  17
ENDBRANCH  15  16
ENDBRANCH   5  15
ENDBRANCH   2   5
BRANCH   3  20
ATOM     20  C   UNL     1     -35.410  24.786   5.934  0.00  0.00    +0.083 C 
BRANCH  20  21
ATOM     21  C   UNL     1     -34.660  23.614   5.297  0.00  0.00    -0.001 C 
BRANCH  21  22
ATOM     22  CA  UNL     1     -35.480  22.319   5.283  0.00  0.00    +0.036 C 
BRANCH  22  23
ATOM     23  N   UNL     1     -34.778  21.287   6.050  0.00  0.00    +0.389 N 
ATOM     24  H1  UNL     1     -34.376  20.602   5.410  0.00  0.00    -0.088 HD
ATOM     25  H2  UNL     1     -35.437  20.822   6.675  0.00  0.00    -0.088 HD
ATOM     26  H3  UNL     1     -34.034  21.717   6.598  0.00  0.00    -0.088 HD
ENDBRANCH  22  23
BRANCH  22  28
ATOM     27  OXT UNL     1     -35.350  20.645   3.517  0.00  0.00    -0.253 OA
ATOM     28  C   UNL     1     -35.638  21.780   3.872  0.00  0.00    +0.293 C 
BRANCH  28  29
ATOM     29  O   UNL     1     -36.117  22.718   3.014  0.00  0.00    -0.482 OA
ATOM     30  H   UNL     1     -35.658  23.526   2.898  0.00  0.00    +0.295 HD
ENDBRANCH  28  29
ENDBRANCH  22  28
ENDBRANCH  21  22
ENDBRANCH  20  21
ENDBRANCH   3  20
TORSDOF 15
ENDMDL
MODEL 3
REMARK VINA RESULT:      -5.2      3.769      7.136
REMARK  Name = 21150981
REMARK  15 active torsions:
REMARK  status: ('A' for Active; 'I' for Inactive)
REMARK    1  A    between atoms: N_2  and  CA_5
REMARK    2  A    between atoms: C_3  and  C_20
REMARK    3  A    between atoms: CA_5  and  C_8
REMARK    4  A    between atoms: CA_5  and  CB_15
REMARK    5  A    between atoms: N_7  and  CA_10
REMARK    6  A    between atoms: CA_10  and  C_12
REMARK    7  A    between atoms: C_12  and  O_13
REMARK    8  A    between atoms: CB_15  and  SG_16
REMARK    9  A    between atoms: SG_16  and  C_17
REMARK   10  A    between atoms: C_17  and  C_19
REMARK   11  A    between atoms: C_20  and  C_21
REMARK   12  A    between atoms: C_21  and  CA_22
REMARK   13  A    between atoms: CA_22  and  N_23
REMARK   14  A    between atoms: CA_22  and  C_28
REMARK   15  A    between atoms: C_28  and  O_29
REMARK                            x       y       z     vdW  Elec       q    Type
REMARK                         _______ _______ _______ _____ _____    ______ ____
ROOT
ATOM      1  O   UNL     1     -35.053  20.676   5.336  0.00  0.00    -0.275 OA
ATOM      2  N   UNL     1     -36.058  22.006   3.718  0.00  0.00    -0.298 N 
ATOM      3  C   UNL     1     -35.470  21.765   4.951  0.00  0.00    +0.223 C 
ATOM      4  H   UNL     1     -36.358  22.920   3.509  0.00  0.00    +0.150 HD
ENDROOT
BRANCH   2   5
ATOM      5  CA  UNL     1     -36.247  20.972   2.726  0.00  0.00    +0.159 C 
BRANCH   5   8
ATOM      6  O   UNL     1     -34.635  21.867   1.149  0.00  0.00    -0.273 OA
ATOM      7  N   UNL     1     -34.397  19.672   1.860  0.00  0.00    -0.294 N 
ATOM      8  C   ACE A   1     -35.012  20.916   1.829  0.00  0.00    +0.242 C 
ATOM      9  H   UNL     1     -34.775  18.972   2.441  0.00  0.00    +0.150 HD
BRANCH   7  10
ATOM     10  CA  UNL     1     -33.224  19.363   1.078  0.00  0.00    +0.200 C 
BRANCH  10  12
ATOM     11  OXT UNL     1     -31.766  17.503   1.535  0.00  0.00    -0.248 OA
ATOM     12  C   UNL     1     -32.850  17.904   1.130  0.00  0.00    +0.334 C 
BRANCH  12  13
ATOM     13  O   UNL     1     -33.827  17.080   0.685  0.00  0.00    -0.479 OA
ATOM     14  H   UNL     1     -34.434  17.379   0.038  0.00  0.00    +0.295 HD
ENDBRANCH  12  13
ENDBRANCH  10  12
ENDBRANCH   7  10
ENDBRANCH   5   8
BRANCH   5  15
ATOM     15  CB  UNL     1     -37.555  21.144   1.949  0.00  0.00    +0.086 C 
BRANCH  15  16
ATOM     16  SG  UNL     1     -38.345  22.768   2.189  0.00  0.00    -0.137 S 
BRANCH  16  17
ATOM     17  C   UNL     1     -38.008  23.460   0.555  0.00  0.00    +0.075 C 
BRANCH  17  19
ATOM     18 CL   UNL     1     -35.976  24.989   1.590  0.00  0.00    -0.113 Cl
ATOM     19  C   UNL     1     -37.470  24.883   0.626  0.00  0.00    +0.106 C 
ENDBRANCH  17  19
ENDBRANCH  16  17
ENDBRANCH  15  16
ENDBRANCH   5  15
ENDBRANCH   2   5
BRANCH   3  20
ATOM     20  C   UNL     1     -35.408  23.026   5.795  0.00  0.00    +0.083 C 
BRANCH  20  21
ATOM     21  C   UNL     1     -35.848  24.270   5.019  0.00  0.00    -0.001 C 
BRANCH  21  22
ATOM     22  CA  UNL     1     -35.402  25.576   5.686  0.00  0.00    +0.036 C 
BRANCH  22  23
ATOM     23  N   UNL     1     -36.421  26.606   5.475  0.00  0.00    +0.389 N 
ATOM     24  H1  UNL     1     -36.621  26.688   4.478  0.00  0.00    -0.088 HD
ATOM     25  H2  UNL     1     -36.080  27.501   5.827  0.00  0.00    -0.088 HD
ATOM     26  H3  UNL     1     -37.275  26.348   5.972  0.00  0.00    -0.088 HD
ENDBRANCH  22  23
BRANCH  22  28
ATOM     27  OXT UNL     1     -33.753  27.270   5.095  0.00  0.00    -0.253 OA
ATOM     28  C   UNL     1     -34.118  26.102   5.069  0.00  0.00    +0.293 C 
BRANCH  28  29
ATOM     29  O   UNL     1     -33.410  25.125   4.445  0.00  0.00    -0.482 OA
ATOM     30  H   UNL     1     -33.682  24.813   3.604  0.00  0.00    +0.295 HD
ENDBRANCH  28  29
ENDBRANCH  22  28
ENDBRANCH  21  22
ENDBRANCH  20  21
ENDBRANCH   3  20
TORSDOF 15
ENDMDL
MODEL 4
REMARK VINA RESULT:      -5.1      3.879      6.062
REMARK  Name = 21150981
REMARK  15 active torsions:
REMARK  status: ('A' for Active; 'I' for Inactive)
REMARK    1  A    between atoms: N_2  and  CA_5
REMARK    2  A    between atoms: C_3  and  C_20
REMARK    3  A    between atoms: CA_5  and  C_8
REMARK    4  A    between atoms: CA_5  and  CB_15
REMARK    5  A    between atoms: N_7  and  CA_10
REMARK    6  A    between atoms: CA_10  and  C_12
REMARK    7  A    between atoms: C_12  and  O_13
REMARK    8  A    between atoms: CB_15  and  SG_16
REMARK    9  A    between atoms: SG_16  and  C_17
REMARK   10  A    between atoms: C_17  and  C_19
REMARK   11  A    between atoms: C_20  and  C_21
REMARK   12  A    between atoms: C_21  and  CA_22
REMARK   13  A    between atoms: CA_22  and  N_23
REMARK   14  A    between atoms: CA_22  and  C_28
REMARK   15  A    between atoms: C_28  and  O_29
REMARK                            x       y       z     vdW  Elec       q    Type
REMARK                         _______ _______ _______ _____ _____    ______ ____
ROOT
ATOM      1  O   UNL     1     -34.835  22.736   2.689  0.00  0.00    -0.275 OA
ATOM      2  N   UNL     1     -36.998  22.282   3.402  0.00  0.00    -0.298 N 
ATOM      3  C   UNL     1     -35.657  22.581   3.589  0.00  0.00    +0.223 C 
ATOM      4  H   UNL     1     -37.573  22.179   4.195  0.00  0.00    +0.150 HD
ENDROOT
BRANCH   2   5
ATOM      5  CA  UNL     1     -37.590  22.118   2.094  0.00  0.00    +0.159 C 
BRANCH   5   8
ATOM      6  O   UNL     1     -39.992  21.850   2.300  0.00  0.00    -0.273 OA
ATOM      7  N   UNL     1     -39.134  23.978   1.959  0.00  0.00    -0.294 N 
ATOM      8  C   ACE A   1     -39.037  22.605   2.141  0.00  0.00    +0.242 C 
ATOM      9  H   UNL     1     -38.307  24.499   1.840  0.00  0.00    +0.150 HD
BRANCH   7  10
ATOM     10  CA  UNL     1     -40.399  24.673   1.938  0.00  0.00    +0.200 C 
BRANCH  10  12
ATOM     11  OXT UNL     1     -40.794  26.846   2.897  0.00  0.00    -0.248 OA
ATOM     12  C   UNL     1     -40.547  25.658   3.069  0.00  0.00    +0.334 C 
BRANCH  12  13
ATOM     13  O   UNL     1     -40.378  25.105   4.293  0.00  0.00    -0.479 OA
ATOM     14  H   UNL     1     -40.871  25.423   5.023  0.00  0.00    +0.295 HD
ENDBRANCH  12  13
ENDBRANCH  10  12
ENDBRANCH   7  10
ENDBRANCH   5   8
BRANCH   5  15
ATOM     15  CB  UNL     1     -37.447  20.689   1.566  0.00  0.00    +0.086 C 
BRANCH  15  16
ATOM     16  SG  UNL     1     -36.615  20.582  -0.052  0.00  0.00    -0.137 S 
BRANCH  16  17
ATOM     17  C   UNL     1     -35.449  19.262   0.346  0.00  0.00    +0.075 C 
BRANCH  17  19
ATOM     18 CL   UNL     1     -33.111  18.462   1.540  0.00  0.00    -0.113 Cl
ATOM     19  C   UNL     1     -34.321  19.736   1.251  0.00  0.00    +0.106 C 
ENDBRANCH  17  19
ENDBRANCH  16  17
ENDBRANCH  15  16
ENDBRANCH   5  15
ENDBRANCH   2   5
BRANCH   3  20
ATOM     20  C   UNL     1     -35.308  22.687   5.063  0.00  0.00    +0.083 C 
BRANCH  20  21
ATOM     21  C   UNL     1     -35.686  24.047   5.656  0.00  0.00    -0.001 C 
BRANCH  21  22
ATOM     22  CA  UNL     1     -35.311  25.219   4.742  0.00  0.00    +0.036 C 
BRANCH  22  23
ATOM     23  N   UNL     1     -34.806  26.329   5.554  0.00  0.00    +0.389 N 
ATOM     24  H1  UNL     1     -35.590  26.829   5.973  0.00  0.00    -0.088 HD
ATOM     25  H2  UNL     1     -34.273  26.967   4.963  0.00  0.00    -0.088 HD
ATOM     26  H3  UNL     1     -34.203  25.964   6.292  0.00  0.00    -0.088 HD
ENDBRANCH  22  23
BRANCH  22  28
ATOM     27  OXT UNL     1     -36.483  26.554   3.075  0.00  0.00    -0.253 OA
ATOM     28  C   UNL     1     -36.522  25.745   3.992  0.00  0.00    +0.293 C 
BRANCH  28  29
ATOM     29  O   UNL     1     -37.685  25.235   4.473  0.00  0.00    -0.482 OA
ATOM     30  H   UNL     1     -37.686  24.734   5.264  0.00  0.00    +0.295 HD
ENDBRANCH  28  29
ENDBRANCH  22  28
ENDBRANCH  21  22
ENDBRANCH  20  21
ENDBRANCH   3  20
TORSDOF 15
ENDMDL
MODEL 5
REMARK VINA RESULT:      -5.0      3.259      5.266
REMARK  Name = 21150981
REMARK  15 active torsions:
REMARK  status: ('A' for Active; 'I' for Inactive)
REMARK    1  A    between atoms: N_2  and  CA_5
REMARK    2  A    between atoms: C_3  and  C_20
REMARK    3  A    between atoms: CA_5  and  C_8
REMARK    4  A    between atoms: CA_5  and  CB_15
REMARK    5  A    between atoms: N_7  and  CA_10
REMARK    6  A    between atoms: CA_10  and  C_12
REMARK    7  A    between atoms: C_12  and  O_13
REMARK    8  A    between atoms: CB_15  and  SG_16
REMARK    9  A    between atoms: SG_16  and  C_17
REMARK   10  A    between atoms: C_17  and  C_19
REMARK   11  A    between atoms: C_20  and  C_21
REMARK   12  A    between atoms: C_21  and  CA_22
REMARK   13  A    between atoms: CA_22  and  N_23
REMARK   14  A    between atoms: CA_22  and  C_28
REMARK   15  A    between atoms: C_28  and  O_29
REMARK                            x       y       z     vdW  Elec       q    Type
REMARK                         _______ _______ _______ _____ _____    ______ ____
ROOT
ATOM      1  O   UNL     1     -32.982  25.244   4.029  0.00  0.00    -0.275 OA
ATOM      2  N   UNL     1     -34.464  27.007   4.331  0.00  0.00    -0.298 N 
ATOM      3  C   UNL     1     -33.954  25.743   4.590  0.00  0.00    +0.223 C 
ATOM      4  H   UNL     1     -35.249  27.312   4.840  0.00  0.00    +0.150 HD
ENDROOT
BRANCH   2   5
ATOM      5  CA  UNL     1     -33.890  27.896   3.347  0.00  0.00    +0.159 C 
BRANCH   5   8
ATOM      6  O   UNL     1     -33.095  29.948   4.369  0.00  0.00    -0.273 OA
ATOM      7  N   UNL     1     -31.637  28.152   4.196  0.00  0.00    -0.294 N 
ATOM      8  C   ACE A   1     -32.859  28.791   4.031  0.00  0.00    +0.242 C 
ATOM      9  H   UNL     1     -31.547  27.219   3.892  0.00  0.00    +0.150 HD
BRANCH   7  10
ATOM     10  CA  UNL     1     -30.495  28.798   4.795  0.00  0.00    +0.200 C 
BRANCH  10  12
ATOM     11  OXT UNL     1     -30.753  29.588   7.054  0.00  0.00    -0.248 OA
ATOM     12  C   UNL     1     -30.467  28.669   6.296  0.00  0.00    +0.334 C 
BRANCH  12  13
ATOM     13  O   UNL     1     -30.094  27.442   6.726  0.00  0.00    -0.479 OA
ATOM     14  H   UNL     1     -29.489  27.357   7.436  0.00  0.00    +0.295 HD
ENDBRANCH  12  13
ENDBRANCH  10  12
ENDBRANCH   7  10
ENDBRANCH   5   8
BRANCH   5  15
ATOM     15  CB  UNL     1     -34.957  28.678   2.577  0.00  0.00    +0.086 C 
BRANCH  15  16
ATOM     16  SG  UNL     1     -35.168  28.132   0.851  0.00  0.00    -0.137 S 
BRANCH  16  17
ATOM     17  C   UNL     1     -34.049  26.715   0.893  0.00  0.00    +0.075 C 
BRANCH  17  19
ATOM     18 CL   UNL     1     -36.464  25.564   1.509  0.00  0.00    -0.113 Cl
ATOM     19  C   UNL     1     -34.793  25.387   0.918  0.00  0.00    +0.106 C 
ENDBRANCH  17  19
ENDBRANCH  16  17
ENDBRANCH  15  16
ENDBRANCH   5  15
ENDBRANCH   2   5
BRANCH   3  20
ATOM     20  C   UNL     1     -34.756  25.027   5.662  0.00  0.00    +0.083 C 
BRANCH  20  21
ATOM     21  C   UNL     1     -36.017  24.363   5.103  0.00  0.00    -0.001 C 
BRANCH  21  22
ATOM     22  CA  UNL     1     -35.751  22.962   4.540  0.00  0.00    +0.036 C 
BRANCH  22  23
ATOM     23  N   UNL     1     -36.883  22.547   3.708  0.00  0.00    +0.389 N 
ATOM     24  H1  UNL     1     -37.208  21.629   4.009  0.00  0.00    -0.088 HD
ATOM     25  H2  UNL     1     -36.588  22.499   2.732  0.00  0.00    -0.088 HD
ATOM     26  H3  UNL     1     -37.641  23.223   3.802  0.00  0.00    -0.088 HD
ENDBRANCH  22  23
BRANCH  22  28
ATOM     27  OXT UNL     1     -35.980  22.108   6.811  0.00  0.00    -0.253 OA
ATOM     28  C   UNL     1     -35.629  21.935   5.651  0.00  0.00    +0.293 C 
BRANCH  28  29
ATOM     29  O   UNL     1     -35.052  20.782   5.224  0.00  0.00    -0.482 OA
ATOM     30  H   UNL     1     -35.271  19.968   5.633  0.00  0.00    +0.295 HD
ENDBRANCH  28  29
ENDBRANCH  22  28
ENDBRANCH  21  22
ENDBRANCH  20  21
ENDBRANCH   3  20
TORSDOF 15
ENDMDL
MODEL 6
REMARK VINA RESULT:      -4.9      3.634      6.069
REMARK  Name = 21150981
REMARK  15 active torsions:
REMARK  status: ('A' for Active; 'I' for Inactive)
REMARK    1  A    between atoms: N_2  and  CA_5
REMARK    2  A    between atoms: C_3  and  C_20
REMARK    3  A    between atoms: CA_5  and  C_8
REMARK    4  A    between atoms: CA_5  and  CB_15
REMARK    5  A    between atoms: N_7  and  CA_10
REMARK    6  A    between atoms: CA_10  and  C_12
REMARK    7  A    between atoms: C_12  and  O_13
REMARK    8  A    between atoms: CB_15  and  SG_16
REMARK    9  A    between atoms: SG_16  and  C_17
REMARK   10  A    between atoms: C_17  and  C_19
REMARK   11  A    between atoms: C_20  and  C_21
REMARK   12  A    between atoms: C_21  and  CA_22
REMARK   13  A    between atoms: CA_22  and  N_23
REMARK   14  A    between atoms: CA_22  and  C_28
REMARK   15  A    between atoms: C_28  and  O_29
REMARK                            x       y       z     vdW  Elec       q    Type
REMARK                         _______ _______ _______ _____ _____    ______ ____
ROOT
ATOM      1  O   UNL     1     -32.992  25.503   3.942  0.00  0.00    -0.275 OA
ATOM      2  N   UNL     1     -33.583  27.618   4.700  0.00  0.00    -0.298 N 
ATOM      3  C   UNL     1     -33.800  26.269   4.461  0.00  0.00    +0.223 C 
ATOM      4  H   UNL     1     -34.300  28.143   5.123  0.00  0.00    +0.150 HD
ENDROOT
BRANCH   2   5
ATOM      5  CA  UNL     1     -32.349  28.286   4.354  0.00  0.00    +0.159 C 
BRANCH   5   8
ATOM      6  O   UNL     1     -32.209  28.828   6.715  0.00  0.00    -0.273 OA
ATOM      7  N   UNL     1     -30.275  28.913   5.436  0.00  0.00    -0.294 N 
ATOM      8  C   ACE A   1     -31.631  28.693   5.639  0.00  0.00    +0.242 C 
ATOM      9  H   UNL     1     -29.904  28.777   4.534  0.00  0.00    +0.150 HD
BRANCH   7  10
ATOM     10  CA  UNL     1     -29.387  29.331   6.494  0.00  0.00    +0.200 C 
BRANCH  10  12
ATOM     11  OXT UNL     1     -28.571  27.069   6.608  0.00  0.00    -0.248 OA
ATOM     12  C   UNL     1     -28.627  28.185   7.111  0.00  0.00    +0.334 C 
BRANCH  12  13
ATOM     13  O   UNL     1     -28.015  28.507   8.274  0.00  0.00    -0.479 OA
ATOM     14  H   UNL     1     -28.396  29.144   8.844  0.00  0.00    +0.295 HD
ENDBRANCH  12  13
ENDBRANCH  10  12
ENDBRANCH   7  10
ENDBRANCH   5   8
BRANCH   5  15
ATOM     15  CB  UNL     1     -32.568  29.450   3.386  0.00  0.00    +0.086 C 
BRANCH  15  16
ATOM     16  SG  UNL     1     -34.185  29.413   2.545  0.00  0.00    -0.137 S 
BRANCH  16  17
ATOM     17  C   UNL     1     -34.781  31.037   3.064  0.00  0.00    +0.075 C 
BRANCH  17  19
ATOM     18 CL   UNL     1     -33.439  33.310   2.311  0.00  0.00    -0.113 Cl
ATOM     19  C   UNL     1     -34.674  32.076   1.957  0.00  0.00    +0.106 C 
ENDBRANCH  17  19
ENDBRANCH  16  17
ENDBRANCH  15  16
ENDBRANCH   5  15
ENDBRANCH   2   5
BRANCH   3  20
ATOM     20  C   UNL     1     -35.183  25.837   4.915  0.00  0.00    +0.083 C 
BRANCH  20  21
ATOM     21  C   UNL     1     -35.168  24.483   5.628  0.00  0.00    -0.001 C 
BRANCH  21  22
ATOM     22  CA  UNL     1     -35.549  23.320   4.705  0.00  0.00    +0.036 C 
BRANCH  22  23
ATOM     23  N   UNL     1     -36.875  23.565   4.133  0.00  0.00    +0.389 N 
ATOM     24  H1  UNL     1     -37.109  24.553   4.226  0.00  0.00    -0.088 HD
ATOM     25  H2  UNL     1     -37.568  23.005   4.629  0.00  0.00    -0.088 HD
ATOM     26  H3  UNL     1     -36.873  23.308   3.146  0.00  0.00    -0.088 HD
ENDBRANCH  22  23
BRANCH  22  28
ATOM     27  OXT UNL     1     -35.940  21.911   6.654  0.00  0.00    -0.253 OA
ATOM     28  C   UNL     1     -35.641  22.013   5.472  0.00  0.00    +0.293 C 
BRANCH  28  29
ATOM     29  O   UNL     1     -35.322  20.942   4.701  0.00  0.00    -0.482 OA
ATOM     30  H   UNL     1     -35.030  20.146   5.101  0.00  0.00    +0.295 HD
ENDBRANCH  28  29
ENDBRANCH  22  28
ENDBRANCH  21  22
ENDBRANCH  20  21
ENDBRANCH   3  20
TORSDOF 15
ENDMDL
MODEL 7
REMARK VINA RESULT:      -4.9      3.795      5.807
REMARK  Name = 21150981
REMARK  15 active torsions:
REMARK  status: ('A' for Active; 'I' for Inactive)
REMARK    1  A    between atoms: N_2  and  CA_5
REMARK    2  A    between atoms: C_3  and  C_20
REMARK    3  A    between atoms: CA_5  and  C_8
REMARK    4  A    between atoms: CA_5  and  CB_15
REMARK    5  A    between atoms: N_7  and  CA_10
REMARK    6  A    between atoms: CA_10  and  C_12
REMARK    7  A    between atoms: C_12  and  O_13
REMARK    8  A    between atoms: CB_15  and  SG_16
REMARK    9  A    between atoms: SG_16  and  C_17
REMARK   10  A    between atoms: C_17  and  C_19
REMARK   11  A    between atoms: C_20  and  C_21
REMARK   12  A    between atoms: C_21  and  CA_22
REMARK   13  A    between atoms: CA_22  and  N_23
REMARK   14  A    between atoms: CA_22  and  C_28
REMARK   15  A    between atoms: C_28  and  O_29
REMARK                            x       y       z     vdW  Elec       q    Type
REMARK                         _______ _______ _______ _____ _____    ______ ____
ROOT
ATOM      1  O   UNL     1     -34.136  24.264   0.482  0.00  0.00    -0.275 OA
ATOM      2  N   UNL     1     -35.149  23.601   2.464  0.00  0.00    -0.298 N 
ATOM      3  C   UNL     1     -34.308  24.388   1.691  0.00  0.00    +0.223 C 
ATOM      4  H   UNL     1     -35.214  23.787   3.429  0.00  0.00    +0.150 HD
ENDROOT
BRANCH   2   5
ATOM      5  CA  UNL     1     -35.935  22.521   1.914  0.00  0.00    +0.159 C 
BRANCH   5   8
ATOM      6  O   UNL     1     -38.227  21.819   2.292  0.00  0.00    -0.273 OA
ATOM      7  N   UNL     1     -37.671  24.044   2.644  0.00  0.00    -0.294 N 
ATOM      8  C   ACE A   1     -37.398  22.725   2.305  0.00  0.00    +0.242 C 
ATOM      9  H   UNL     1     -36.935  24.699   2.625  0.00  0.00    +0.150 HD
BRANCH   7  10
ATOM     10  CA  UNL     1     -38.988  24.493   3.026  0.00  0.00    +0.200 C 
BRANCH  10  12
ATOM     11  OXT UNL     1     -40.256  26.536   2.915  0.00  0.00    -0.248 OA
ATOM     12  C   UNL     1     -39.163  25.983   2.890  0.00  0.00    +0.334 C 
BRANCH  12  13
ATOM     13  O   UNL     1     -37.997  26.652   2.734  0.00  0.00    -0.479 OA
ATOM     14  H   UNL     1     -37.907  27.522   3.070  0.00  0.00    +0.295 HD
ENDBRANCH  12  13
ENDBRANCH  10  12
ENDBRANCH   7  10
ENDBRANCH   5   8
BRANCH   5  15
ATOM     15  CB  UNL     1     -35.389  21.145   2.304  0.00  0.00    +0.086 C 
BRANCH  15  16
ATOM     16  SG  UNL     1     -35.393  19.938   0.939  0.00  0.00    -0.137 S 
BRANCH  16  17
ATOM     17  C   UNL     1     -33.926  20.532   0.068  0.00  0.00    +0.075 C 
BRANCH  17  19
ATOM     18 CL   UNL     1     -32.956  18.409   1.513  0.00  0.00    -0.113 Cl
ATOM     19  C   UNL     1     -32.644  19.903   0.594  0.00  0.00    +0.106 C 
ENDBRANCH  17  19
ENDBRANCH  16  17
ENDBRANCH  15  16
ENDBRANCH   5  15
ENDBRANCH   2   5
BRANCH   3  20
ATOM     20  C   UNL     1     -33.600  25.439   2.530  0.00  0.00    +0.083 C 
BRANCH  20  21
ATOM     21  C   UNL     1     -33.675  25.136   4.028  0.00  0.00    -0.001 C 
BRANCH  21  22
ATOM     22  CA  UNL     1     -34.484  26.180   4.806  0.00  0.00    +0.036 C 
BRANCH  22  23
ATOM     23  N   UNL     1     -33.797  26.497   6.060  0.00  0.00    +0.389 N 
ATOM     24  H1  UNL     1     -33.810  25.681   6.671  0.00  0.00    -0.088 HD
ATOM     25  H2  UNL     1     -34.271  27.274   6.521  0.00  0.00    -0.088 HD
ATOM     26  H3  UNL     1     -32.830  26.757   5.863  0.00  0.00    -0.088 HD
ENDBRANCH  22  23
BRANCH  22  28
ATOM     27  OXT UNL     1     -36.158  24.462   5.239  0.00  0.00    -0.253 OA
ATOM     28  C   UNL     1     -35.854  25.647   5.184  0.00  0.00    +0.293 C 
BRANCH  28  29
ATOM     29  O   UNL     1     -36.742  26.644   5.437  0.00  0.00    -0.482 OA
ATOM     30  H   UNL     1     -37.661  26.489   5.339  0.00  0.00    +0.295 HD
ENDBRANCH  28  29
ENDBRANCH  22  28
ENDBRANCH  21  22
ENDBRANCH  20  21
ENDBRANCH   3  20
TORSDOF 15
ENDMDL
MODEL 8
REMARK VINA RESULT:      -4.9      4.555      6.624
REMARK  Name = 21150981
REMARK  15 active torsions:
REMARK  status: ('A' for Active; 'I' for Inactive)
REMARK    1  A    between atoms: N_2  and  CA_5
REMARK    2  A    between atoms: C_3  and  C_20
REMARK    3  A    between atoms: CA_5  and  C_8
REMARK    4  A    between atoms: CA_5  and  CB_15
REMARK    5  A    between atoms: N_7  and  CA_10
REMARK    6  A    between atoms: CA_10  and  C_12
REMARK    7  A    between atoms: C_12  and  O_13
REMARK    8  A    between atoms: CB_15  and  SG_16
REMARK    9  A    between atoms: SG_16  and  C_17
REMARK   10  A    between atoms: C_17  and  C_19
REMARK   11  A    between atoms: C_20  and  C_21
REMARK   12  A    between atoms: C_21  and  CA_22
REMARK   13  A    between atoms: CA_22  and  N_23
REMARK   14  A    between atoms: CA_22  and  C_28
REMARK   15  A    between atoms: C_28  and  O_29
REMARK                            x       y       z     vdW  Elec       q    Type
REMARK                         _______ _______ _______ _____ _____    ______ ____
ROOT
ATOM      1  O   UNL     1     -38.057  23.823  -0.814  0.00  0.00    -0.275 OA
ATOM      2  N   UNL     1     -37.831  22.677   1.194  0.00  0.00    -0.298 N 
ATOM      3  C   UNL     1     -37.760  22.810  -0.185  0.00  0.00    +0.223 C 
ATOM      4  H   UNL     1     -37.567  21.819   1.598  0.00  0.00    +0.150 HD
ENDROOT
BRANCH   2   5
ATOM      5  CA  UNL     1     -38.273  23.744   2.062  0.00  0.00    +0.159 C 
BRANCH   5   8
ATOM      6  O   UNL     1     -37.607  24.461   4.282  0.00  0.00    -0.273 OA
ATOM      7  N   UNL     1     -36.178  23.084   3.082  0.00  0.00    -0.294 N 
ATOM      8  C   ACE A   1     -37.344  23.812   3.273  0.00  0.00    +0.242 C 
ATOM      9  H   UNL     1     -36.060  22.594   2.235  0.00  0.00    +0.150 HD
BRANCH   7  10
ATOM     10  CA  UNL     1     -35.132  23.014   4.073  0.00  0.00    +0.200 C 
BRANCH  10  12
ATOM     11  OXT UNL     1     -35.072  20.810   5.040  0.00  0.00    -0.248 OA
ATOM     12  C   UNL     1     -35.402  21.985   5.141  0.00  0.00    +0.334 C 
BRANCH  12  13
ATOM     13  O   UNL     1     -36.047  22.484   6.221  0.00  0.00    -0.479 OA
ATOM     14  H   UNL     1     -36.846  22.960   6.112  0.00  0.00    +0.295 HD
ENDBRANCH  12  13
ENDBRANCH  10  12
ENDBRANCH   7  10
ENDBRANCH   5   8
BRANCH   5  15
ATOM     15  CB  UNL     1     -39.751  23.614   2.437  0.00  0.00    +0.086 C 
BRANCH  15  16
ATOM     16  SG  UNL     1     -40.861  24.640   1.418  0.00  0.00    -0.137 S 
BRANCH  16  17
ATOM     17  C   UNL     1     -40.788  26.152   2.404  0.00  0.00    +0.075 C 
BRANCH  17  19
ATOM     18 CL   UNL     1     -42.216  27.771   4.099  0.00  0.00    -0.113 Cl
ATOM     19  C   UNL     1     -42.163  26.766   2.630  0.00  0.00    +0.106 C 
ENDBRANCH  17  19
ENDBRANCH  16  17
ENDBRANCH  15  16
ENDBRANCH   5  15
ENDBRANCH   2   5
BRANCH   3  20
ATOM     20  C   UNL     1     -37.272  21.533  -0.845  0.00  0.00    +0.083 C 
BRANCH  20  21
ATOM     21  C   UNL     1     -37.716  20.279  -0.089  0.00  0.00    -0.001 C 
BRANCH  21  22
ATOM     22  CA  UNL     1     -36.539  19.408   0.363  0.00  0.00    +0.036 C 
BRANCH  22  23
ATOM     23  N   UNL     1     -37.016  18.055   0.660  0.00  0.00    +0.389 N 
ATOM     24  H1  UNL     1     -36.976  17.894   1.667  0.00  0.00    -0.088 HD
ATOM     25  H2  UNL     1     -36.427  17.373   0.183  0.00  0.00    -0.088 HD
ATOM     26  H3  UNL     1     -37.980  17.956   0.340  0.00  0.00    -0.088 HD
ENDBRANCH  22  23
BRANCH  22  28
ATOM     27  OXT UNL     1     -34.760  20.327   1.752  0.00  0.00    -0.253 OA
ATOM     28  C   UNL     1     -35.916  19.940   1.641  0.00  0.00    +0.293 C 
BRANCH  28  29
ATOM     29  O   UNL     1     -36.785  19.918   2.684  0.00  0.00    -0.482 OA
ATOM     30  H   UNL     1     -37.701  20.046   2.534  0.00  0.00    +0.295 HD
ENDBRANCH  28  29
ENDBRANCH  22  28
ENDBRANCH  21  22
ENDBRANCH  20  21
ENDBRANCH   3  20
TORSDOF 15
ENDMDL
MODEL 9
REMARK VINA RESULT:      -4.9      3.630      4.915
REMARK  Name = 21150981
REMARK  15 active torsions:
REMARK  status: ('A' for Active; 'I' for Inactive)
REMARK    1  A    between atoms: N_2  and  CA_5
REMARK    2  A    between atoms: C_3  and  C_20
REMARK    3  A    between atoms: CA_5  and  C_8
REMARK    4  A    between atoms: CA_5  and  CB_15
REMARK    5  A    between atoms: N_7  and  CA_10
REMARK    6  A    between atoms: CA_10  and  C_12
REMARK    7  A    between atoms: C_12  and  O_13
REMARK    8  A    between atoms: CB_15  and  SG_16
REMARK    9  A    between atoms: SG_16  and  C_17
REMARK   10  A    between atoms: C_17  and  C_19
REMARK   11  A    between atoms: C_20  and  C_21
REMARK   12  A    between atoms: C_21  and  CA_22
REMARK   13  A    between atoms: CA_22  and  N_23
REMARK   14  A    between atoms: CA_22  and  C_28
REMARK   15  A    between atoms: C_28  and  O_29
REMARK                            x       y       z     vdW  Elec       q    Type
REMARK                         _______ _______ _______ _____ _____    ______ ____
ROOT
ATOM      1  O   UNL     1     -35.539  26.940   4.364  0.00  0.00    -0.275 OA
ATOM      2  N   UNL     1     -37.112  25.240   4.199  0.00  0.00    -0.298 N 
ATOM      3  C   UNL     1     -35.983  25.853   4.722  0.00  0.00    +0.223 C 
ATOM      4  H   UNL     1     -37.383  24.365   4.559  0.00  0.00    +0.150 HD
ENDROOT
BRANCH   2   5
ATOM      5  CA  UNL     1     -37.909  25.832   3.148  0.00  0.00    +0.159 C 
BRANCH   5   8
ATOM      6  O   UNL     1     -39.738  24.246   3.315  0.00  0.00    -0.273 OA
ATOM      7  N   UNL     1     -40.204  26.510   3.518  0.00  0.00    -0.294 N 
ATOM      8  C   ACE A   1     -39.367  25.417   3.340  0.00  0.00    +0.242 C 
ATOM      9  H   UNL     1     -39.809  27.412   3.524  0.00  0.00    +0.150 HD
BRANCH   7  10
ATOM     10  CA  UNL     1     -41.630  26.377   3.695  0.00  0.00    +0.200 C 
BRANCH  10  12
ATOM     11  OXT UNL     1     -41.892  28.603   4.574  0.00  0.00    -0.248 OA
ATOM     12  C   UNL     1     -42.327  27.703   3.866  0.00  0.00    +0.334 C 
BRANCH  12  13
ATOM     13  O   UNL     1     -43.480  27.802   3.164  0.00  0.00    -0.479 OA
ATOM     14  H   UNL     1     -44.154  27.163   3.278  0.00  0.00    +0.295 HD
ENDBRANCH  12  13
ENDBRANCH  10  12
ENDBRANCH   7  10
ENDBRANCH   5   8
BRANCH   5  15
ATOM     15  CB  UNL     1     -37.365  25.512   1.754  0.00  0.00    +0.086 C 
BRANCH  15  16
ATOM     16  SG  UNL     1     -38.438  26.084   0.397  0.00  0.00    -0.137 S 
BRANCH  16  17
ATOM     17  C   UNL     1     -38.997  24.469  -0.187  0.00  0.00    +0.075 C 
BRANCH  17  19
ATOM     18 CL   UNL     1     -37.698  22.244  -1.133  0.00  0.00    -0.113 Cl
ATOM     19  C   UNL     1     -38.054  23.345   0.221  0.00  0.00    +0.106 C 
ENDBRANCH  17  19
ENDBRANCH  16  17
ENDBRANCH  15  16
ENDBRANCH   5  15
ENDBRANCH   2   5
BRANCH   3  20
ATOM     20  C   UNL     1     -35.339  25.004   5.804  0.00  0.00    +0.083 C 
BRANCH  20  21
ATOM     21  C   UNL     1     -34.664  23.752   5.239  0.00  0.00    -0.001 C 
BRANCH  21  22
ATOM     22  CA  UNL     1     -35.464  22.472   5.510  0.00  0.00    +0.036 C 
BRANCH  22  23
ATOM     23  N   UNL     1     -34.608  21.495   6.188  0.00  0.00    +0.389 N 
ATOM     24  H1  UNL     1     -34.850  21.460   7.178  0.00  0.00    -0.088 HD
ATOM     25  H2  UNL     1     -33.631  21.771   6.088  0.00  0.00    -0.088 HD
ATOM     26  H3  UNL     1     -34.746  20.574   5.772  0.00  0.00    -0.088 HD
ENDBRANCH  22  23
BRANCH  22  28
ATOM     27  OXT UNL     1     -35.374  20.875   3.672  0.00  0.00    -0.253 OA
ATOM     28  C   UNL     1     -35.923  21.823   4.216  0.00  0.00    +0.293 C 
BRANCH  28  29
ATOM     29  O   UNL     1     -37.018  22.435   3.696  0.00  0.00    -0.482 OA
ATOM     30  H   UNL     1     -37.659  21.933   3.232  0.00  0.00    +0.295 HD
ENDBRANCH  28  29
ENDBRANCH  22  28
ENDBRANCH  21  22
ENDBRANCH  20  21
ENDBRANCH   3  20
TORSDOF 15
ENDMDL
