MODEL 1
REMARK VINA RESULT:      -7.1      0.000      0.000
REMARK  Name = 5281292
REMARK  5 active torsions:
REMARK  status: ('A' for Active; 'I' for Inactive)
REMARK    1  A    between atoms: C_7  and  O_22
REMARK    2  A    between atoms: C_9  and  C_12
REMARK    3  A    between atoms: C_10  and  O_24
REMARK    4  A    between atoms: C_15  and  O_18
REMARK    5  A    between atoms: C_17  and  O_20
REMARK                            x       y       z     vdW  Elec       q    Type
REMARK                         _______ _______ _______ _____ _____    ______ ____
ROOT
ATOM      1  O   UNL     1     -33.379  26.420   4.860  0.00  0.00    -0.447 OA
ATOM      2  O   UNL     1     -34.624  28.080   1.992  0.00  0.00    -0.283 OA
ATOM      3  C   UNL     1     -33.118  28.465   3.818  0.00  0.00    +0.080 C 
ATOM      4  C   UNL     1     -32.753  27.646   4.885  0.00  0.00    +0.185 C 
ATOM      5  C   UNL     1     -34.189  26.433   3.731  0.00  0.00    +0.184 C 
ATOM      6  C   UNL     1     -34.073  27.721   3.006  0.00  0.00    +0.233 C 
ATOM      7  C   UNL     1     -31.853  28.072   5.837  0.00  0.00    +0.203 C 
ATOM      8  C   UNL     1     -32.607  29.735   3.650  0.00  0.00    +0.010 C 
ATOM      9  C   UNL     1     -34.966  25.420   3.346  0.00  0.00    +0.041 C 
ATOM     10  C   UNL     1     -31.319  29.357   5.691  0.00  0.00    +0.171 C 
ATOM     11  C   UNL     1     -31.693  30.180   4.609  0.00  0.00    +0.040 C 
ENDROOT
BRANCH   9  12
ATOM     12  C   UNL     1     -35.109  24.126   4.039  0.00  0.00    +0.006 C 
ATOM     13  C   UNL     1     -35.339  22.981   3.296  0.00  0.00    +0.040 C 
ATOM     14  C   UNL     1     -35.008  24.084   5.420  0.00  0.00    +0.003 C 
ATOM     15  C   UNL     1     -35.474  21.757   3.952  0.00  0.00    +0.167 C 
ATOM     16  C   UNL     1     -35.142  22.860   6.075  0.00  0.00    +0.040 C 
ATOM     17  C   UNL     1     -35.376  21.697   5.342  0.00  0.00    +0.167 C 
BRANCH  15  18
ATOM     18  O   UNL     1     -35.703  20.628   3.225  0.00  0.00    -0.503 OA
ATOM     19  H   UNL     1     -35.820  20.684   2.296  0.00  0.00    +0.292 HD
ENDBRANCH  15  18
BRANCH  17  20
ATOM     20  O   UNL     1     -35.503  20.507   5.994  0.00  0.00    -0.503 OA
ATOM     21  H   UNL     1     -36.251  20.348   6.536  0.00  0.00    +0.292 HD
ENDBRANCH  17  20
ENDBRANCH   9  12
BRANCH   7  22
ATOM     22  O   UNL     1     -31.498  27.274   6.875  0.00  0.00    -0.501 OA
ATOM     23  H   UNL     1     -31.818  26.395   6.921  0.00  0.00    +0.292 HD
ENDBRANCH   7  22
BRANCH  10  24
ATOM     24  O   UNL     1     -30.422  29.833   6.603  0.00  0.00    -0.503 OA
ATOM     25  H   UNL     1     -30.636  30.581   7.123  0.00  0.00    +0.292 HD
ENDBRANCH  10  24
TORSDOF 5
ENDMDL
MODEL 2
REMARK VINA RESULT:      -6.7      0.994      1.701
REMARK  Name = 5281292
REMARK  5 active torsions:
REMARK  status: ('A' for Active; 'I' for Inactive)
REMARK    1  A    between atoms: C_7  and  O_22
REMARK    2  A    between atoms: C_9  and  C_12
REMARK    3  A    between atoms: C_10  and  O_24
REMARK    4  A    between atoms: C_15  and  O_18
REMARK    5  A    between atoms: C_17  and  O_20
REMARK                            x       y       z     vdW  Elec       q    Type
REMARK                         _______ _______ _______ _____ _____    ______ ____
ROOT
ATOM      1  O   UNL     1     -33.321  26.662   4.635  0.00  0.00    -0.447 OA
ATOM      2  O   UNL     1     -33.861  28.977   2.012  0.00  0.00    -0.283 OA
ATOM      3  C   UNL     1     -32.778  28.853   4.148  0.00  0.00    +0.080 C 
ATOM      4  C   UNL     1     -32.679  27.803   5.059  0.00  0.00    +0.185 C 
ATOM      5  C   UNL     1     -33.865  26.973   3.395  0.00  0.00    +0.184 C 
ATOM      6  C   UNL     1     -33.555  28.372   3.013  0.00  0.00    +0.233 C 
ATOM      7  C   UNL     1     -31.995  27.950   6.246  0.00  0.00    +0.203 C 
ATOM      8  C   UNL     1     -32.205  30.087   4.374  0.00  0.00    +0.010 C 
ATOM      9  C   UNL     1     -34.570  26.126   2.643  0.00  0.00    +0.041 C 
ATOM     10  C   UNL     1     -31.404  29.192   6.501  0.00  0.00    +0.171 C 
ATOM     11  C   UNL     1     -31.508  30.250   5.575  0.00  0.00    +0.040 C 
ENDROOT
BRANCH   9  12
ATOM     12  C   UNL     1     -34.899  24.730   2.988  0.00  0.00    +0.006 C 
ATOM     13  C   UNL     1     -35.323  24.433   4.272  0.00  0.00    +0.040 C 
ATOM     14  C   UNL     1     -34.776  23.747   2.021  0.00  0.00    +0.003 C 
ATOM     15  C   UNL     1     -35.633  23.112   4.598  0.00  0.00    +0.167 C 
ATOM     16  C   UNL     1     -35.088  22.428   2.347  0.00  0.00    +0.040 C 
ATOM     17  C   UNL     1     -35.515  22.110   3.636  0.00  0.00    +0.167 C 
BRANCH  15  18
ATOM     18  O   UNL     1     -36.049  22.814   5.861  0.00  0.00    -0.503 OA
ATOM     19  H   UNL     1     -35.987  21.935   6.180  0.00  0.00    +0.292 HD
ENDBRANCH  15  18
BRANCH  17  20
ATOM     20  O   UNL     1     -35.818  20.817   3.942  0.00  0.00    -0.503 OA
ATOM     21  H   UNL     1     -36.436  20.345   3.419  0.00  0.00    +0.292 HD
ENDBRANCH  17  20
ENDBRANCH   9  12
BRANCH   7  22
ATOM     22  O   UNL     1     -31.899  26.927   7.132  0.00  0.00    -0.501 OA
ATOM     23  H   UNL     1     -32.637  26.369   7.285  0.00  0.00    +0.292 HD
ENDBRANCH   7  22
BRANCH  10  24
ATOM     24  O   UNL     1     -30.714  29.396   7.660  0.00  0.00    -0.503 OA
ATOM     25  H   UNL     1     -30.277  28.681   8.078  0.00  0.00    +0.292 HD
ENDBRANCH  10  24
TORSDOF 5
ENDMDL
MODEL 3
REMARK VINA RESULT:      -6.3      4.369      6.946
REMARK  Name = 5281292
REMARK  5 active torsions:
REMARK  status: ('A' for Active; 'I' for Inactive)
REMARK    1  A    between atoms: C_7  and  O_22
REMARK    2  A    between atoms: C_9  and  C_12
REMARK    3  A    between atoms: C_10  and  O_24
REMARK    4  A    between atoms: C_15  and  O_18
REMARK    5  A    between atoms: C_17  and  O_20
REMARK                            x       y       z     vdW  Elec       q    Type
REMARK                         _______ _______ _______ _____ _____    ______ ____
ROOT
ATOM      1  O   UNL     1     -37.529  23.226   2.480  0.00  0.00    -0.447 OA
ATOM      2  O   UNL     1     -35.260  20.667   3.395  0.00  0.00    -0.283 OA
ATOM      3  C   UNL     1     -35.875  22.889   4.056  0.00  0.00    +0.080 C 
ATOM      4  C   UNL     1     -36.835  23.759   3.543  0.00  0.00    +0.185 C 
ATOM      5  C   UNL     1     -37.004  21.954   2.285  0.00  0.00    +0.184 C 
ATOM      6  C   UNL     1     -35.930  21.665   3.266  0.00  0.00    +0.233 C 
ATOM      7  C   UNL     1     -37.028  25.011   4.085  0.00  0.00    +0.203 C 
ATOM      8  C   UNL     1     -35.068  23.223   5.123  0.00  0.00    +0.010 C 
ATOM      9  C   UNL     1     -37.412  21.103   1.343  0.00  0.00    +0.041 C 
ATOM     10  C   UNL     1     -36.222  25.375   5.169  0.00  0.00    +0.171 C 
ATOM     11  C   UNL     1     -35.252  24.490   5.683  0.00  0.00    +0.040 C 
ENDROOT
BRANCH   9  12
ATOM     12  C   UNL     1     -38.474  21.354   0.351  0.00  0.00    +0.006 C 
ATOM     13  C   UNL     1     -39.765  20.934   0.621  0.00  0.00    +0.040 C 
ATOM     14  C   UNL     1     -38.156  22.004  -0.830  0.00  0.00    +0.003 C 
ATOM     15  C   UNL     1     -40.769  21.171  -0.319  0.00  0.00    +0.167 C 
ATOM     16  C   UNL     1     -39.161  22.242  -1.768  0.00  0.00    +0.040 C 
ATOM     17  C   UNL     1     -40.467  21.825  -1.513  0.00  0.00    +0.167 C 
BRANCH  15  18
ATOM     18  O   UNL     1     -42.042  20.758  -0.058  0.00  0.00    -0.503 OA
ATOM     19  H   UNL     1     -42.317  19.899  -0.311  0.00  0.00    +0.292 HD
ENDBRANCH  15  18
BRANCH  17  20
ATOM     20  O   UNL     1     -41.440  22.065  -2.436  0.00  0.00    -0.503 OA
ATOM     21  H   UNL     1     -42.315  22.248  -2.157  0.00  0.00    +0.292 HD
ENDBRANCH  17  20
ENDBRANCH   9  12
BRANCH   7  22
ATOM     22  O   UNL     1     -37.963  25.856   3.585  0.00  0.00    -0.501 OA
ATOM     23  H   UNL     1     -38.787  25.521   3.290  0.00  0.00    +0.292 HD
ENDBRANCH   7  22
BRANCH  10  24
ATOM     24  O   UNL     1     -36.367  26.602   5.747  0.00  0.00    -0.503 OA
ATOM     25  H   UNL     1     -37.212  26.890   6.032  0.00  0.00    +0.292 HD
ENDBRANCH  10  24
TORSDOF 5
ENDMDL
MODEL 4
REMARK VINA RESULT:      -6.3      3.070      5.594
REMARK  Name = 5281292
REMARK  5 active torsions:
REMARK  status: ('A' for Active; 'I' for Inactive)
REMARK    1  A    between atoms: C_7  and  O_22
REMARK    2  A    between atoms: C_9  and  C_12
REMARK    3  A    between atoms: C_10  and  O_24
REMARK    4  A    between atoms: C_15  and  O_18
REMARK    5  A    between atoms: C_17  and  O_20
REMARK                            x       y       z     vdW  Elec       q    Type
REMARK                         _______ _______ _______ _____ _____    ______ ____
ROOT
ATOM      1  O   UNL     1     -35.324  23.085   2.789  0.00  0.00    -0.447 OA
ATOM      2  O   UNL     1     -35.841  22.002   6.120  0.00  0.00    -0.283 OA
ATOM      3  C   UNL     1     -35.589  24.037   4.877  0.00  0.00    +0.080 C 
ATOM      4  C   UNL     1     -35.386  24.253   3.515  0.00  0.00    +0.185 C 
ATOM      5  C   UNL     1     -35.492  22.058   3.711  0.00  0.00    +0.184 C 
ATOM      6  C   UNL     1     -35.669  22.596   5.082  0.00  0.00    +0.233 C 
ATOM      7  C   UNL     1     -35.269  25.527   3.004  0.00  0.00    +0.203 C 
ATOM      8  C   UNL     1     -35.683  25.070   5.785  0.00  0.00    +0.010 C 
ATOM      9  C   UNL     1     -35.497  20.760   3.406  0.00  0.00    +0.041 C 
ATOM     10  C   UNL     1     -35.362  26.594   3.903  0.00  0.00    +0.171 C 
ATOM     11  C   UNL     1     -35.565  26.368   5.280  0.00  0.00    +0.040 C 
ENDROOT
BRANCH   9  12
ATOM     12  C   UNL     1     -35.324  20.187   2.057  0.00  0.00    +0.006 C 
ATOM     13  C   UNL     1     -36.427  20.054   1.232  0.00  0.00    +0.040 C 
ATOM     14  C   UNL     1     -34.061  19.796   1.646  0.00  0.00    +0.003 C 
ATOM     15  C   UNL     1     -36.263  19.512  -0.043  0.00  0.00    +0.167 C 
ATOM     16  C   UNL     1     -33.897  19.255   0.371  0.00  0.00    +0.040 C 
ATOM     17  C   UNL     1     -34.998  19.112  -0.473  0.00  0.00    +0.167 C 
BRANCH  15  18
ATOM     18  O   UNL     1     -37.346  19.377  -0.859  0.00  0.00    -0.503 OA
ATOM     19  H   UNL     1     -37.234  19.089  -1.744  0.00  0.00    +0.292 HD
ENDBRANCH  15  18
BRANCH  17  20
ATOM     20  O   UNL     1     -34.824  18.584  -1.718  0.00  0.00    -0.503 OA
ATOM     21  H   UNL     1     -35.197  17.751  -1.928  0.00  0.00    +0.292 HD
ENDBRANCH  17  20
ENDBRANCH   9  12
BRANCH   7  22
ATOM     22  O   UNL     1     -35.073  25.736   1.678  0.00  0.00    -0.501 OA
ATOM     23  H   UNL     1     -34.717  25.053   1.144  0.00  0.00    +0.292 HD
ENDBRANCH   7  22
BRANCH  10  24
ATOM     24  O   UNL     1     -35.253  27.878   3.455  0.00  0.00    -0.503 OA
ATOM     25  H   UNL     1     -34.659  28.471   3.869  0.00  0.00    +0.292 HD
ENDBRANCH  10  24
TORSDOF 5
ENDMDL
MODEL 5
REMARK VINA RESULT:      -6.3      2.318      3.336
REMARK  Name = 5281292
REMARK  5 active torsions:
REMARK  status: ('A' for Active; 'I' for Inactive)
REMARK    1  A    between atoms: C_7  and  O_22
REMARK    2  A    between atoms: C_9  and  C_12
REMARK    3  A    between atoms: C_10  and  O_24
REMARK    4  A    between atoms: C_15  and  O_18
REMARK    5  A    between atoms: C_17  and  O_20
REMARK                            x       y       z     vdW  Elec       q    Type
REMARK                         _______ _______ _______ _____ _____    ______ ____
ROOT
ATOM      1  O   UNL     1     -32.731  27.040   3.997  0.00  0.00    -0.447 OA
ATOM      2  O   UNL     1     -32.075  28.440   7.182  0.00  0.00    -0.283 OA
ATOM      3  C   UNL     1     -31.339  28.642   4.909  0.00  0.00    +0.080 C 
ATOM      4  C   UNL     1     -31.744  27.969   3.758  0.00  0.00    +0.185 C 
ATOM      5  C   UNL     1     -32.986  27.103   5.362  0.00  0.00    +0.184 C 
ATOM      6  C   UNL     1     -32.125  28.116   6.018  0.00  0.00    +0.233 C 
ATOM      7  C   UNL     1     -31.181  28.248   2.531  0.00  0.00    +0.203 C 
ATOM      8  C   UNL     1     -30.362  29.615   4.893  0.00  0.00    +0.010 C 
ATOM      9  C   UNL     1     -33.888  26.355   5.999  0.00  0.00    +0.041 C 
ATOM     10  C   UNL     1     -30.187  29.232   2.487  0.00  0.00    +0.171 C 
ATOM     11  C   UNL     1     -29.782  29.908   3.656  0.00  0.00    +0.040 C 
ENDROOT
BRANCH   9  12
ATOM     12  C   UNL     1     -34.761  25.339   5.383  0.00  0.00    +0.006 C 
ATOM     13  C   UNL     1     -36.059  25.678   5.041  0.00  0.00    +0.040 C 
ATOM     14  C   UNL     1     -34.263  24.066   5.158  0.00  0.00    +0.003 C 
ATOM     15  C   UNL     1     -36.884  24.716   4.458  0.00  0.00    +0.167 C 
ATOM     16  C   UNL     1     -35.088  23.105   4.574  0.00  0.00    +0.040 C 
ATOM     17  C   UNL     1     -36.398  23.430   4.225  0.00  0.00    +0.167 C 
BRANCH  15  18
ATOM     18  O   UNL     1     -38.163  25.045   4.122  0.00  0.00    -0.503 OA
ATOM     19  H   UNL     1     -38.882  24.590   4.514  0.00  0.00    +0.292 HD
ENDBRANCH  15  18
BRANCH  17  20
ATOM     20  O   UNL     1     -37.194  22.482   3.654  0.00  0.00    -0.503 OA
ATOM     21  H   UNL     1     -38.119  22.620   3.598  0.00  0.00    +0.292 HD
ENDBRANCH  17  20
ENDBRANCH   9  12
BRANCH   7  22
ATOM     22  O   UNL     1     -31.576  27.593   1.411  0.00  0.00    -0.501 OA
ATOM     23  H   UNL     1     -31.807  28.077   0.643  0.00  0.00    +0.292 HD
ENDBRANCH   7  22
BRANCH  10  24
ATOM     24  O   UNL     1     -29.593  29.551   1.301  0.00  0.00    -0.503 OA
ATOM     25  H   UNL     1     -28.692  29.806   1.282  0.00  0.00    +0.292 HD
ENDBRANCH  10  24
TORSDOF 5
ENDMDL
MODEL 6
REMARK VINA RESULT:      -6.3      1.656      2.927
REMARK  Name = 5281292
REMARK  5 active torsions:
REMARK  status: ('A' for Active; 'I' for Inactive)
REMARK    1  A    between atoms: C_7  and  O_22
REMARK    2  A    between atoms: C_9  and  C_12
REMARK    3  A    between atoms: C_10  and  O_24
REMARK    4  A    between atoms: C_15  and  O_18
REMARK    5  A    between atoms: C_17  and  O_20
REMARK                            x       y       z     vdW  Elec       q    Type
REMARK                         _______ _______ _______ _____ _____    ______ ____
ROOT
ATOM      1  O   UNL     1     -33.502  26.693   4.045  0.00  0.00    -0.447 OA
ATOM      2  O   UNL     1     -32.751  27.310   7.450  0.00  0.00    -0.283 OA
ATOM      3  C   UNL     1     -32.180  28.137   5.272  0.00  0.00    +0.080 C 
ATOM      4  C   UNL     1     -32.606  27.737   4.007  0.00  0.00    +0.185 C 
ATOM      5  C   UNL     1     -33.673  26.392   5.391  0.00  0.00    +0.184 C 
ATOM      6  C   UNL     1     -32.850  27.283   6.245  0.00  0.00    +0.233 C 
ATOM      7  C   UNL     1     -32.146  28.362   2.868  0.00  0.00    +0.203 C 
ATOM      8  C   UNL     1     -31.283  29.167   5.461  0.00  0.00    +0.010 C 
ATOM      9  C   UNL     1     -34.472  25.431   5.857  0.00  0.00    +0.041 C 
ATOM     10  C   UNL     1     -31.235  29.411   3.031  0.00  0.00    +0.171 C 
ATOM     11  C   UNL     1     -30.807  29.809   4.315  0.00  0.00    +0.040 C 
ENDROOT
BRANCH   9  12
ATOM     12  C   UNL     1     -35.303  24.526   5.041  0.00  0.00    +0.006 C 
ATOM     13  C   UNL     1     -35.000  23.175   5.007  0.00  0.00    +0.040 C 
ATOM     14  C   UNL     1     -36.369  25.047   4.326  0.00  0.00    +0.003 C 
ATOM     15  C   UNL     1     -35.786  22.320   4.235  0.00  0.00    +0.167 C 
ATOM     16  C   UNL     1     -37.155  24.190   3.555  0.00  0.00    +0.040 C 
ATOM     17  C   UNL     1     -36.863  22.828   3.509  0.00  0.00    +0.167 C 
BRANCH  15  18
ATOM     18  O   UNL     1     -35.491  20.990   4.197  0.00  0.00    -0.503 OA
ATOM     19  H   UNL     1     -36.178  20.360   4.099  0.00  0.00    +0.292 HD
ENDBRANCH  15  18
BRANCH  17  20
ATOM     20  O   UNL     1     -37.640  22.001   2.753  0.00  0.00    -0.503 OA
ATOM     21  H   UNL     1     -38.231  22.362   2.122  0.00  0.00    +0.292 HD
ENDBRANCH  17  20
ENDBRANCH   9  12
BRANCH   7  22
ATOM     22  O   UNL     1     -32.561  27.973   1.637  0.00  0.00    -0.501 OA
ATOM     23  H   UNL     1     -33.077  28.554   1.112  0.00  0.00    +0.292 HD
ENDBRANCH   7  22
BRANCH  10  24
ATOM     24  O   UNL     1     -30.744  30.067   1.940  0.00  0.00    -0.503 OA
ATOM     25  H   UNL     1     -31.032  29.830   1.082  0.00  0.00    +0.292 HD
ENDBRANCH  10  24
TORSDOF 5
ENDMDL
MODEL 7
REMARK VINA RESULT:      -6.2      3.829      6.177
REMARK  Name = 5281292
REMARK  5 active torsions:
REMARK  status: ('A' for Active; 'I' for Inactive)
REMARK    1  A    between atoms: C_7  and  O_22
REMARK    2  A    between atoms: C_9  and  C_12
REMARK    3  A    between atoms: C_10  and  O_24
REMARK    4  A    between atoms: C_15  and  O_18
REMARK    5  A    between atoms: C_17  and  O_20
REMARK                            x       y       z     vdW  Elec       q    Type
REMARK                         _______ _______ _______ _____ _____    ______ ____
ROOT
ATOM      1  O   UNL     1     -34.824  22.726   2.284  0.00  0.00    -0.447 OA
ATOM      2  O   UNL     1     -38.132  21.493   2.018  0.00  0.00    -0.283 OA
ATOM      3  C   UNL     1     -36.957  23.410   2.850  0.00  0.00    +0.080 C 
ATOM      4  C   UNL     1     -35.596  23.712   2.856  0.00  0.00    +0.185 C 
ATOM      5  C   UNL     1     -35.713  21.735   1.885  0.00  0.00    +0.184 C 
ATOM      6  C   UNL     1     -37.110  22.106   2.217  0.00  0.00    +0.233 C 
ATOM      7  C   UNL     1     -35.128  24.892   3.392  0.00  0.00    +0.203 C 
ATOM      8  C   UNL     1     -37.907  24.262   3.373  0.00  0.00    +0.010 C 
ATOM      9  C   UNL     1     -35.360  20.600   1.280  0.00  0.00    +0.041 C 
ATOM     10  C   UNL     1     -36.071  25.775   3.929  0.00  0.00    +0.171 C 
ATOM     11  C   UNL     1     -37.446  25.463   3.920  0.00  0.00    +0.040 C 
ENDROOT
BRANCH   9  12
ATOM     12  C   UNL     1     -33.984  20.195   0.935  0.00  0.00    +0.006 C 
ATOM     13  C   UNL     1     -33.479  19.010   1.441  0.00  0.00    +0.040 C 
ATOM     14  C   UNL     1     -33.226  21.010   0.111  0.00  0.00    +0.003 C 
ATOM     15  C   UNL     1     -32.178  18.628   1.114  0.00  0.00    +0.167 C 
ATOM     16  C   UNL     1     -31.926  20.628  -0.217  0.00  0.00    +0.040 C 
ATOM     17  C   UNL     1     -31.401  19.437   0.286  0.00  0.00    +0.167 C 
BRANCH  15  18
ATOM     18  O   UNL     1     -31.676  17.463   1.612  0.00  0.00    -0.503 OA
ATOM     19  H   UNL     1     -30.973  17.481   2.232  0.00  0.00    +0.292 HD
ENDBRANCH  15  18
BRANCH  17  20
ATOM     20  O   UNL     1     -30.130  19.073  -0.043  0.00  0.00    -0.503 OA
ATOM     21  H   UNL     1     -29.597  18.621   0.580  0.00  0.00    +0.292 HD
ENDBRANCH  17  20
ENDBRANCH   9  12
BRANCH   7  22
ATOM     22  O   UNL     1     -33.804  25.185   3.397  0.00  0.00    -0.501 OA
ATOM     23  H   UNL     1     -33.223  24.718   3.965  0.00  0.00    +0.292 HD
ENDBRANCH   7  22
BRANCH  10  24
ATOM     24  O   UNL     1     -35.667  26.959   4.473  0.00  0.00    -0.503 OA
ATOM     25  H   UNL     1     -35.500  27.696   3.921  0.00  0.00    +0.292 HD
ENDBRANCH  10  24
TORSDOF 5
ENDMDL
MODEL 8
REMARK VINA RESULT:      -6.2      2.086      2.241
REMARK  Name = 5281292
REMARK  5 active torsions:
REMARK  status: ('A' for Active; 'I' for Inactive)
REMARK    1  A    between atoms: C_7  and  O_22
REMARK    2  A    between atoms: C_9  and  C_12
REMARK    3  A    between atoms: C_10  and  O_24
REMARK    4  A    between atoms: C_15  and  O_18
REMARK    5  A    between atoms: C_17  and  O_20
REMARK                            x       y       z     vdW  Elec       q    Type
REMARK                         _______ _______ _______ _____ _____    ______ ____
ROOT
ATOM      1  O   UNL     1     -32.959  26.157   3.338  0.00  0.00    -0.447 OA
ATOM      2  O   UNL     1     -35.153  28.926   3.099  0.00  0.00    -0.283 OA
ATOM      3  C   UNL     1     -32.860  28.368   2.675  0.00  0.00    +0.080 C 
ATOM      4  C   UNL     1     -32.168  27.170   2.843  0.00  0.00    +0.185 C 
ATOM      5  C   UNL     1     -34.223  26.712   3.502  0.00  0.00    +0.184 C 
ATOM      6  C   UNL     1     -34.236  28.137   3.094  0.00  0.00    +0.233 C 
ATOM      7  C   UNL     1     -30.831  27.067   2.528  0.00  0.00    +0.203 C 
ATOM      8  C   UNL     1     -32.257  29.510   2.190  0.00  0.00    +0.010 C 
ATOM      9  C   UNL     1     -35.285  26.050   3.962  0.00  0.00    +0.041 C 
ATOM     10  C   UNL     1     -30.194  28.210   2.034  0.00  0.00    +0.171 C 
ATOM     11  C   UNL     1     -30.900  29.420   1.867  0.00  0.00    +0.040 C 
ENDROOT
BRANCH   9  12
ATOM     12  C   UNL     1     -35.311  24.635   4.378  0.00  0.00    +0.006 C 
ATOM     13  C   UNL     1     -35.758  23.676   3.486  0.00  0.00    +0.040 C 
ATOM     14  C   UNL     1     -34.887  24.297   5.652  0.00  0.00    +0.003 C 
ATOM     15  C   UNL     1     -35.782  22.338   3.880  0.00  0.00    +0.167 C 
ATOM     16  C   UNL     1     -34.911  22.959   6.045  0.00  0.00    +0.040 C 
ATOM     17  C   UNL     1     -35.359  21.980   5.159  0.00  0.00    +0.167 C 
BRANCH  15  18
ATOM     18  O   UNL     1     -36.222  21.390   3.006  0.00  0.00    -0.503 OA
ATOM     19  H   UNL     1     -35.657  21.082   2.324  0.00  0.00    +0.292 HD
ENDBRANCH  15  18
BRANCH  17  20
ATOM     20  O   UNL     1     -35.375  20.675   5.555  0.00  0.00    -0.503 OA
ATOM     21  H   UNL     1     -36.133  20.148   5.395  0.00  0.00    +0.292 HD
ENDBRANCH  17  20
ENDBRANCH   9  12
BRANCH   7  22
ATOM     22  O   UNL     1     -30.158  25.900   2.692  0.00  0.00    -0.501 OA
ATOM     23  H   UNL     1     -30.063  25.531   3.548  0.00  0.00    +0.292 HD
ENDBRANCH   7  22
BRANCH  10  24
ATOM     24  O   UNL     1     -28.871  28.169   1.705  0.00  0.00    -0.503 OA
ATOM     25  H   UNL     1     -28.393  28.965   1.585  0.00  0.00    +0.292 HD
ENDBRANCH  10  24
TORSDOF 5
ENDMDL
MODEL 9
REMARK VINA RESULT:      -6.1      3.057      7.263
REMARK  Name = 5281292
REMARK  5 active torsions:
REMARK  status: ('A' for Active; 'I' for Inactive)
REMARK    1  A    between atoms: C_7  and  O_22
REMARK    2  A    between atoms: C_9  and  C_12
REMARK    3  A    between atoms: C_10  and  O_24
REMARK    4  A    between atoms: C_15  and  O_18
REMARK    5  A    between atoms: C_17  and  O_20
REMARK                            x       y       z     vdW  Elec       q    Type
REMARK                         _______ _______ _______ _____ _____    ______ ____
ROOT
ATOM      1  O   UNL     1     -36.595  25.201   3.626  0.00  0.00    -0.447 OA
ATOM      2  O   UNL     1     -35.717  21.799   3.187  0.00  0.00    -0.283 OA
ATOM      3  C   UNL     1     -37.600  23.254   2.893  0.00  0.00    +0.080 C 
ATOM      4  C   UNL     1     -37.743  24.619   3.135  0.00  0.00    +0.185 C 
ATOM      5  C   UNL     1     -35.660  24.177   3.710  0.00  0.00    +0.184 C 
ATOM      6  C   UNL     1     -36.236  22.889   3.253  0.00  0.00    +0.233 C 
ATOM      7  C   UNL     1     -38.933  25.268   2.889  0.00  0.00    +0.203 C 
ATOM      8  C   UNL     1     -38.628  22.478   2.398  0.00  0.00    +0.010 C 
ATOM      9  C   UNL     1     -34.407  24.330   4.141  0.00  0.00    +0.041 C 
ATOM     10  C   UNL     1     -39.992  24.504   2.387  0.00  0.00    +0.171 C 
ATOM     11  C   UNL     1     -39.841  23.123   2.144  0.00  0.00    +0.040 C 
ENDROOT
BRANCH   9  12
ATOM     12  C   UNL     1     -33.799  25.591   4.604  0.00  0.00    +0.006 C 
ATOM     13  C   UNL     1     -33.618  25.798   5.961  0.00  0.00    +0.040 C 
ATOM     14  C   UNL     1     -33.422  26.542   3.670  0.00  0.00    +0.003 C 
ATOM     15  C   UNL     1     -33.043  26.992   6.397  0.00  0.00    +0.167 C 
ATOM     16  C   UNL     1     -32.846  27.735   4.108  0.00  0.00    +0.040 C 
ATOM     17  C   UNL     1     -32.658  27.960   5.471  0.00  0.00    +0.167 C 
BRANCH  15  18
ATOM     18  O   UNL     1     -32.865  27.201   7.732  0.00  0.00    -0.503 OA
ATOM     19  H   UNL     1     -33.498  26.882   8.345  0.00  0.00    +0.292 HD
ENDBRANCH  15  18
BRANCH  17  20
ATOM     20  O   UNL     1     -32.092  29.129   5.885  0.00  0.00    -0.503 OA
ATOM     21  H   UNL     1     -31.774  29.210   6.762  0.00  0.00    +0.292 HD
ENDBRANCH  17  20
ENDBRANCH   9  12
BRANCH   7  22
ATOM     22  O   UNL     1     -39.071  26.597   3.125  0.00  0.00    -0.501 OA
ATOM     23  H   UNL     1     -38.365  27.182   2.930  0.00  0.00    +0.292 HD
ENDBRANCH   7  22
BRANCH  10  24
ATOM     24  O   UNL     1     -41.195  25.092   2.123  0.00  0.00    -0.503 OA
ATOM     25  H   UNL     1     -41.892  25.034   2.746  0.00  0.00    +0.292 HD
ENDBRANCH  10  24
TORSDOF 5
ENDMDL
