MODEL 1
REMARK VINA RESULT:      -6.7      0.000      0.000
REMARK  Name = 216230
REMARK  9 active torsions:
REMARK  status: ('A' for Active; 'I' for Inactive)
REMARK    1  A    between atoms: C_3  and  C_11
REMARK    2  A    between atoms: C_8  and  C_25
REMARK    3  A    between atoms: N_10  and  C_13
REMARK    4  A    between atoms: C_13  and  C_15
REMARK    5  A    between atoms: C_13  and  C_20
REMARK    6  A    between atoms: C_20  and  C_22
REMARK    7  A    between atoms: C_22  and  O_23
REMARK    8  A    between atoms: C_25  and  C_26
REMARK    9  A    between atoms: C_26  and  C_28
REMARK                            x       y       z     vdW  Elec       q    Type
REMARK                         _______ _______ _______ _____ _____    ______ ____
ROOT
ATOM      1  O   UNL     1     -37.101  20.210   1.615  0.00  0.00    -0.275 OA
ATOM      2  N   UNL     1     -37.381  22.466   1.130  0.00  0.00    -0.279 N 
ATOM      3  C   UNL     1     -37.563  24.864   1.745  0.00  0.00    +0.096 C 
ATOM      4  C   UNL     1     -36.839  23.812   0.898  0.00  0.00    +0.102 C 
ATOM      5  C   UNL     1     -39.086  24.756   1.610  0.00  0.00    +0.013 C 
ATOM      6  C   UNL     1     -39.581  23.323   1.820  0.00  0.00    +0.022 C 
ATOM      7  C   UNL     1     -38.825  22.341   0.933  0.00  0.00    +0.093 C 
ATOM      8  C   UNL     1     -36.629  21.339   1.466  0.00  0.00    +0.226 C 
ENDROOT
BRANCH   3  11
ATOM      9  O   UNL     1     -37.963  24.565   4.082  0.00  0.00    -0.275 OA
ATOM     10  N   UNL     1     -35.782  24.921   3.350  0.00  0.00    -0.302 N 
ATOM     11  C   UNL     1     -37.147  24.756   3.185  0.00  0.00    +0.224 C 
ATOM     12  H   UNL     1     -35.229  25.069   2.550  0.00  0.00    +0.150 HD
BRANCH  10  13
ATOM     13  C   UNL     1     -35.132  24.885   4.640  0.00  0.00    +0.107 C 
BRANCH  13  15
ATOM     14  N   UNL     1     -32.752  27.376   6.167  0.00  0.00    -0.243 NA
ATOM     15  C   UNL     1     -34.145  26.030   4.762  0.00  0.00    +0.015 C 
ATOM     16  C   UNL     1     -33.765  26.731   3.642  0.00  0.00    +0.000 C 
ATOM     17  C   UNL     1     -33.634  26.367   5.988  0.00  0.00    +0.096 C 
ATOM     18  C   UNL     1     -32.859  27.777   3.785  0.00  0.00    +0.020 C 
ATOM     19  C   UNL     1     -32.387  28.057   5.057  0.00  0.00    +0.099 C 
ENDBRANCH  13  15
BRANCH  13  20
ATOM     20  C   UNL     1     -34.504  23.500   4.867  0.00  0.00    +0.133 C 
BRANCH  20  22
ATOM     21  O   UNL     1     -35.263  22.177   6.771  0.00  0.00    -0.250 OA
ATOM     22  C   UNL     1     -35.411  22.544   5.613  0.00  0.00    +0.316 C 
BRANCH  22  23
ATOM     23  O   UNL     1     -36.425  22.103   4.823  0.00  0.00    -0.480 OA
ATOM     24  H   UNL     1     -37.309  22.133   5.134  0.00  0.00    +0.295 HD
ENDBRANCH  22  23
ENDBRANCH  20  22
ENDBRANCH  13  20
ENDBRANCH  10  13
ENDBRANCH   3  11
BRANCH   8  25
ATOM     25  C   UNL     1     -35.146  21.547   1.657  0.00  0.00    +0.085 C 
BRANCH  25  26
ATOM     26  C   UNL     1     -34.482  20.254   2.098  0.00  0.00    +0.009 C 
BRANCH  26  28
ATOM     27  N   UNL     1     -31.055  18.790  -0.095  0.00  0.00    +0.384 N 
ATOM     28  C   UNL     1     -33.661  19.603   0.989  0.00  0.00    -0.004 C 
ATOM     29  C   UNL     1     -32.897  18.380   1.513  0.00  0.00    -0.023 C 
ATOM     30  C   UNL     1     -32.679  20.605   0.369  0.00  0.00    -0.023 C 
ATOM     31  C   UNL     1     -31.987  17.792   0.435  0.00  0.00    -0.082 C 
ATOM     32  C   UNL     1     -31.778  19.929  -0.664  0.00  0.00    -0.082 C 
ATOM     33  H   UNL     1     -30.484  18.360  -0.823  0.00  0.00    -0.085 HD
ATOM     34  H   UNL     1     -30.468  19.126   0.668  0.00  0.00    -0.085 HD
ENDBRANCH  26  28
ENDBRANCH  25  26
ENDBRANCH   8  25
TORSDOF 9
ENDMDL
MODEL 2
REMARK VINA RESULT:      -6.5      0.917      1.214
REMARK  Name = 216230
REMARK  9 active torsions:
REMARK  status: ('A' for Active; 'I' for Inactive)
REMARK    1  A    between atoms: C_3  and  C_11
REMARK    2  A    between atoms: C_8  and  C_25
REMARK    3  A    between atoms: N_10  and  C_13
REMARK    4  A    between atoms: C_13  and  C_15
REMARK    5  A    between atoms: C_13  and  C_20
REMARK    6  A    between atoms: C_20  and  C_22
REMARK    7  A    between atoms: C_22  and  O_23
REMARK    8  A    between atoms: C_25  and  C_26
REMARK    9  A    between atoms: C_26  and  C_28
REMARK                            x       y       z     vdW  Elec       q    Type
REMARK                         _______ _______ _______ _____ _____    ______ ____
ROOT
ATOM      1  O   UNL     1     -36.924  20.352   1.607  0.00  0.00    -0.275 OA
ATOM      2  N   UNL     1     -37.329  22.601   1.185  0.00  0.00    -0.279 N 
ATOM      3  C   UNL     1     -37.626  24.970   1.863  0.00  0.00    +0.096 C 
ATOM      4  C   UNL     1     -36.863  23.980   0.979  0.00  0.00    +0.102 C 
ATOM      5  C   UNL     1     -39.143  24.786   1.751  0.00  0.00    +0.013 C 
ATOM      6  C   UNL     1     -39.559  23.324   1.932  0.00  0.00    +0.022 C 
ATOM      7  C   UNL     1     -38.769  22.406   1.008  0.00  0.00    +0.093 C 
ATOM      8  C   UNL     1     -36.514  21.508   1.480  0.00  0.00    +0.226 C 
ENDROOT
BRANCH   3  11
ATOM      9  O   UNL     1     -37.979  24.665   4.208  0.00  0.00    -0.275 OA
ATOM     10  N   UNL     1     -35.810  24.994   3.430  0.00  0.00    -0.302 N 
ATOM     11  C   UNL     1     -37.181  24.850   3.294  0.00  0.00    +0.224 C 
ATOM     12  H   UNL     1     -35.272  25.138   2.618  0.00  0.00    +0.150 HD
BRANCH  10  13
ATOM     13  C   UNL     1     -35.133  24.942   4.704  0.00  0.00    +0.107 C 
BRANCH  13  15
ATOM     14  N   UNL     1     -32.707  27.410   6.196  0.00  0.00    -0.243 NA
ATOM     15  C   UNL     1     -34.127  26.072   4.811  0.00  0.00    +0.015 C 
ATOM     16  C   UNL     1     -33.741  26.756   3.682  0.00  0.00    +0.000 C 
ATOM     17  C   UNL     1     -33.605  26.413   6.031  0.00  0.00    +0.096 C 
ATOM     18  C   UNL     1     -32.818  27.789   3.810  0.00  0.00    +0.020 C 
ATOM     19  C   UNL     1     -32.336  28.074   5.077  0.00  0.00    +0.099 C 
ENDBRANCH  13  15
BRANCH  13  20
ATOM     20  C   UNL     1     -34.519  23.547   4.911  0.00  0.00    +0.133 C 
BRANCH  20  22
ATOM     21  O   UNL     1     -35.317  22.205   6.785  0.00  0.00    -0.250 OA
ATOM     22  C   UNL     1     -35.442  22.585   5.629  0.00  0.00    +0.316 C 
BRANCH  22  23
ATOM     23  O   UNL     1     -36.441  22.154   4.814  0.00  0.00    -0.480 OA
ATOM     24  H   UNL     1     -37.125  21.613   5.157  0.00  0.00    +0.295 HD
ENDBRANCH  22  23
ENDBRANCH  20  22
ENDBRANCH  13  20
ENDBRANCH  10  13
ENDBRANCH   3  11
BRANCH   8  25
ATOM     25  C   UNL     1     -35.042  21.789   1.652  0.00  0.00    +0.085 C 
BRANCH  25  26
ATOM     26  C   UNL     1     -34.315  21.636   0.327  0.00  0.00    +0.009 C 
BRANCH  26  28
ATOM     27  N   UNL     1     -33.926  17.332   0.450  0.00  0.00    +0.384 N 
ATOM     28  C   UNL     1     -33.719  20.244   0.136  0.00  0.00    -0.004 C 
ATOM     29  C   UNL     1     -34.612  19.381  -0.765  0.00  0.00    -0.023 C 
ATOM     30  C   UNL     1     -33.509  19.546   1.485  0.00  0.00    -0.023 C 
ATOM     31  C   UNL     1     -34.078  17.953  -0.868  0.00  0.00    -0.082 C 
ATOM     32  C   UNL     1     -33.017  18.111   1.293  0.00  0.00    -0.082 C 
ATOM     33  H   UNL     1     -33.550  16.391   0.334  0.00  0.00    -0.085 HD
ATOM     34  H   UNL     1     -34.840  17.297   0.902  0.00  0.00    -0.085 HD
ENDBRANCH  26  28
ENDBRANCH  25  26
ENDBRANCH   8  25
TORSDOF 9
ENDMDL
MODEL 3
REMARK VINA RESULT:      -6.5      1.386      2.030
REMARK  Name = 216230
REMARK  9 active torsions:
REMARK  status: ('A' for Active; 'I' for Inactive)
REMARK    1  A    between atoms: C_3  and  C_11
REMARK    2  A    between atoms: C_8  and  C_25
REMARK    3  A    between atoms: N_10  and  C_13
REMARK    4  A    between atoms: C_13  and  C_15
REMARK    5  A    between atoms: C_13  and  C_20
REMARK    6  A    between atoms: C_20  and  C_22
REMARK    7  A    between atoms: C_22  and  O_23
REMARK    8  A    between atoms: C_25  and  C_26
REMARK    9  A    between atoms: C_26  and  C_28
REMARK                            x       y       z     vdW  Elec       q    Type
REMARK                         _______ _______ _______ _____ _____    ______ ____
ROOT
ATOM      1  O   UNL     1     -40.064  21.457   2.147  0.00  0.00    -0.275 OA
ATOM      2  N   UNL     1     -38.958  23.411   1.546  0.00  0.00    -0.279 N 
ATOM      3  C   UNL     1     -37.552  25.401   2.017  0.00  0.00    +0.096 C 
ATOM      4  C   UNL     1     -37.739  24.139   1.169  0.00  0.00    +0.102 C 
ATOM      5  C   UNL     1     -38.822  26.258   2.054  0.00  0.00    +0.013 C 
ATOM      6  C   UNL     1     -40.060  25.433   2.410  0.00  0.00    +0.022 C 
ATOM      7  C   UNL     1     -40.185  24.207   1.514  0.00  0.00    +0.093 C 
ATOM      8  C   UNL     1     -39.021  22.056   1.874  0.00  0.00    +0.226 C 
ENDROOT
BRANCH   3  11
ATOM      9  O   UNL     1     -37.894  24.575   4.234  0.00  0.00    -0.275 OA
ATOM     10  N   UNL     1     -35.773  25.314   3.624  0.00  0.00    -0.302 N 
ATOM     11  C   UNL     1     -37.113  25.040   3.409  0.00  0.00    +0.224 C 
ATOM     12  H   UNL     1     -35.247  25.687   2.880  0.00  0.00    +0.150 HD
BRANCH  10  13
ATOM     13  C   UNL     1     -35.111  25.079   4.886  0.00  0.00    +0.107 C 
BRANCH  13  15
ATOM     14  N   UNL     1     -32.854  28.050   4.354  0.00  0.00    -0.243 NA
ATOM     15  C   UNL     1     -34.114  26.187   5.170  0.00  0.00    +0.015 C 
ATOM     16  C   UNL     1     -33.586  26.329   6.432  0.00  0.00    +0.000 C 
ATOM     17  C   UNL     1     -33.738  27.044   4.169  0.00  0.00    +0.096 C 
ATOM     18  C   UNL     1     -32.674  27.353   6.662  0.00  0.00    +0.020 C 
ATOM     19  C   UNL     1     -32.344  28.179   5.600  0.00  0.00    +0.099 C 
ENDBRANCH  13  15
BRANCH  13  20
ATOM     20  C   UNL     1     -34.490  23.672   4.894  0.00  0.00    +0.133 C 
BRANCH  20  22
ATOM     21  O   UNL     1     -35.135  22.246   6.765  0.00  0.00    -0.250 OA
ATOM     22  C   UNL     1     -35.332  22.649   5.627  0.00  0.00    +0.316 C 
BRANCH  22  23
ATOM     23  O   UNL     1     -36.348  22.192   4.848  0.00  0.00    -0.480 OA
ATOM     24  H   UNL     1     -36.236  22.131   3.919  0.00  0.00    +0.295 HD
ENDBRANCH  22  23
ENDBRANCH  20  22
ENDBRANCH  13  20
ENDBRANCH  10  13
ENDBRANCH   3  11
BRANCH   8  25
ATOM     25  C   UNL     1     -37.714  21.302   1.890  0.00  0.00    +0.085 C 
BRANCH  25  26
ATOM     26  C   UNL     1     -37.575  20.456   0.636  0.00  0.00    +0.009 C 
BRANCH  26  28
ATOM     27  N   UNL     1     -33.280  20.035   0.374  0.00  0.00    +0.384 N 
ATOM     28  C   UNL     1     -36.203  19.798   0.515  0.00  0.00    -0.004 C 
ATOM     29  C   UNL     1     -35.341  20.090   1.750  0.00  0.00    -0.023 C 
ATOM     30  C   UNL     1     -35.477  20.268  -0.751  0.00  0.00    -0.023 C 
ATOM     31  C   UNL     1     -33.930  19.527   1.585  0.00  0.00    -0.082 C 
ATOM     32  C   UNL     1     -34.060  19.698  -0.818  0.00  0.00    -0.082 C 
ATOM     33  H   UNL     1     -32.352  19.619   0.295  0.00  0.00    -0.085 HD
ATOM     34  H   UNL     1     -33.211  21.051   0.442  0.00  0.00    -0.085 HD
ENDBRANCH  26  28
ENDBRANCH  25  26
ENDBRANCH   8  25
TORSDOF 9
ENDMDL
MODEL 4
REMARK VINA RESULT:      -6.4      5.552      8.748
REMARK  Name = 216230
REMARK  9 active torsions:
REMARK  status: ('A' for Active; 'I' for Inactive)
REMARK    1  A    between atoms: C_3  and  C_11
REMARK    2  A    between atoms: C_8  and  C_25
REMARK    3  A    between atoms: N_10  and  C_13
REMARK    4  A    between atoms: C_13  and  C_15
REMARK    5  A    between atoms: C_13  and  C_20
REMARK    6  A    between atoms: C_20  and  C_22
REMARK    7  A    between atoms: C_22  and  O_23
REMARK    8  A    between atoms: C_25  and  C_26
REMARK    9  A    between atoms: C_26  and  C_28
REMARK                            x       y       z     vdW  Elec       q    Type
REMARK                         _______ _______ _______ _____ _____    ______ ____
ROOT
ATOM      1  O   UNL     1     -40.167  22.953   2.291  0.00  0.00    -0.275 OA
ATOM      2  N   UNL     1     -40.850  24.965   1.347  0.00  0.00    -0.279 N 
ATOM      3  C   UNL     1     -42.018  27.155   1.389  0.00  0.00    +0.096 C 
ATOM      4  C   UNL     1     -40.700  26.413   1.146  0.00  0.00    +0.102 C 
ATOM      5  C   UNL     1     -43.181  26.521   0.618  0.00  0.00    +0.013 C 
ATOM      6  C   UNL     1     -43.256  25.008   0.835  0.00  0.00    +0.022 C 
ATOM      7  C   UNL     1     -41.914  24.342   0.558  0.00  0.00    +0.093 C 
ATOM      8  C   UNL     1     -40.048  24.175   2.171  0.00  0.00    +0.226 C 
ENDROOT
BRANCH   3  11
ATOM      9  O   UNL     1     -41.455  27.046   3.710  0.00  0.00    -0.275 OA
ATOM     10  N   UNL     1     -43.666  27.454   3.105  0.00  0.00    -0.302 N 
ATOM     11  C   UNL     1     -42.324  27.215   2.859  0.00  0.00    +0.224 C 
ATOM     12  H   UNL     1     -44.269  27.574   2.336  0.00  0.00    +0.150 HD
BRANCH  10  13
ATOM     13  C   UNL     1     -44.223  27.536   4.435  0.00  0.00    +0.107 C 
BRANCH  13  15
ATOM     14  N   UNL     1     -47.094  25.630   5.962  0.00  0.00    -0.243 NA
ATOM     15  C   UNL     1     -45.347  26.530   4.596  0.00  0.00    +0.015 C 
ATOM     16  C   UNL     1     -45.628  25.646   3.581  0.00  0.00    +0.000 C 
ATOM     17  C   UNL     1     -46.080  26.500   5.754  0.00  0.00    +0.096 C 
ATOM     18  C   UNL     1     -46.664  24.735   3.757  0.00  0.00    +0.020 C 
ATOM     19  C   UNL     1     -47.359  24.767   4.955  0.00  0.00    +0.099 C 
ENDBRANCH  13  15
BRANCH  13  20
ATOM     20  C   UNL     1     -44.642  28.985   4.736  0.00  0.00    +0.133 C 
BRANCH  20  22
ATOM     21  O   UNL     1     -43.857  30.628   6.359  0.00  0.00    -0.250 OA
ATOM     22  C   UNL     1     -43.614  29.753   5.540  0.00  0.00    +0.316 C 
BRANCH  22  23
ATOM     23  O   UNL     1     -42.349  29.371   5.222  0.00  0.00    -0.480 OA
ATOM     24  H   UNL     1     -42.071  28.490   5.381  0.00  0.00    +0.295 HD
ENDBRANCH  22  23
ENDBRANCH  20  22
ENDBRANCH  13  20
ENDBRANCH  10  13
ENDBRANCH   3  11
BRANCH   8  25
ATOM     25  C   UNL     1     -38.975  24.889   2.956  0.00  0.00    +0.085 C 
BRANCH  25  26
ATOM     26  C   UNL     1     -37.626  24.732   2.274  0.00  0.00    +0.009 C 
BRANCH  26  28
ATOM     27  N   UNL     1     -35.739  23.006   5.760  0.00  0.00    +0.384 N 
ATOM     28  C   UNL     1     -36.531  24.269   3.230  0.00  0.00    -0.004 C 
ATOM     29  C   UNL     1     -36.593  22.752   3.447  0.00  0.00    -0.023 C 
ATOM     30  C   UNL     1     -36.634  24.994   4.578  0.00  0.00    -0.023 C 
ATOM     31  C   UNL     1     -35.570  22.300   4.488  0.00  0.00    -0.082 C 
ATOM     32  C   UNL     1     -35.609  24.453   5.575  0.00  0.00    -0.082 C 
ATOM     33  H   UNL     1     -35.025  22.688   6.416  0.00  0.00    -0.085 HD
ATOM     34  H   UNL     1     -36.671  22.807   6.123  0.00  0.00    -0.085 HD
ENDBRANCH  26  28
ENDBRANCH  25  26
ENDBRANCH   8  25
TORSDOF 9
ENDMDL
MODEL 5
REMARK VINA RESULT:      -6.4      2.228      6.436
REMARK  Name = 216230
REMARK  9 active torsions:
REMARK  status: ('A' for Active; 'I' for Inactive)
REMARK    1  A    between atoms: C_3  and  C_11
REMARK    2  A    between atoms: C_8  and  C_25
REMARK    3  A    between atoms: N_10  and  C_13
REMARK    4  A    between atoms: C_13  and  C_15
REMARK    5  A    between atoms: C_13  and  C_20
REMARK    6  A    between atoms: C_20  and  C_22
REMARK    7  A    between atoms: C_22  and  O_23
REMARK    8  A    between atoms: C_25  and  C_26
REMARK    9  A    between atoms: C_26  and  C_28
REMARK                            x       y       z     vdW  Elec       q    Type
REMARK                         _______ _______ _______ _____ _____    ______ ____
ROOT
ATOM      1  O   UNL     1     -32.149  23.763   0.134  0.00  0.00    -0.275 OA
ATOM      2  N   UNL     1     -33.243  21.778  -0.381  0.00  0.00    -0.279 N 
ATOM      3  C   UNL     1     -34.597  19.777   0.186  0.00  0.00    +0.096 C 
ATOM      4  C   UNL     1     -34.462  21.021  -0.697  0.00  0.00    +0.102 C 
ATOM      5  C   UNL     1     -33.312  18.942   0.196  0.00  0.00    +0.013 C 
ATOM      6  C   UNL     1     -32.076  19.794   0.488  0.00  0.00    +0.022 C 
ATOM      7  C   UNL     1     -32.004  21.001  -0.440  0.00  0.00    +0.093 C 
ATOM      8  C   UNL     1     -33.191  23.141  -0.087  0.00  0.00    +0.226 C 
ENDROOT
BRANCH   3  11
ATOM      9  O   UNL     1     -34.434  19.688   2.569  0.00  0.00    -0.275 OA
ATOM     10  N   UNL     1     -36.039  21.070   1.602  0.00  0.00    -0.302 N 
ATOM     11  C   UNL     1     -34.992  20.163   1.584  0.00  0.00    +0.224 C 
ATOM     12  H   UNL     1     -36.404  21.379   0.742  0.00  0.00    +0.150 HD
BRANCH  10  13
ATOM     13  C   UNL     1     -36.619  21.582   2.821  0.00  0.00    +0.107 C 
BRANCH  13  15
ATOM     14  N   UNL     1     -40.117  22.369   1.657  0.00  0.00    -0.243 NA
ATOM     15  C   UNL     1     -37.882  22.364   2.512  0.00  0.00    +0.015 C 
ATOM     16  C   UNL     1     -37.939  23.711   2.787  0.00  0.00    +0.000 C 
ATOM     17  C   UNL     1     -38.963  21.731   1.957  0.00  0.00    +0.096 C 
ATOM     18  C   UNL     1     -39.110  24.402   2.493  0.00  0.00    +0.020 C 
ATOM     19  C   UNL     1     -40.159  23.692   1.934  0.00  0.00    +0.099 C 
ENDBRANCH  13  15
BRANCH  13  20
ATOM     20  C   UNL     1     -35.567  22.389   3.599  0.00  0.00    +0.133 C 
BRANCH  20  22
ATOM     21  O   UNL     1     -35.841  22.859   5.977  0.00  0.00    -0.250 OA
ATOM     22  C   UNL     1     -35.548  22.079   5.081  0.00  0.00    +0.316 C 
BRANCH  22  23
ATOM     23  O   UNL     1     -35.131  20.807   5.317  0.00  0.00    -0.480 OA
ATOM     24  H   UNL     1     -35.403  20.361   6.095  0.00  0.00    +0.295 HD
ENDBRANCH  22  23
ENDBRANCH  20  22
ENDBRANCH  13  20
ENDBRANCH  10  13
ENDBRANCH   3  11
BRANCH   8  25
ATOM     25  C   UNL     1     -34.509  23.874  -0.040  0.00  0.00    +0.085 C 
BRANCH  25  26
ATOM     26  C   UNL     1     -34.321  25.266   0.538  0.00  0.00    +0.009 C 
BRANCH  26  28
ATOM     27  N   UNL     1     -34.748  26.841   4.542  0.00  0.00    +0.384 N 
ATOM     28  C   UNL     1     -34.709  25.351   2.012  0.00  0.00    -0.004 C 
ATOM     29  C   UNL     1     -35.669  26.521   2.263  0.00  0.00    -0.023 C 
ATOM     30  C   UNL     1     -33.466  25.496   2.900  0.00  0.00    -0.023 C 
ATOM     31  C   UNL     1     -35.971  26.678   3.753  0.00  0.00    -0.082 C 
ATOM     32  C   UNL     1     -33.855  25.694   4.365  0.00  0.00    -0.082 C 
ATOM     33  H   UNL     1     -34.996  26.922   5.528  0.00  0.00    -0.085 HD
ATOM     34  H   UNL     1     -34.264  27.681   4.225  0.00  0.00    -0.085 HD
ENDBRANCH  26  28
ENDBRANCH  25  26
ENDBRANCH   8  25
TORSDOF 9
ENDMDL
MODEL 6
REMARK VINA RESULT:      -6.3      3.261      7.251
REMARK  Name = 216230
REMARK  9 active torsions:
REMARK  status: ('A' for Active; 'I' for Inactive)
REMARK    1  A    between atoms: C_3  and  C_11
REMARK    2  A    between atoms: C_8  and  C_25
REMARK    3  A    between atoms: N_10  and  C_13
REMARK    4  A    between atoms: C_13  and  C_15
REMARK    5  A    between atoms: C_13  and  C_20
REMARK    6  A    between atoms: C_20  and  C_22
REMARK    7  A    between atoms: C_22  and  O_23
REMARK    8  A    between atoms: C_25  and  C_26
REMARK    9  A    between atoms: C_26  and  C_28
REMARK                            x       y       z     vdW  Elec       q    Type
REMARK                         _______ _______ _______ _____ _____    ______ ____
ROOT
ATOM      1  O   UNL     1     -40.038  27.247   1.316  0.00  0.00    -0.275 OA
ATOM      2  N   UNL     1     -38.948  25.203   1.131  0.00  0.00    -0.279 N 
ATOM      3  C   UNL     1     -37.385  23.440   1.913  0.00  0.00    +0.096 C 
ATOM      4  C   UNL     1     -38.811  23.778   1.467  0.00  0.00    +0.102 C 
ATOM      5  C   UNL     1     -36.338  23.967   0.927  0.00  0.00    +0.013 C 
ATOM      6  C   UNL     1     -36.561  25.442   0.586  0.00  0.00    +0.022 C 
ATOM      7  C   UNL     1     -37.994  25.694   0.135  0.00  0.00    +0.093 C 
ATOM      8  C   UNL     1     -39.917  26.065   1.646  0.00  0.00    +0.226 C 
ENDROOT
BRANCH   3  11
ATOM      9  O   UNL     1     -38.024  24.447   3.985  0.00  0.00    -0.275 OA
ATOM     10  N   UNL     1     -35.794  23.865   3.657  0.00  0.00    -0.302 N 
ATOM     11  C   UNL     1     -37.127  23.968   3.296  0.00  0.00    +0.224 C 
ATOM     12  H   UNL     1     -35.166  23.460   3.016  0.00  0.00    +0.150 HD
BRANCH  10  13
ATOM     13  C   UNL     1     -35.282  24.322   4.927  0.00  0.00    +0.107 C 
BRANCH  13  15
ATOM     14  N   UNL     1     -33.166  27.345   5.694  0.00  0.00    -0.243 NA
ATOM     15  C   UNL     1     -34.375  25.521   4.726  0.00  0.00    +0.015 C 
ATOM     16  C   UNL     1     -33.959  25.863   3.460  0.00  0.00    +0.000 C 
ATOM     17  C   UNL     1     -33.972  26.265   5.804  0.00  0.00    +0.096 C 
ATOM     18  C   UNL     1     -33.128  26.968   3.306  0.00  0.00    +0.020 C 
ATOM     19  C   UNL     1     -32.764  27.669   4.444  0.00  0.00    +0.099 C 
ENDBRANCH  13  15
BRANCH  13  20
ATOM     20  C   UNL     1     -34.608  23.155   5.668  0.00  0.00    +0.133 C 
BRANCH  20  22
ATOM     21  O   UNL     1     -35.226  21.030   4.642  0.00  0.00    -0.250 OA
ATOM     22  C   UNL     1     -35.362  21.848   5.541  0.00  0.00    +0.316 C 
BRANCH  22  23
ATOM     23  O   UNL     1     -36.256  21.691   6.553  0.00  0.00    -0.480 OA
ATOM     24  H   UNL     1     -36.954  21.072   6.470  0.00  0.00    +0.295 HD
ENDBRANCH  22  23
ENDBRANCH  20  22
ENDBRANCH  13  20
ENDBRANCH  10  13
ENDBRANCH   3  11
BRANCH   8  25
ATOM     25  C   UNL     1     -40.861  25.486   2.670  0.00  0.00    +0.085 C 
BRANCH  25  26
ATOM     26  C   UNL     1     -41.235  26.539   3.700  0.00  0.00    +0.009 C 
BRANCH  26  28
ATOM     27  N   UNL     1     -44.935  28.199   2.202  0.00  0.00    +0.384 N 
ATOM     28  C   UNL     1     -42.708  26.932   3.636  0.00  0.00    -0.004 C 
ATOM     29  C   UNL     1     -43.407  26.263   2.446  0.00  0.00    -0.023 C 
ATOM     30  C   UNL     1     -42.867  28.455   3.545  0.00  0.00    -0.023 C 
ATOM     31  C   UNL     1     -44.852  26.741   2.313  0.00  0.00    -0.082 C 
ATOM     32  C   UNL     1     -44.335  28.847   3.369  0.00  0.00    -0.082 C 
ATOM     33  H   UNL     1     -45.915  28.473   2.135  0.00  0.00    -0.085 HD
ATOM     34  H   UNL     1     -44.425  28.492   1.368  0.00  0.00    -0.085 HD
ENDBRANCH  26  28
ENDBRANCH  25  26
ENDBRANCH   8  25
TORSDOF 9
ENDMDL
MODEL 7
REMARK VINA RESULT:      -6.1      2.728      7.230
REMARK  Name = 216230
REMARK  9 active torsions:
REMARK  status: ('A' for Active; 'I' for Inactive)
REMARK    1  A    between atoms: C_3  and  C_11
REMARK    2  A    between atoms: C_8  and  C_25
REMARK    3  A    between atoms: N_10  and  C_13
REMARK    4  A    between atoms: C_13  and  C_15
REMARK    5  A    between atoms: C_13  and  C_20
REMARK    6  A    between atoms: C_20  and  C_22
REMARK    7  A    between atoms: C_22  and  O_23
REMARK    8  A    between atoms: C_25  and  C_26
REMARK    9  A    between atoms: C_26  and  C_28
REMARK                            x       y       z     vdW  Elec       q    Type
REMARK                         _______ _______ _______ _____ _____    ______ ____
ROOT
ATOM      1  O   UNL     1     -31.093  25.946   1.268  0.00  0.00    -0.275 OA
ATOM      2  N   UNL     1     -32.617  25.133  -0.287  0.00  0.00    -0.279 N 
ATOM      3  C   UNL     1     -34.244  23.464  -1.140  0.00  0.00    +0.096 C 
ATOM      4  C   UNL     1     -33.993  24.927  -0.759  0.00  0.00    +0.102 C 
ATOM      5  C   UNL     1     -33.160  22.925  -2.079  0.00  0.00    +0.013 C 
ATOM      6  C   UNL     1     -31.751  23.210  -1.553  0.00  0.00    +0.022 C 
ATOM      7  C   UNL     1     -31.576  24.685  -1.213  0.00  0.00    +0.093 C 
ATOM      8  C   UNL     1     -32.257  25.746   0.914  0.00  0.00    +0.226 C 
ENDROOT
BRANCH   3  11
ATOM      9  O   UNL     1     -34.639  23.087   1.187  0.00  0.00    -0.275 OA
ATOM     10  N   UNL     1     -34.076  21.278  -0.167  0.00  0.00    -0.302 N 
ATOM     11  C   UNL     1     -34.354  22.610   0.092  0.00  0.00    +0.224 C 
ATOM     12  H   UNL     1     -33.859  21.017  -1.091  0.00  0.00    +0.150 HD
BRANCH  10  13
ATOM     13  C   UNL     1     -34.091  20.256   0.853  0.00  0.00    +0.107 C 
BRANCH  13  15
ATOM     14  N   UNL     1     -31.622  17.473   1.457  0.00  0.00    -0.243 NA
ATOM     15  C   UNL     1     -32.813  19.441   0.797  0.00  0.00    +0.015 C 
ATOM     16  C   UNL     1     -31.736  19.902   0.076  0.00  0.00    +0.000 C 
ATOM     17  C   UNL     1     -32.730  18.247   1.465  0.00  0.00    +0.096 C 
ATOM     18  C   UNL     1     -30.577  19.133   0.044  0.00  0.00    +0.020 C 
ATOM     19  C   UNL     1     -30.571  17.938   0.744  0.00  0.00    +0.099 C 
ENDBRANCH  13  15
BRANCH  13  20
ATOM     20  C   UNL     1     -35.369  19.411   0.724  0.00  0.00    +0.133 C 
BRANCH  20  22
ATOM     21  O   UNL     1     -37.330  20.861   0.767  0.00  0.00    -0.250 OA
ATOM     22  C   UNL     1     -36.588  20.070   1.333  0.00  0.00    +0.316 C 
BRANCH  22  23
ATOM     23  O   UNL     1     -36.760  19.696   2.629  0.00  0.00    -0.480 OA
ATOM     24  H   UNL     1     -36.913  20.345   3.288  0.00  0.00    +0.295 HD
ENDBRANCH  22  23
ENDBRANCH  20  22
ENDBRANCH  13  20
ENDBRANCH  10  13
ENDBRANCH   3  11
BRANCH   8  25
ATOM     25  C   UNL     1     -33.386  26.178   1.817  0.00  0.00    +0.085 C 
BRANCH  25  26
ATOM     26  C   UNL     1     -33.073  25.825   3.261  0.00  0.00    +0.009 C 
BRANCH  26  28
ATOM     27  N   UNL     1     -36.810  24.114   4.605  0.00  0.00    +0.384 N 
ATOM     28  C   UNL     1     -34.328  25.601   4.100  0.00  0.00    -0.004 C 
ATOM     29  C   UNL     1     -34.335  24.196   4.718  0.00  0.00    -0.023 C 
ATOM     30  C   UNL     1     -35.595  25.808   3.262  0.00  0.00    -0.023 C 
ATOM     31  C   UNL     1     -35.640  23.927   5.466  0.00  0.00    -0.082 C 
ATOM     32  C   UNL     1     -36.851  25.476   4.068  0.00  0.00    -0.082 C 
ATOM     33  H   UNL     1     -37.655  23.944   5.149  0.00  0.00    -0.085 HD
ATOM     34  H   UNL     1     -36.749  23.459   3.825  0.00  0.00    -0.085 HD
ENDBRANCH  26  28
ENDBRANCH  25  26
ENDBRANCH   8  25
TORSDOF 9
ENDMDL
MODEL 8
REMARK VINA RESULT:      -6.1      2.427      6.041
REMARK  Name = 216230
REMARK  9 active torsions:
REMARK  status: ('A' for Active; 'I' for Inactive)
REMARK    1  A    between atoms: C_3  and  C_11
REMARK    2  A    between atoms: C_8  and  C_25
REMARK    3  A    between atoms: N_10  and  C_13
REMARK    4  A    between atoms: C_13  and  C_15
REMARK    5  A    between atoms: C_13  and  C_20
REMARK    6  A    between atoms: C_20  and  C_22
REMARK    7  A    between atoms: C_22  and  O_23
REMARK    8  A    between atoms: C_25  and  C_26
REMARK    9  A    between atoms: C_26  and  C_28
REMARK                            x       y       z     vdW  Elec       q    Type
REMARK                         _______ _______ _______ _____ _____    ______ ____
ROOT
ATOM      1  O   UNL     1     -37.345  26.950   2.074  0.00  0.00    -0.275 OA
ATOM      2  N   UNL     1     -35.570  25.885   3.132  0.00  0.00    -0.279 N 
ATOM      3  C   UNL     1     -34.509  23.973   4.306  0.00  0.00    +0.096 C 
ATOM      4  C   UNL     1     -34.440  24.945   3.124  0.00  0.00    +0.102 C 
ATOM      5  C   UNL     1     -34.723  24.704   5.636  0.00  0.00    +0.013 C 
ATOM      6  C   UNL     1     -35.885  25.697   5.564  0.00  0.00    +0.022 C 
ATOM      7  C   UNL     1     -35.736  26.638   4.375  0.00  0.00    +0.093 C 
ATOM      8  C   UNL     1     -36.428  26.125   2.058  0.00  0.00    +0.226 C 
ENDROOT
BRANCH   3  11
ATOM      9  O   UNL     1     -36.344  22.599   4.983  0.00  0.00    -0.275 OA
ATOM     10  N   UNL     1     -35.585  22.462   2.786  0.00  0.00    -0.302 N 
ATOM     11  C   UNL     1     -35.586  22.949   4.083  0.00  0.00    +0.224 C 
ATOM     12  H   UNL     1     -34.925  22.822   2.152  0.00  0.00    +0.150 HD
BRANCH  10  13
ATOM     13  C   UNL     1     -36.507  21.451   2.322  0.00  0.00    +0.107 C 
BRANCH  13  15
ATOM     14  N   UNL     1     -35.787  18.556   0.018  0.00  0.00    -0.243 NA
ATOM     15  C   UNL     1     -35.755  20.342   1.611  0.00  0.00    +0.015 C 
ATOM     16  C   UNL     1     -34.428  20.119   1.897  0.00  0.00    +0.000 C 
ATOM     17  C   UNL     1     -36.398  19.561   0.686  0.00  0.00    +0.096 C 
ATOM     18  C   UNL     1     -33.765  19.095   1.230  0.00  0.00    +0.020 C 
ATOM     19  C   UNL     1     -34.483  18.349   0.309  0.00  0.00    +0.099 C 
ENDBRANCH  13  15
BRANCH  13  20
ATOM     20  C   UNL     1     -37.604  22.103   1.464  0.00  0.00    +0.133 C 
BRANCH  20  22
ATOM     21  O   UNL     1     -39.933  21.917   2.162  0.00  0.00    -0.250 OA
ATOM     22  C   UNL     1     -38.845  22.468   2.251  0.00  0.00    +0.316 C 
BRANCH  22  23
ATOM     23  O   UNL     1     -38.617  23.525   3.074  0.00  0.00    -0.480 OA
ATOM     24  H   UNL     1     -37.953  23.472   3.733  0.00  0.00    +0.295 HD
ENDBRANCH  22  23
ENDBRANCH  20  22
ENDBRANCH  13  20
ENDBRANCH  10  13
ENDBRANCH   3  11
BRANCH   8  25
ATOM     25  C   UNL     1     -36.197  25.307   0.811  0.00  0.00    +0.085 C 
BRANCH  25  26
ATOM     26  C   UNL     1     -35.326  26.071  -0.171  0.00  0.00    +0.009 C 
BRANCH  26  28
ATOM     27  N   UNL     1     -31.863  23.493  -0.408  0.00  0.00    +0.384 N 
ATOM     28  C   UNL     1     -34.216  25.213  -0.770  0.00  0.00    -0.004 C 
ATOM     29  C   UNL     1     -34.325  23.758  -0.294  0.00  0.00    -0.023 C 
ATOM     30  C   UNL     1     -32.834  25.775  -0.417  0.00  0.00    -0.023 C 
ATOM     31  C   UNL     1     -33.152  22.921  -0.801  0.00  0.00    -0.082 C 
ATOM     32  C   UNL     1     -31.719  24.858  -0.920  0.00  0.00    -0.082 C 
ATOM     33  H   UNL     1     -31.112  22.914  -0.783  0.00  0.00    -0.085 HD
ATOM     34  H   UNL     1     -31.816  23.522   0.611  0.00  0.00    -0.085 HD
ENDBRANCH  26  28
ENDBRANCH  25  26
ENDBRANCH   8  25
TORSDOF 9
ENDMDL
MODEL 9
REMARK VINA RESULT:      -6.0      2.745      7.562
REMARK  Name = 216230
REMARK  9 active torsions:
REMARK  status: ('A' for Active; 'I' for Inactive)
REMARK    1  A    between atoms: C_3  and  C_11
REMARK    2  A    between atoms: C_8  and  C_25
REMARK    3  A    between atoms: N_10  and  C_13
REMARK    4  A    between atoms: C_13  and  C_15
REMARK    5  A    between atoms: C_13  and  C_20
REMARK    6  A    between atoms: C_20  and  C_22
REMARK    7  A    between atoms: C_22  and  O_23
REMARK    8  A    between atoms: C_25  and  C_26
REMARK    9  A    between atoms: C_26  and  C_28
REMARK                            x       y       z     vdW  Elec       q    Type
REMARK                         _______ _______ _______ _____ _____    ______ ____
ROOT
ATOM      1  O   UNL     1     -34.862  28.355   3.668  0.00  0.00    -0.275 OA
ATOM      2  N   UNL     1     -34.517  26.195   4.453  0.00  0.00    -0.279 N 
ATOM      3  C   UNL     1     -34.586  23.721   4.254  0.00  0.00    +0.096 C 
ATOM      4  C   UNL     1     -33.724  24.959   4.524  0.00  0.00    +0.102 C 
ATOM      5  C   UNL     1     -35.859  23.714   5.108  0.00  0.00    +0.013 C 
ATOM      6  C   UNL     1     -36.614  25.042   5.024  0.00  0.00    +0.022 C 
ATOM      7  C   UNL     1     -35.695  26.221   5.321  0.00  0.00    +0.093 C 
ATOM      8  C   UNL     1     -34.203  27.312   3.678  0.00  0.00    +0.226 C 
ENDROOT
BRANCH   3  11
ATOM      9  O   UNL     1     -34.262  24.200   1.934  0.00  0.00    -0.275 OA
ATOM     10  N   UNL     1     -36.053  22.853   2.566  0.00  0.00    -0.302 N 
ATOM     11  C   UNL     1     -34.926  23.625   2.793  0.00  0.00    +0.224 C 
ATOM     12  H   UNL     1     -36.501  22.441   3.340  0.00  0.00    +0.150 HD
BRANCH  10  13
ATOM     13  C   UNL     1     -36.601  22.622   1.250  0.00  0.00    +0.107 C 
BRANCH  13  15
ATOM     14  N   UNL     1     -40.340  22.541   0.783  0.00  0.00    -0.243 NA
ATOM     15  C   UNL     1     -38.045  23.082   1.196  0.00  0.00    +0.015 C 
ATOM     16  C   UNL     1     -38.362  24.387   1.488  0.00  0.00    +0.000 C 
ATOM     17  C   UNL     1     -39.034  22.197   0.852  0.00  0.00    +0.096 C 
ATOM     18  C   UNL     1     -39.695  24.780   1.429  0.00  0.00    +0.020 C 
ATOM     19  C   UNL     1     -40.636  23.828   1.075  0.00  0.00    +0.099 C 
ENDBRANCH  13  15
BRANCH  13  20
ATOM     20  C   UNL     1     -36.405  21.149   0.856  0.00  0.00    +0.133 C 
BRANCH  20  22
ATOM     21  O   UNL     1     -34.720  20.059   2.241  0.00  0.00    -0.250 OA
ATOM     22  C   UNL     1     -35.895  20.286   1.991  0.00  0.00    +0.316 C 
BRANCH  22  23
ATOM     23  O   UNL     1     -36.919  19.752   2.708  0.00  0.00    -0.480 OA
ATOM     24  H   UNL     1     -37.292  18.931   2.452  0.00  0.00    +0.295 HD
ENDBRANCH  22  23
ENDBRANCH  20  22
ENDBRANCH  13  20
ENDBRANCH  10  13
ENDBRANCH   3  11
BRANCH   8  25
ATOM     25  C   UNL     1     -32.976  27.208   2.806  0.00  0.00    +0.085 C 
BRANCH  25  26
ATOM     26  C   UNL     1     -32.019  28.351   3.100  0.00  0.00    +0.009 C 
BRANCH  26  28
ATOM     27  N   UNL     1     -29.869  29.538   6.658  0.00  0.00    +0.384 N 
ATOM     28  C   UNL     1     -31.476  28.316   4.526  0.00  0.00    -0.004 C 
ATOM     29  C   UNL     1     -31.963  29.527   5.331  0.00  0.00    -0.023 C 
ATOM     30  C   UNL     1     -29.943  28.269   4.529  0.00  0.00    -0.023 C 
ATOM     31  C   UNL     1     -31.332  29.556   6.723  0.00  0.00    -0.082 C 
ATOM     32  C   UNL     1     -29.391  28.347   5.953  0.00  0.00    -0.082 C 
ATOM     33  H   UNL     1     -29.493  29.538   7.606  0.00  0.00    -0.085 HD
ATOM     34  H   UNL     1     -29.555  30.365   6.150  0.00  0.00    -0.085 HD
ENDBRANCH  26  28
ENDBRANCH  25  26
ENDBRANCH   8  25
TORSDOF 9
ENDMDL
