MODEL 1
REMARK VINA RESULT:      -6.8      0.000      0.000
REMARK  Name = 57410862
REMARK  9 active torsions:
REMARK  status: ('A' for Active; 'I' for Inactive)
REMARK    1  A    between atoms: C_9  and  O_21
REMARK    2  A    between atoms: C_15  and  O_23
REMARK    3  A    between atoms: C_16  and  O_25
REMARK    4  A    between atoms: C_18  and  C_37
REMARK    5  A    between atoms: O_25  and  C_27
REMARK    6  A    between atoms: C_27  and  C_30
REMARK    7  A    between atoms: C_31  and  C_33
REMARK    8  A    between atoms: C_32  and  C_35
REMARK    9  A    between atoms: C_37  and  O_38
REMARK                            x       y       z     vdW  Elec       q    Type
REMARK                         _______ _______ _______ _____ _____    ______ ____
ROOT
ATOM      1  O   UNL     1     -32.720  29.783  -0.064  0.00  0.00    -0.296 OA
ATOM      2  C   UNL     1     -31.712  31.449   2.168  0.00  0.00    +0.011 C 
ATOM      3  C   UNL     1     -33.011  32.029   2.716  0.00  0.00    +0.001 C 
ATOM      4  C   UNL     1     -31.704  32.262   3.433  0.00  0.00    +0.001 C 
ATOM      5  C   UNL     1     -31.749  29.969   2.139  0.00  0.00    +0.079 C 
ATOM      6  C   UNL     1     -34.064  31.152   3.390  0.00  0.00    +0.001 C 
ATOM      7  C   UNL     1     -34.038  28.969   1.794  0.00  0.00    +0.080 C 
ATOM      8  C   UNL     1     -34.849  30.153   2.472  0.00  0.00    +0.009 C 
ATOM      9  C   UNL     1     -33.550  27.754   2.693  0.00  0.00    +0.159 C 
ATOM     10  C   UNL     1     -32.825  29.576   1.144  0.00  0.00    +0.156 C 
ATOM     11  C   UNL     1     -31.132  33.637   3.346  0.00  0.00    +0.000 C 
ATOM     12  C   UNL     1     -31.390  31.590   4.727  0.00  0.00    +0.000 C 
ATOM     13  C   UNL     1     -30.637  29.042   1.859  0.00  0.00    -0.023 C 
ATOM     14  C   UNL     1     -34.864  28.217   0.773  0.00  0.00    +0.013 C 
ATOM     15  C   UNL     1     -32.212  27.010   2.191  0.00  0.00    +0.159 C 
ATOM     16  C   UNL     1     -34.740  26.746   2.591  0.00  0.00    +0.196 C 
ATOM     17  C   UNL     1     -35.646  30.984   1.443  0.00  0.00    +0.001 C 
ATOM     18  C   UNL     1     -30.854  27.707   1.905  0.00  0.00    +0.010 C 
ATOM     19  C   UNL     1     -35.263  27.018   1.217  0.00  0.00    +0.043 C 
ATOM     20  C   UNL     1     -36.132  26.045   0.506  0.00  0.00    +0.004 C 
ENDROOT
BRANCH   9  21
ATOM     21  O   UNL     1     -33.401  28.120   4.061  0.00  0.00    -0.380 OA
ATOM     22  H   UNL     1     -33.074  29.032   4.117  0.00  0.00    +0.211 HD
ENDBRANCH   9  21
BRANCH  15  23
ATOM     23  O   UNL     1     -31.957  25.948   3.128  0.00  0.00    -0.378 OA
ATOM     24  H   UNL     1     -31.933  26.309   4.028  0.00  0.00    +0.211 HD
ENDBRANCH  15  23
BRANCH  16  25
ATOM     25  O   UNL     1     -35.779  27.026   3.521  0.00  0.00    -0.447 OA
BRANCH  25  27
ATOM     26  O   UNL     1     -35.505  26.346   5.703  0.00  0.00    -0.245 OA
ATOM     27  C   UNL     1     -35.899  26.157   4.563  0.00  0.00    +0.345 C 
BRANCH  27  30
ATOM     28  O   UNL     1     -37.040  22.756   3.806  0.00  0.00    -0.358 OA
ATOM     29  N   UNL     1     -38.095  23.461   3.238  0.00  0.00    -0.082 NA
ATOM     30  C   UNL     1     -36.590  24.915   4.134  0.00  0.00    +0.125 A 
ATOM     31  C   UNL     1     -36.150  23.633   4.336  0.00  0.00    +0.160 A 
ATOM     32  C   UNL     1     -37.804  24.748   3.446  0.00  0.00    +0.106 A 
BRANCH  31  33
ATOM     33  C   UNL     1     -34.966  23.049   4.980  0.00  0.00    +0.068 C 
ATOM     34  C   UNL     1     -35.302  22.247   6.245  0.00  0.00    +0.009 C 
ENDBRANCH  31  33
BRANCH  32  35
ATOM     35  C   UNL     1     -38.726  25.790   2.964  0.00  0.00    +0.049 C 
ATOM     36  C   UNL     1     -40.191  25.336   2.953  0.00  0.00    +0.007 C 
ENDBRANCH  32  35
ENDBRANCH  27  30
ENDBRANCH  25  27
ENDBRANCH  16  25
BRANCH  18  37
ATOM     37  C   UNL     1     -29.714  26.773   1.577  0.00  0.00    +0.161 C 
BRANCH  37  38
ATOM     38  O   UNL     1     -29.198  26.226   2.771  0.00  0.00    -0.377 OA
ATOM     39  H   UNL     1     -29.730  26.532   3.522  0.00  0.00    +0.211 HD
ENDBRANCH  37  38
ENDBRANCH  18  37
TORSDOF 9
ENDMDL
MODEL 2
REMARK VINA RESULT:      -6.7      6.139      9.389
REMARK  Name = 57410862
REMARK  9 active torsions:
REMARK  status: ('A' for Active; 'I' for Inactive)
REMARK    1  A    between atoms: C_9  and  O_21
REMARK    2  A    between atoms: C_15  and  O_23
REMARK    3  A    between atoms: C_16  and  O_25
REMARK    4  A    between atoms: C_18  and  C_37
REMARK    5  A    between atoms: O_25  and  C_27
REMARK    6  A    between atoms: C_27  and  C_30
REMARK    7  A    between atoms: C_31  and  C_33
REMARK    8  A    between atoms: C_32  and  C_35
REMARK    9  A    between atoms: C_37  and  O_38
REMARK                            x       y       z     vdW  Elec       q    Type
REMARK                         _______ _______ _______ _____ _____    ______ ____
ROOT
ATOM      1  O   UNL     1     -33.783  19.413  -3.162  0.00  0.00    -0.296 OA
ATOM      2  C   UNL     1     -31.632  18.121  -1.588  0.00  0.00    +0.011 C 
ATOM      3  C   UNL     1     -30.931  19.336  -0.989  0.00  0.00    +0.001 C 
ATOM      4  C   UNL     1     -30.538  17.940  -0.572  0.00  0.00    +0.001 C 
ATOM      5  C   UNL     1     -33.075  18.109  -1.257  0.00  0.00    +0.079 C 
ATOM      6  C   UNL     1     -31.616  20.235   0.039  0.00  0.00    +0.001 C 
ATOM      7  C   UNL     1     -34.119  20.387  -0.973  0.00  0.00    +0.080 C 
ATOM      8  C   UNL     1     -32.804  21.120  -0.473  0.00  0.00    +0.009 C 
ATOM      9  C   UNL     1     -35.084  19.718   0.096  0.00  0.00    +0.159 C 
ATOM     10  C   UNL     1     -33.692  19.316  -1.939  0.00  0.00    +0.156 C 
ATOM     11  C   UNL     1     -29.226  17.439  -1.077  0.00  0.00    +0.000 C 
ATOM     12  C   UNL     1     -30.879  17.399   0.775  0.00  0.00    +0.000 C 
ATOM     13  C   UNL     1     -34.046  17.024  -1.488  0.00  0.00    -0.023 C 
ATOM     14  C   UNL     1     -35.093  21.338  -1.636  0.00  0.00    +0.013 C 
ATOM     15  C   UNL     1     -35.932  18.451  -0.426  0.00  0.00    +0.159 C 
ATOM     16  C   UNL     1     -36.082  20.871   0.435  0.00  0.00    +0.196 C 
ATOM     17  C   UNL     1     -32.242  22.101  -1.525  0.00  0.00    +0.001 C 
ATOM     18  C   UNL     1     -35.329  17.183  -1.090  0.00  0.00    +0.010 C 
ATOM     19  C   UNL     1     -36.147  21.617  -0.859  0.00  0.00    +0.043 C 
ATOM     20  C   UNL     1     -37.260  22.554  -1.166  0.00  0.00    +0.004 C 
ENDROOT
BRANCH   9  21
ATOM     21  O   UNL     1     -34.400  19.365   1.294  0.00  0.00    -0.380 OA
ATOM     22  H   UNL     1     -34.119  20.171   1.756  0.00  0.00    +0.211 HD
ENDBRANCH   9  21
BRANCH  15  23
ATOM     23  O   UNL     1     -36.738  18.011   0.682  0.00  0.00    -0.378 OA
ATOM     24  H   UNL     1     -36.534  17.085   0.883  0.00  0.00    +0.211 HD
ENDBRANCH  15  23
BRANCH  16  25
ATOM     25  O   UNL     1     -35.582  21.758   1.428  0.00  0.00    -0.447 OA
BRANCH  25  27
ATOM     26  O   UNL     1     -35.840  20.454   3.308  0.00  0.00    -0.245 OA
ATOM     27  C   UNL     1     -35.979  21.507   2.707  0.00  0.00    +0.345 C 
BRANCH  27  30
ATOM     28  O   UNL     1     -37.012  24.448   4.638  0.00  0.00    -0.358 OA
ATOM     29  N   UNL     1     -38.054  24.427   3.718  0.00  0.00    -0.082 NA
ATOM     30  C   UNL     1     -36.622  22.706   3.302  0.00  0.00    +0.125 A 
ATOM     31  C   UNL     1     -36.166  23.418   4.380  0.00  0.00    +0.160 A 
ATOM     32  C   UNL     1     -37.799  23.379   2.930  0.00  0.00    +0.106 A 
BRANCH  31  33
ATOM     33  C   UNL     1     -35.002  23.295   5.268  0.00  0.00    +0.068 C 
ATOM     34  C   UNL     1     -35.160  22.190   6.321  0.00  0.00    +0.009 C 
ENDBRANCH  31  33
BRANCH  32  35
ATOM     35  C   UNL     1     -38.719  23.056   1.827  0.00  0.00    +0.049 C 
ATOM     36  C   UNL     1     -39.522  21.773   2.071  0.00  0.00    +0.007 C 
ENDBRANCH  32  35
ENDBRANCH  27  30
ENDBRANCH  25  27
ENDBRANCH  16  25
BRANCH  18  37
ATOM     37  C   UNL     1     -36.319  16.077  -1.368  0.00  0.00    +0.161 C 
BRANCH  37  38
ATOM     38  O   UNL     1     -36.399  15.225  -0.245  0.00  0.00    -0.377 OA
ATOM     39  H   UNL     1     -36.347  14.302  -0.536  0.00  0.00    +0.211 HD
ENDBRANCH  37  38
ENDBRANCH  18  37
TORSDOF 9
ENDMDL
MODEL 3
REMARK VINA RESULT:      -6.7      0.336      2.069
REMARK  Name = 57410862
REMARK  9 active torsions:
REMARK  status: ('A' for Active; 'I' for Inactive)
REMARK    1  A    between atoms: C_9  and  O_21
REMARK    2  A    between atoms: C_15  and  O_23
REMARK    3  A    between atoms: C_16  and  O_25
REMARK    4  A    between atoms: C_18  and  C_37
REMARK    5  A    between atoms: O_25  and  C_27
REMARK    6  A    between atoms: C_27  and  C_30
REMARK    7  A    between atoms: C_31  and  C_33
REMARK    8  A    between atoms: C_32  and  C_35
REMARK    9  A    between atoms: C_37  and  O_38
REMARK                            x       y       z     vdW  Elec       q    Type
REMARK                         _______ _______ _______ _____ _____    ______ ____
ROOT
ATOM      1  O   UNL     1     -32.752  29.791  -0.079  0.00  0.00    -0.296 OA
ATOM      2  C   UNL     1     -31.698  31.443   2.142  0.00  0.00    +0.011 C 
ATOM      3  C   UNL     1     -32.984  32.033   2.709  0.00  0.00    +0.001 C 
ATOM      4  C   UNL     1     -31.666  32.253   3.409  0.00  0.00    +0.001 C 
ATOM      5  C   UNL     1     -31.749  29.963   2.110  0.00  0.00    +0.079 C 
ATOM      6  C   UNL     1     -34.036  31.164   3.397  0.00  0.00    +0.001 C 
ATOM      7  C   UNL     1     -34.052  28.985   1.796  0.00  0.00    +0.080 C 
ATOM      8  C   UNL     1     -34.842  30.174   2.488  0.00  0.00    +0.009 C 
ATOM      9  C   UNL     1     -33.562  27.763   2.684  0.00  0.00    +0.159 C 
ATOM     10  C   UNL     1     -32.843  29.582   1.130  0.00  0.00    +0.156 C 
ATOM     11  C   UNL     1     -31.082  33.623   3.317  0.00  0.00    +0.000 C 
ATOM     12  C   UNL     1     -31.339  31.575   4.697  0.00  0.00    +0.000 C 
ATOM     13  C   UNL     1     -30.649  29.027   1.812  0.00  0.00    -0.023 C 
ATOM     14  C   UNL     1     -34.899  28.242   0.785  0.00  0.00    +0.013 C 
ATOM     15  C   UNL     1     -32.238  27.009   2.162  0.00  0.00    +0.159 C 
ATOM     16  C   UNL     1     -34.762  26.766   2.598  0.00  0.00    +0.196 C 
ATOM     17  C   UNL     1     -35.646  31.015   1.472  0.00  0.00    +0.001 C 
ATOM     18  C   UNL     1     -30.878  27.694   1.858  0.00  0.00    +0.010 C 
ATOM     19  C   UNL     1     -35.302  27.046   1.232  0.00  0.00    +0.043 C 
ATOM     20  C   UNL     1     -36.190  26.083   0.531  0.00  0.00    +0.004 C 
ENDROOT
BRANCH   9  21
ATOM     21  O   UNL     1     -33.391  28.125   4.051  0.00  0.00    -0.380 OA
ATOM     22  H   UNL     1     -34.095  28.738   4.314  0.00  0.00    +0.211 HD
ENDBRANCH   9  21
BRANCH  15  23
ATOM     23  O   UNL     1     -31.979  25.942   3.093  0.00  0.00    -0.378 OA
ATOM     24  H   UNL     1     -32.798  25.450   3.258  0.00  0.00    +0.211 HD
ENDBRANCH  15  23
BRANCH  16  25
ATOM     25  O   UNL     1     -35.785  27.053   3.542  0.00  0.00    -0.447 OA
BRANCH  25  27
ATOM     26  O   UNL     1     -35.513  26.388   5.729  0.00  0.00    -0.245 OA
ATOM     27  C   UNL     1     -35.895  26.186   4.587  0.00  0.00    +0.345 C 
BRANCH  27  30
ATOM     28  O   UNL     1     -38.043  23.517   3.283  0.00  0.00    -0.358 OA
ATOM     29  N   UNL     1     -37.012  22.729   3.781  0.00  0.00    -0.082 NA
ATOM     30  C   UNL     1     -36.555  24.927   4.158  0.00  0.00    +0.125 A 
ATOM     31  C   UNL     1     -37.760  24.824   3.514  0.00  0.00    +0.160 A 
ATOM     32  C   UNL     1     -36.135  23.594   4.298  0.00  0.00    +0.106 A 
BRANCH  31  33
ATOM     33  C   UNL     1     -38.756  25.797   3.047  0.00  0.00    +0.068 C 
ATOM     34  C   UNL     1     -40.128  25.170   2.767  0.00  0.00    +0.009 C 
ENDBRANCH  31  33
BRANCH  32  35
ATOM     35  C   UNL     1     -34.899  23.092   4.923  0.00  0.00    +0.049 C 
ATOM     36  C   UNL     1     -35.164  22.205   6.146  0.00  0.00    +0.007 C 
ENDBRANCH  32  35
ENDBRANCH  27  30
ENDBRANCH  25  27
ENDBRANCH  16  25
BRANCH  18  37
ATOM     37  C   UNL     1     -29.751  26.751   1.512  0.00  0.00    +0.161 C 
BRANCH  37  38
ATOM     38  O   UNL     1     -29.254  26.161   2.694  0.00  0.00    -0.377 OA
ATOM     39  H   UNL     1     -29.900  26.276   3.408  0.00  0.00    +0.211 HD
ENDBRANCH  37  38
ENDBRANCH  18  37
TORSDOF 9
ENDMDL
MODEL 4
REMARK VINA RESULT:      -6.7      5.969      9.439
REMARK  Name = 57410862
REMARK  9 active torsions:
REMARK  status: ('A' for Active; 'I' for Inactive)
REMARK    1  A    between atoms: C_9  and  O_21
REMARK    2  A    between atoms: C_15  and  O_23
REMARK    3  A    between atoms: C_16  and  O_25
REMARK    4  A    between atoms: C_18  and  C_37
REMARK    5  A    between atoms: O_25  and  C_27
REMARK    6  A    between atoms: C_27  and  C_30
REMARK    7  A    between atoms: C_31  and  C_33
REMARK    8  A    between atoms: C_32  and  C_35
REMARK    9  A    between atoms: C_37  and  O_38
REMARK                            x       y       z     vdW  Elec       q    Type
REMARK                         _______ _______ _______ _____ _____    ______ ____
ROOT
ATOM      1  O   UNL     1     -34.242  19.455  -2.945  0.00  0.00    -0.296 OA
ATOM      2  C   UNL     1     -32.072  18.521  -1.160  0.00  0.00    +0.011 C 
ATOM      3  C   UNL     1     -31.580  19.840  -0.574  0.00  0.00    +0.001 C 
ATOM      4  C   UNL     1     -31.045  18.526  -0.061  0.00  0.00    +0.001 C 
ATOM      5  C   UNL     1     -33.523  18.333  -0.932  0.00  0.00    +0.079 C 
ATOM      6  C   UNL     1     -32.451  20.683   0.356  0.00  0.00    +0.001 C 
ATOM      7  C   UNL     1     -34.868  20.465  -0.838  0.00  0.00    +0.080 C 
ATOM      8  C   UNL     1     -33.699  21.384  -0.283  0.00  0.00    +0.009 C 
ATOM      9  C   UNL     1     -35.819  19.719   0.193  0.00  0.00    +0.159 C 
ATOM     10  C   UNL     1     -34.235  19.421  -1.716  0.00  0.00    +0.156 C 
ATOM     11  C   UNL     1     -29.645  18.181  -0.446  0.00  0.00    +0.000 C 
ATOM     12  C   UNL     1     -31.417  18.000   1.284  0.00  0.00    +0.000 C 
ATOM     13  C   UNL     1     -34.327  17.122  -1.176  0.00  0.00    -0.023 C 
ATOM     14  C   UNL     1     -35.901  21.253  -1.614  0.00  0.00    +0.013 C 
ATOM     15  C   UNL     1     -36.456  18.333  -0.324  0.00  0.00    +0.159 C 
ATOM     16  C   UNL     1     -36.979  20.745   0.401  0.00  0.00    +0.196 C 
ATOM     17  C   UNL     1     -33.188  22.386  -1.341  0.00  0.00    +0.001 C 
ATOM     18  C   UNL     1     -35.647  17.128  -0.879  0.00  0.00    +0.010 C 
ATOM     19  C   UNL     1     -37.039  21.423  -0.930  0.00  0.00    +0.043 C 
ATOM     20  C   UNL     1     -38.234  22.193  -1.361  0.00  0.00    +0.004 C 
ENDROOT
BRANCH   9  21
ATOM     21  O   UNL     1     -35.189  19.508   1.452  0.00  0.00    -0.380 OA
ATOM     22  H   UNL     1     -34.230  19.425   1.324  0.00  0.00    +0.211 HD
ENDBRANCH   9  21
BRANCH  15  23
ATOM     23  O   UNL     1     -37.282  17.836   0.745  0.00  0.00    -0.378 OA
ATOM     24  H   UNL     1     -37.905  17.181   0.395  0.00  0.00    +0.211 HD
ENDBRANCH  15  23
BRANCH  16  25
ATOM     25  O   UNL     1     -36.674  21.729   1.382  0.00  0.00    -0.447 OA
BRANCH  25  27
ATOM     26  O   UNL     1     -38.809  21.581   2.230  0.00  0.00    -0.245 OA
ATOM     27  C   UNL     1     -37.683  22.053   2.238  0.00  0.00    +0.345 C 
BRANCH  27  30
ATOM     28  O   UNL     1     -37.050  25.016   4.301  0.00  0.00    -0.358 OA
ATOM     29  N   UNL     1     -36.158  24.143   4.912  0.00  0.00    -0.082 NA
ATOM     30  C   UNL     1     -37.236  23.081   3.212  0.00  0.00    +0.125 A 
ATOM     31  C   UNL     1     -37.686  24.372   3.289  0.00  0.00    +0.160 A 
ATOM     32  C   UNL     1     -36.287  22.994   4.245  0.00  0.00    +0.106 A 
BRANCH  31  33
ATOM     33  C   UNL     1     -38.670  25.159   2.535  0.00  0.00    +0.068 C 
ATOM     34  C   UNL     1     -40.091  25.057   3.106  0.00  0.00    +0.009 C 
ENDBRANCH  31  33
BRANCH  32  35
ATOM     35  C   UNL     1     -35.473  21.830   4.635  0.00  0.00    +0.049 C 
ATOM     36  C   UNL     1     -35.119  21.819   6.127  0.00  0.00    +0.007 C 
ENDBRANCH  32  35
ENDBRANCH  27  30
ENDBRANCH  25  27
ENDBRANCH  16  25
BRANCH  18  37
ATOM     37  C   UNL     1     -36.464  15.892  -1.171  0.00  0.00    +0.161 C 
BRANCH  37  38
ATOM     38  O   UNL     1     -36.431  15.033  -0.051  0.00  0.00    -0.377 OA
ATOM     39  H   UNL     1     -36.235  15.550   0.746  0.00  0.00    +0.211 HD
ENDBRANCH  37  38
ENDBRANCH  18  37
TORSDOF 9
ENDMDL
MODEL 5
REMARK VINA RESULT:      -6.7      5.989      9.225
REMARK  Name = 57410862
REMARK  9 active torsions:
REMARK  status: ('A' for Active; 'I' for Inactive)
REMARK    1  A    between atoms: C_9  and  O_21
REMARK    2  A    between atoms: C_15  and  O_23
REMARK    3  A    between atoms: C_16  and  O_25
REMARK    4  A    between atoms: C_18  and  C_37
REMARK    5  A    between atoms: O_25  and  C_27
REMARK    6  A    between atoms: C_27  and  C_30
REMARK    7  A    between atoms: C_31  and  C_33
REMARK    8  A    between atoms: C_32  and  C_35
REMARK    9  A    between atoms: C_37  and  O_38
REMARK                            x       y       z     vdW  Elec       q    Type
REMARK                         _______ _______ _______ _____ _____    ______ ____
ROOT
ATOM      1  O   UNL     1     -34.254  19.323  -2.949  0.00  0.00    -0.296 OA
ATOM      2  C   UNL     1     -32.086  18.507  -1.104  0.00  0.00    +0.011 C 
ATOM      3  C   UNL     1     -31.618  19.860  -0.578  0.00  0.00    +0.001 C 
ATOM      4  C   UNL     1     -31.069  18.580   0.002  0.00  0.00    +0.001 C 
ATOM      5  C   UNL     1     -33.536  18.309  -0.878  0.00  0.00    +0.079 C 
ATOM      6  C   UNL     1     -32.509  20.733   0.303  0.00  0.00    +0.001 C 
ATOM      7  C   UNL     1     -34.912  20.422  -0.897  0.00  0.00    +0.080 C 
ATOM      8  C   UNL     1     -33.761  21.384  -0.378  0.00  0.00    +0.009 C 
ATOM      9  C   UNL     1     -35.861  19.713   0.160  0.00  0.00    +0.159 C 
ATOM     10  C   UNL     1     -34.257  19.347  -1.720  0.00  0.00    +0.156 C 
ATOM     11  C   UNL     1     -29.661  18.237  -0.355  0.00  0.00    +0.000 C 
ATOM     12  C   UNL     1     -31.445  18.113   1.367  0.00  0.00    +0.000 C 
ATOM     13  C   UNL     1     -34.321  17.076  -1.070  0.00  0.00    -0.023 C 
ATOM     14  C   UNL     1     -35.949  21.157  -1.719  0.00  0.00    +0.013 C 
ATOM     15  C   UNL     1     -36.474  18.294  -0.295  0.00  0.00    +0.159 C 
ATOM     16  C   UNL     1     -37.037  20.731   0.310  0.00  0.00    +0.196 C 
ATOM     17  C   UNL     1     -33.255  22.342  -1.479  0.00  0.00    +0.001 C 
ATOM     18  C   UNL     1     -35.643  17.076  -0.784  0.00  0.00    +0.010 C 
ATOM     19  C   UNL     1     -37.096  21.343  -1.053  0.00  0.00    +0.043 C 
ATOM     20  C   UNL     1     -38.298  22.074  -1.530  0.00  0.00    +0.004 C 
ENDROOT
BRANCH   9  21
ATOM     21  O   UNL     1     -35.239  19.572   1.433  0.00  0.00    -0.380 OA
ATOM     22  H   UNL     1     -35.875  19.800   2.131  0.00  0.00    +0.211 HD
ENDBRANCH   9  21
BRANCH  15  23
ATOM     23  O   UNL     1     -37.302  17.837   0.790  0.00  0.00    -0.378 OA
ATOM     24  H   UNL     1     -36.856  17.114   1.255  0.00  0.00    +0.211 HD
ENDBRANCH  15  23
BRANCH  16  25
ATOM     25  O   UNL     1     -36.755  21.765   1.245  0.00  0.00    -0.447 OA
BRANCH  25  27
ATOM     26  O   UNL     1     -38.840  21.521   2.189  0.00  0.00    -0.245 OA
ATOM     27  C   UNL     1     -37.728  22.023   2.163  0.00  0.00    +0.345 C 
BRANCH  27  30
ATOM     28  O   UNL     1     -36.147  23.944   4.855  0.00  0.00    -0.358 OA
ATOM     29  N   UNL     1     -36.990  24.933   4.362  0.00  0.00    -0.082 NA
ATOM     30  C   UNL     1     -37.259  23.018   3.160  0.00  0.00    +0.125 A 
ATOM     31  C   UNL     1     -36.317  22.808   4.132  0.00  0.00    +0.160 A 
ATOM     32  C   UNL     1     -37.643  24.357   3.350  0.00  0.00    +0.106 A 
BRANCH  31  33
ATOM     33  C   UNL     1     -35.494  21.657   4.526  0.00  0.00    +0.068 C 
ATOM     34  C   UNL     1     -35.128  21.660   6.017  0.00  0.00    +0.009 C 
ENDBRANCH  31  33
BRANCH  32  35
ATOM     35  C   UNL     1     -38.636  25.133   2.588  0.00  0.00    +0.049 C 
ATOM     36  C   UNL     1     -40.075  24.903   3.069  0.00  0.00    +0.007 C 
ENDBRANCH  32  35
ENDBRANCH  27  30
ENDBRANCH  25  27
ENDBRANCH  16  25
BRANCH  18  37
ATOM     37  C   UNL     1     -36.440  15.816  -1.023  0.00  0.00    +0.161 C 
BRANCH  37  38
ATOM     38  O   UNL     1     -36.773  15.230   0.217  0.00  0.00    -0.377 OA
ATOM     39  H   UNL     1     -36.099  14.576   0.456  0.00  0.00    +0.211 HD
ENDBRANCH  37  38
ENDBRANCH  18  37
TORSDOF 9
ENDMDL
MODEL 6
REMARK VINA RESULT:      -6.6      5.552      9.183
REMARK  Name = 57410862
REMARK  9 active torsions:
REMARK  status: ('A' for Active; 'I' for Inactive)
REMARK    1  A    between atoms: C_9  and  O_21
REMARK    2  A    between atoms: C_15  and  O_23
REMARK    3  A    between atoms: C_16  and  O_25
REMARK    4  A    between atoms: C_18  and  C_37
REMARK    5  A    between atoms: O_25  and  C_27
REMARK    6  A    between atoms: C_27  and  C_30
REMARK    7  A    between atoms: C_31  and  C_33
REMARK    8  A    between atoms: C_32  and  C_35
REMARK    9  A    between atoms: C_37  and  O_38
REMARK                            x       y       z     vdW  Elec       q    Type
REMARK                         _______ _______ _______ _____ _____    ______ ____
ROOT
ATOM      1  O   UNL     1     -34.528  19.878  -2.803  0.00  0.00    -0.296 OA
ATOM      2  C   UNL     1     -32.416  18.270  -1.489  0.00  0.00    +0.011 C 
ATOM      3  C   UNL     1     -31.435  19.357  -1.066  0.00  0.00    +0.001 C 
ATOM      4  C   UNL     1     -31.228  17.926  -0.635  0.00  0.00    +0.001 C 
ATOM      5  C   UNL     1     -33.772  18.523  -0.952  0.00  0.00    +0.079 C 
ATOM      6  C   UNL     1     -31.791  20.393  -0.000  0.00  0.00    +0.001 C 
ATOM      7  C   UNL     1     -34.356  20.958  -0.645  0.00  0.00    +0.080 C 
ATOM      8  C   UNL     1     -32.873  21.460  -0.382  0.00  0.00    +0.009 C 
ATOM      9  C   UNL     1     -35.246  20.502   0.589  0.00  0.00    +0.159 C 
ATOM     10  C   UNL     1     -34.271  19.802  -1.603  0.00  0.00    +0.156 C 
ATOM     11  C   UNL     1     -30.113  17.186  -1.296  0.00  0.00    +0.000 C 
ATOM     12  C   UNL     1     -31.447  17.493   0.775  0.00  0.00    +0.000 C 
ATOM     13  C   UNL     1     -34.939  17.622  -0.979  0.00  0.00    -0.023 C 
ATOM     14  C   UNL     1     -35.241  22.048  -1.210  0.00  0.00    +0.013 C 
ATOM     15  C   UNL     1     -36.368  19.392   0.265  0.00  0.00    +0.159 C 
ATOM     16  C   UNL     1     -35.968  21.823   1.004  0.00  0.00    +0.196 C 
ATOM     17  C   UNL     1     -32.319  22.295  -1.557  0.00  0.00    +0.001 C 
ATOM     18  C   UNL     1     -36.100  18.018  -0.409  0.00  0.00    +0.010 C 
ATOM     19  C   UNL     1     -36.101  22.531  -0.305  0.00  0.00    +0.043 C 
ATOM     20  C   UNL     1     -37.070  23.642  -0.498  0.00  0.00    +0.004 C 
ENDROOT
BRANCH   9  21
ATOM     21  O   UNL     1     -34.458  20.067   1.691  0.00  0.00    -0.380 OA
ATOM     22  H   UNL     1     -34.380  20.788   2.337  0.00  0.00    +0.211 HD
ENDBRANCH   9  21
BRANCH  15  23
ATOM     23  O   UNL     1     -37.059  19.133   1.501  0.00  0.00    -0.378 OA
ATOM     24  H   UNL     1     -37.955  19.501   1.453  0.00  0.00    +0.211 HD
ENDBRANCH  15  23
BRANCH  16  25
ATOM     25  O   UNL     1     -35.178  22.635   1.865  0.00  0.00    -0.447 OA
BRANCH  25  27
ATOM     26  O   UNL     1     -37.057  23.269   3.034  0.00  0.00    -0.245 OA
ATOM     27  C   UNL     1     -35.856  23.326   2.824  0.00  0.00    +0.345 C 
BRANCH  27  30
ATOM     28  O   UNL     1     -33.786  25.042   5.316  0.00  0.00    -0.358 OA
ATOM     29  N   UNL     1     -33.415  25.777   4.196  0.00  0.00    -0.082 NA
ATOM     30  C   UNL     1     -34.930  24.183   3.607  0.00  0.00    +0.125 A 
ATOM     31  C   UNL     1     -34.689  24.096   4.952  0.00  0.00    +0.160 A 
ATOM     32  C   UNL     1     -34.111  25.245   3.188  0.00  0.00    +0.106 A 
BRANCH  31  33
ATOM     33  C   UNL     1     -35.188  23.225   6.026  0.00  0.00    +0.068 C 
ATOM     34  C   UNL     1     -34.812  21.750   5.830  0.00  0.00    +0.009 C 
ENDBRANCH  31  33
BRANCH  32  35
ATOM     35  C   UNL     1     -33.958  25.794   1.830  0.00  0.00    +0.049 C 
ATOM     36  C   UNL     1     -32.871  25.082   1.014  0.00  0.00    +0.007 C 
ENDBRANCH  32  35
ENDBRANCH  27  30
ENDBRANCH  25  27
ENDBRANCH  16  25
BRANCH  18  37
ATOM     37  C   UNL     1     -37.296  17.098  -0.480  0.00  0.00    +0.161 C 
BRANCH  37  38
ATOM     38  O   UNL     1     -37.437  16.418   0.749  0.00  0.00    -0.377 OA
ATOM     39  H   UNL     1     -38.380  16.302   0.947  0.00  0.00    +0.211 HD
ENDBRANCH  37  38
ENDBRANCH  18  37
TORSDOF 9
ENDMDL
MODEL 7
REMARK VINA RESULT:      -6.6      7.558     11.188
REMARK  Name = 57410862
REMARK  9 active torsions:
REMARK  status: ('A' for Active; 'I' for Inactive)
REMARK    1  A    between atoms: C_9  and  O_21
REMARK    2  A    between atoms: C_15  and  O_23
REMARK    3  A    between atoms: C_16  and  O_25
REMARK    4  A    between atoms: C_18  and  C_37
REMARK    5  A    between atoms: O_25  and  C_27
REMARK    6  A    between atoms: C_27  and  C_30
REMARK    7  A    between atoms: C_31  and  C_33
REMARK    8  A    between atoms: C_32  and  C_35
REMARK    9  A    between atoms: C_37  and  O_38
REMARK                            x       y       z     vdW  Elec       q    Type
REMARK                         _______ _______ _______ _____ _____    ______ ____
ROOT
ATOM      1  O   UNL     1     -44.209  25.304   1.262  0.00  0.00    -0.296 OA
ATOM      2  C   UNL     1     -43.150  27.266  -0.688  0.00  0.00    +0.011 C 
ATOM      3  C   UNL     1     -44.295  28.271  -0.750  0.00  0.00    +0.001 C 
ATOM      4  C   UNL     1     -42.993  28.546  -1.461  0.00  0.00    +0.001 C 
ATOM      5  C   UNL     1     -42.669  27.077   0.700  0.00  0.00    +0.079 C 
ATOM      6  C   UNL     1     -44.668  29.143   0.448  0.00  0.00    +0.001 C 
ATOM      7  C   UNL     1     -44.426  27.380   2.484  0.00  0.00    +0.080 C 
ATOM      8  C   UNL     1     -45.315  28.419   1.678  0.00  0.00    +0.009 C 
ATOM      9  C   UNL     1     -43.262  27.922   3.419  0.00  0.00    +0.159 C 
ATOM     10  C   UNL     1     -43.810  26.447   1.478  0.00  0.00    +0.156 C 
ATOM     11  C   UNL     1     -43.011  28.440  -2.950  0.00  0.00    +0.000 C 
ATOM     12  C   UNL     1     -42.036  29.579  -0.971  0.00  0.00    +0.000 C 
ATOM     13  C   UNL     1     -41.472  26.343   1.150  0.00  0.00    -0.023 C 
ATOM     14  C   UNL     1     -45.231  26.602   3.502  0.00  0.00    +0.013 C 
ATOM     15  C   UNL     1     -42.009  26.928   3.618  0.00  0.00    +0.159 C 
ATOM     16  C   UNL     1     -43.976  28.095   4.798  0.00  0.00    +0.196 C 
ATOM     17  C   UNL     1     -46.657  27.811   1.216  0.00  0.00    +0.001 C 
ATOM     18  C   UNL     1     -41.174  26.300   2.469  0.00  0.00    +0.010 C 
ATOM     19  C   UNL     1     -45.001  27.008   4.757  0.00  0.00    +0.043 C 
ATOM     20  C   UNL     1     -45.660  26.509   5.993  0.00  0.00    +0.004 C 
ENDROOT
BRANCH   9  21
ATOM     21  O   UNL     1     -42.790  29.200   3.006  0.00  0.00    -0.380 OA
ATOM     22  H   UNL     1     -43.384  29.889   3.344  0.00  0.00    +0.211 HD
ENDBRANCH   9  21
BRANCH  15  23
ATOM     23  O   UNL     1     -41.089  27.600   4.497  0.00  0.00    -0.378 OA
ATOM     24  H   UNL     1     -41.007  27.099   5.323  0.00  0.00    +0.211 HD
ENDBRANCH  15  23
BRANCH  16  25
ATOM     25  O   UNL     1     -44.657  29.338   4.913  0.00  0.00    -0.447 OA
BRANCH  25  27
ATOM     26  O   UNL     1     -42.917  30.375   6.007  0.00  0.00    -0.245 OA
ATOM     27  C   UNL     1     -44.107  30.244   5.768  0.00  0.00    +0.345 C 
BRANCH  27  30
ATOM     28  O   UNL     1     -46.589  31.901   7.899  0.00  0.00    -0.358 OA
ATOM     29  N   UNL     1     -46.776  32.648   6.743  0.00  0.00    -0.082 NA
ATOM     30  C   UNL     1     -45.162  31.081   6.396  0.00  0.00    +0.125 A 
ATOM     31  C   UNL     1     -45.625  30.970   7.680  0.00  0.00    +0.160 A 
ATOM     32  C   UNL     1     -45.913  32.140   5.859  0.00  0.00    +0.106 A 
BRANCH  31  33
ATOM     33  C   UNL     1     -45.302  30.090   8.811  0.00  0.00    +0.068 C 
ATOM     34  C   UNL     1     -46.093  28.775   8.797  0.00  0.00    +0.009 C 
ENDBRANCH  31  33
BRANCH  32  35
ATOM     35  C   UNL     1     -45.844  32.706   4.501  0.00  0.00    +0.049 C 
ATOM     36  C   UNL     1     -44.615  33.599   4.286  0.00  0.00    +0.007 C 
ENDBRANCH  32  35
ENDBRANCH  27  30
ENDBRANCH  25  27
ENDBRANCH  16  25
BRANCH  18  37
ATOM     37  C   UNL     1     -39.966  25.511   2.916  0.00  0.00    +0.161 C 
BRANCH  37  38
ATOM     38  O   UNL     1     -38.950  26.402   3.325  0.00  0.00    -0.377 OA
ATOM     39  H   UNL     1     -39.195  26.803   4.174  0.00  0.00    +0.211 HD
ENDBRANCH  37  38
ENDBRANCH  18  37
TORSDOF 9
ENDMDL
MODEL 8
REMARK VINA RESULT:      -6.6      1.636      3.278
REMARK  Name = 57410862
REMARK  9 active torsions:
REMARK  status: ('A' for Active; 'I' for Inactive)
REMARK    1  A    between atoms: C_9  and  O_21
REMARK    2  A    between atoms: C_15  and  O_23
REMARK    3  A    between atoms: C_16  and  O_25
REMARK    4  A    between atoms: C_18  and  C_37
REMARK    5  A    between atoms: O_25  and  C_27
REMARK    6  A    between atoms: C_27  and  C_30
REMARK    7  A    between atoms: C_31  and  C_33
REMARK    8  A    between atoms: C_32  and  C_35
REMARK    9  A    between atoms: C_37  and  O_38
REMARK                            x       y       z     vdW  Elec       q    Type
REMARK                         _______ _______ _______ _____ _____    ______ ____
ROOT
ATOM      1  O   UNL     1     -32.640  30.630  -0.053  0.00  0.00    -0.296 OA
ATOM      2  C   UNL     1     -35.096  32.223   0.394  0.00  0.00    +0.011 C 
ATOM      3  C   UNL     1     -36.163  31.285  -0.159  0.00  0.00    +0.001 C 
ATOM      4  C   UNL     1     -36.554  32.560   0.548  0.00  0.00    +0.001 C 
ATOM      5  C   UNL     1     -34.287  31.565   1.445  0.00  0.00    +0.079 C 
ATOM      6  C   UNL     1     -36.491  29.953   0.513  0.00  0.00    +0.001 C 
ATOM      7  C   UNL     1     -34.023  29.071   1.176  0.00  0.00    +0.080 C 
ATOM      8  C   UNL     1     -35.402  28.829   0.429  0.00  0.00    +0.009 C 
ATOM      9  C   UNL     1     -33.979  28.990   2.762  0.00  0.00    +0.159 C 
ATOM     10  C   UNL     1     -33.530  30.433   0.772  0.00  0.00    +0.156 C 
ATOM     11  C   UNL     1     -37.084  33.661  -0.309  0.00  0.00    +0.000 C 
ATOM     12  C   UNL     1     -37.163  32.547   1.909  0.00  0.00    +0.000 C 
ATOM     13  C   UNL     1     -33.294  32.184   2.342  0.00  0.00    -0.023 C 
ATOM     14  C   UNL     1     -32.992  28.015   0.838  0.00  0.00    +0.013 C 
ATOM     15  C   UNL     1     -32.851  29.894   3.474  0.00  0.00    +0.159 C 
ATOM     16  C   UNL     1     -33.642  27.487   3.024  0.00  0.00    +0.196 C 
ATOM     17  C   UNL     1     -35.209  28.469  -1.060  0.00  0.00    +0.001 C 
ATOM     18  C   UNL     1     -32.667  31.422   3.268  0.00  0.00    +0.010 C 
ATOM     19  C   UNL     1     -32.803  27.143   1.836  0.00  0.00    +0.043 C 
ATOM     20  C   UNL     1     -31.916  25.951   1.825  0.00  0.00    +0.004 C 
ENDROOT
BRANCH   9  21
ATOM     21  O   UNL     1     -35.245  29.265   3.351  0.00  0.00    -0.380 OA
ATOM     22  H   UNL     1     -35.405  28.643   4.079  0.00  0.00    +0.211 HD
ENDBRANCH   9  21
BRANCH  15  23
ATOM     23  O   UNL     1     -32.977  29.666   4.890  0.00  0.00    -0.378 OA
ATOM     24  H   UNL     1     -32.238  29.118   5.196  0.00  0.00    +0.211 HD
ENDBRANCH  15  23
BRANCH  16  25
ATOM     25  O   UNL     1     -34.794  26.654   3.006  0.00  0.00    -0.447 OA
BRANCH  25  27
ATOM     26  O   UNL     1     -34.970  26.731   5.300  0.00  0.00    -0.245 OA
ATOM     27  C   UNL     1     -35.249  26.235   4.220  0.00  0.00    +0.345 C 
BRANCH  27  30
ATOM     28  O   UNL     1     -36.969  22.997   4.209  0.00  0.00    -0.358 OA
ATOM     29  N   UNL     1     -37.914  23.737   3.508  0.00  0.00    -0.082 NA
ATOM     30  C   UNL     1     -36.153  25.067   4.068  0.00  0.00    +0.125 A 
ATOM     31  C   UNL     1     -35.924  23.800   4.536  0.00  0.00    +0.160 A 
ATOM     32  C   UNL     1     -37.405  24.970   3.437  0.00  0.00    +0.106 A 
BRANCH  31  33
ATOM     33  C   UNL     1     -34.829  23.169   5.285  0.00  0.00    +0.068 C 
ATOM     34  C   UNL     1     -35.319  22.179   6.350  0.00  0.00    +0.009 C 
ENDBRANCH  31  33
BRANCH  32  35
ATOM     35  C   UNL     1     -38.160  26.030   2.748  0.00  0.00    +0.049 C 
ATOM     36  C   UNL     1     -37.813  26.141   1.258  0.00  0.00    +0.007 C 
ENDBRANCH  32  35
ENDBRANCH  27  30
ENDBRANCH  25  27
ENDBRANCH  16  25
BRANCH  18  37
ATOM     37  C   UNL     1     -31.625  32.064   4.153  0.00  0.00    +0.161 C 
BRANCH  37  38
ATOM     38  O   UNL     1     -30.668  31.097   4.528  0.00  0.00    -0.377 OA
ATOM     39  H   UNL     1     -31.109  30.373   5.000  0.00  0.00    +0.211 HD
ENDBRANCH  37  38
ENDBRANCH  18  37
TORSDOF 9
ENDMDL
MODEL 9
REMARK VINA RESULT:      -6.6      7.653     11.464
REMARK  Name = 57410862
REMARK  9 active torsions:
REMARK  status: ('A' for Active; 'I' for Inactive)
REMARK    1  A    between atoms: C_9  and  O_21
REMARK    2  A    between atoms: C_15  and  O_23
REMARK    3  A    between atoms: C_16  and  O_25
REMARK    4  A    between atoms: C_18  and  C_37
REMARK    5  A    between atoms: O_25  and  C_27
REMARK    6  A    between atoms: C_27  and  C_30
REMARK    7  A    between atoms: C_31  and  C_33
REMARK    8  A    between atoms: C_32  and  C_35
REMARK    9  A    between atoms: C_37  and  O_38
REMARK                            x       y       z     vdW  Elec       q    Type
REMARK                         _______ _______ _______ _____ _____    ______ ____
ROOT
ATOM      1  O   UNL     1     -44.390  25.223   1.466  0.00  0.00    -0.296 OA
ATOM      2  C   UNL     1     -43.412  27.137  -0.571  0.00  0.00    +0.011 C 
ATOM      3  C   UNL     1     -44.568  28.129  -0.626  0.00  0.00    +0.001 C 
ATOM      4  C   UNL     1     -43.292  28.395  -1.385  0.00  0.00    +0.001 C 
ATOM      5  C   UNL     1     -42.886  26.992   0.805  0.00  0.00    +0.079 C 
ATOM      6  C   UNL     1     -44.911  29.032   0.558  0.00  0.00    +0.001 C 
ATOM      7  C   UNL     1     -44.588  27.332   2.635  0.00  0.00    +0.080 C 
ATOM      8  C   UNL     1     -45.512  28.339   1.828  0.00  0.00    +0.009 C 
ATOM      9  C   UNL     1     -43.401  27.910   3.517  0.00  0.00    +0.159 C 
ATOM     10  C   UNL     1     -43.996  26.375   1.637  0.00  0.00    +0.156 C 
ATOM     11  C   UNL     1     -43.356  28.246  -2.869  0.00  0.00    +0.000 C 
ATOM     12  C   UNL     1     -42.330  29.450  -0.956  0.00  0.00    +0.000 C 
ATOM     13  C   UNL     1     -41.668  26.282   1.238  0.00  0.00    -0.023 C 
ATOM     14  C   UNL     1     -45.354  26.576   3.700  0.00  0.00    +0.013 C 
ATOM     15  C   UNL     1     -42.133  26.933   3.704  0.00  0.00    +0.159 C 
ATOM     16  C   UNL     1     -44.072  28.117   4.912  0.00  0.00    +0.196 C 
ATOM     17  C   UNL     1     -46.862  27.706   1.427  0.00  0.00    +0.001 C 
ATOM     18  C   UNL     1     -41.328  26.279   2.548  0.00  0.00    +0.010 C 
ATOM     19  C   UNL     1     -45.088  27.020   4.935  0.00  0.00    +0.043 C 
ATOM     20  C   UNL     1     -45.702  26.551   6.205  0.00  0.00    +0.004 C 
ENDROOT
BRANCH   9  21
ATOM     21  O   UNL     1     -42.954  29.180   3.053  0.00  0.00    -0.380 OA
ATOM     22  H   UNL     1     -42.733  29.120   2.109  0.00  0.00    +0.211 HD
ENDBRANCH   9  21
BRANCH  15  23
ATOM     23  O   UNL     1     -41.191  27.638   4.534  0.00  0.00    -0.378 OA
ATOM     24  H   UNL     1     -40.384  27.110   4.626  0.00  0.00    +0.211 HD
ENDBRANCH  15  23
BRANCH  16  25
ATOM     25  O   UNL     1     -44.761  29.357   5.013  0.00  0.00    -0.447 OA
BRANCH  25  27
ATOM     26  O   UNL     1     -43.012  30.469   6.014  0.00  0.00    -0.245 OA
ATOM     27  C   UNL     1     -44.206  30.283   5.843  0.00  0.00    +0.345 C 
BRANCH  27  30
ATOM     28  O   UNL     1     -46.812  32.611   6.954  0.00  0.00    -0.358 OA
ATOM     29  N   UNL     1     -46.753  31.809   8.087  0.00  0.00    -0.082 NA
ATOM     30  C   UNL     1     -45.261  31.066   6.537  0.00  0.00    +0.125 A 
ATOM     31  C   UNL     1     -45.918  32.159   6.038  0.00  0.00    +0.160 A 
ATOM     32  C   UNL     1     -45.820  30.893   7.814  0.00  0.00    +0.106 A 
BRANCH  31  33
ATOM     33  C   UNL     1     -45.852  32.901   4.772  0.00  0.00    +0.068 C 
ATOM     34  C   UNL     1     -44.526  33.648   4.579  0.00  0.00    +0.009 C 
ENDBRANCH  31  33
BRANCH  32  35
ATOM     35  C   UNL     1     -45.495  29.864   8.817  0.00  0.00    +0.049 C 
ATOM     36  C   UNL     1     -46.603  28.817   8.984  0.00  0.00    +0.007 C 
ENDBRANCH  32  35
ENDBRANCH  27  30
ENDBRANCH  25  27
ENDBRANCH  16  25
BRANCH  18  37
ATOM     37  C   UNL     1     -40.099  25.515   2.978  0.00  0.00    +0.161 C 
BRANCH  37  38
ATOM     38  O   UNL     1     -39.081  26.426   3.333  0.00  0.00    -0.377 OA
ATOM     39  H   UNL     1     -38.327  25.940   3.701  0.00  0.00    +0.211 HD
ENDBRANCH  37  38
ENDBRANCH  18  37
TORSDOF 9
ENDMDL
