MODEL 1
REMARK VINA RESULT:      -6.8      0.000      0.000
REMARK  Name = 57588528
REMARK  6 active torsions:
REMARK  status: ('A' for Active; 'I' for Inactive)
REMARK    1  A    between atoms: O_1  and  C_3
REMARK    2  A    between atoms: O_1  and  C_15
REMARK    3  A    between atoms: C_2  and  C_11
REMARK    4  A    between atoms: C_15  and  C_16
REMARK    5  A    between atoms: C_18  and  O_25
REMARK    6  A    between atoms: C_19  and  N_22
REMARK                            x       y       z     vdW  Elec       q    Type
REMARK                         _______ _______ _______ _____ _____    ______ ____
ROOT
ATOM      1  O   UNL     1     -34.977  21.467   1.381  0.00  0.00    -0.421 OA
ENDROOT
BRANCH   1   3
ATOM      2  C   UNL     1     -31.873  18.847   0.530  0.00  0.00    +0.002 C 
ATOM      3  C   UNL     1     -33.960  20.607   1.102  0.00  0.00    +0.149 C 
ATOM      4  C   UNL     1     -32.901  18.454   1.386  0.00  0.00    +0.003 C 
ATOM      5  C   UNL     1     -31.887  20.119  -0.040  0.00  0.00    +0.003 C 
ATOM      6  C   UNL     1     -33.945  19.334   1.671  0.00  0.00    +0.038 C 
ATOM      7  C   UNL     1     -32.931  21.000   0.246  0.00  0.00    +0.038 C 
BRANCH   2  11
ATOM      8  S   UNL     1     -29.153  16.248  -1.134  0.00  0.00    -0.044 S 
ATOM      9  S   UNL     1     -28.461  16.698   0.730  0.00  0.00    -0.050 S 
ATOM     10  S   UNL     1     -31.894  16.883  -2.165  0.00  0.00    -0.043 S 
ATOM     11  C   UNL     1     -30.774  17.921   0.230  0.00  0.00    +0.020 C 
ATOM     12  C   UNL     1     -30.704  17.076  -0.999  0.00  0.00    +0.072 C 
ATOM     13  C   UNL     1     -29.740  17.799   1.076  0.00  0.00    +0.043 C 
ENDBRANCH   2  11
ENDBRANCH   1   3
BRANCH   1  15
ATOM     14  O   UNL     1     -36.351  20.129   2.707  0.00  0.00    -0.244 OA
ATOM     15  C   UNL     1     -35.699  21.148   2.534  0.00  0.00    +0.349 C 
BRANCH  15  16
ATOM     16  C   UNL     1     -35.590  22.226   3.551  0.00  0.00    +0.111 C 
ATOM     17  C   UNL     1     -35.774  23.551   3.158  0.00  0.00    +0.024 C 
ATOM     18  C   UNL     1     -35.311  21.925   4.883  0.00  0.00    +0.140 C 
ATOM     19  C   UNL     1     -35.676  24.578   4.098  0.00  0.00    +0.042 C 
ATOM     20  C   UNL     1     -35.214  22.951   5.824  0.00  0.00    +0.038 C 
ATOM     21  C   UNL     1     -35.396  24.277   5.431  0.00  0.00    +0.017 C 
BRANCH  19  22
ATOM     22  N   UNL     1     -35.862  25.918   3.702  0.00  0.00    -0.357 N 
ATOM     23  H   UNL     1     -36.551  26.143   3.035  0.00  0.00    +0.142 HD
ATOM     24  H   UNL     1     -35.302  26.628   4.090  0.00  0.00    +0.142 HD
ENDBRANCH  19  22
BRANCH  18  25
ATOM     25  O   UNL     1     -35.128  20.636   5.287  0.00  0.00    -0.505 OA
ATOM     26  H   UNL     1     -35.584  19.941   4.855  0.00  0.00    +0.292 HD
ENDBRANCH  18  25
ENDBRANCH  15  16
ENDBRANCH   1  15
TORSDOF 6
ENDMDL
MODEL 2
REMARK VINA RESULT:      -6.8      0.027      1.008
REMARK  Name = 57588528
REMARK  6 active torsions:
REMARK  status: ('A' for Active; 'I' for Inactive)
REMARK    1  A    between atoms: O_1  and  C_3
REMARK    2  A    between atoms: O_1  and  C_15
REMARK    3  A    between atoms: C_2  and  C_11
REMARK    4  A    between atoms: C_15  and  C_16
REMARK    5  A    between atoms: C_18  and  O_25
REMARK    6  A    between atoms: C_19  and  N_22
REMARK                            x       y       z     vdW  Elec       q    Type
REMARK                         _______ _______ _______ _____ _____    ______ ____
ROOT
ATOM      1  O   UNL     1     -34.995  21.476   1.376  0.00  0.00    -0.421 OA
ENDROOT
BRANCH   1   3
ATOM      2  C   UNL     1     -31.885  18.863   0.522  0.00  0.00    +0.002 C 
ATOM      3  C   UNL     1     -33.974  20.620   1.096  0.00  0.00    +0.149 C 
ATOM      4  C   UNL     1     -31.899  20.138  -0.044  0.00  0.00    +0.003 C 
ATOM      5  C   UNL     1     -32.915  18.466   1.374  0.00  0.00    +0.003 C 
ATOM      6  C   UNL     1     -32.944  21.016   0.243  0.00  0.00    +0.038 C 
ATOM      7  C   UNL     1     -33.960  19.345   1.662  0.00  0.00    +0.038 C 
BRANCH   2  11
ATOM      8  S   UNL     1     -29.158  16.281  -1.156  0.00  0.00    -0.044 S 
ATOM      9  S   UNL     1     -28.482  16.700   0.721  0.00  0.00    -0.050 S 
ATOM     10  S   UNL     1     -31.887  16.942  -2.203  0.00  0.00    -0.043 S 
ATOM     11  C   UNL     1     -30.786  17.939   0.218  0.00  0.00    +0.020 C 
ATOM     12  C   UNL     1     -30.708  17.112  -1.023  0.00  0.00    +0.072 C 
ATOM     13  C   UNL     1     -29.761  17.799   1.072  0.00  0.00    +0.043 C 
ENDBRANCH   2  11
ENDBRANCH   1   3
BRANCH   1  15
ATOM     14  O   UNL     1     -36.366  20.142   2.708  0.00  0.00    -0.244 OA
ATOM     15  C   UNL     1     -35.711  21.159   2.533  0.00  0.00    +0.349 C 
BRANCH  15  16
ATOM     16  C   UNL     1     -35.590  22.234   3.551  0.00  0.00    +0.111 C 
ATOM     17  C   UNL     1     -35.764  23.562   3.160  0.00  0.00    +0.024 C 
ATOM     18  C   UNL     1     -35.309  21.930   4.882  0.00  0.00    +0.140 C 
ATOM     19  C   UNL     1     -35.656  24.586   4.101  0.00  0.00    +0.042 C 
ATOM     20  C   UNL     1     -35.200  22.953   5.823  0.00  0.00    +0.038 C 
ATOM     21  C   UNL     1     -35.373  24.281   5.432  0.00  0.00    +0.017 C 
BRANCH  19  22
ATOM     22  N   UNL     1     -35.832  25.928   3.706  0.00  0.00    -0.357 N 
ATOM     23  H   UNL     1     -36.172  26.136   2.806  0.00  0.00    +0.142 HD
ATOM     24  H   UNL     1     -35.614  26.657   4.331  0.00  0.00    +0.142 HD
ENDBRANCH  19  22
BRANCH  18  25
ATOM     25  O   UNL     1     -35.135  20.639   5.283  0.00  0.00    -0.505 OA
ATOM     26  H   UNL     1     -34.896  20.453   6.170  0.00  0.00    +0.292 HD
ENDBRANCH  18  25
ENDBRANCH  15  16
ENDBRANCH   1  15
TORSDOF 6
ENDMDL
MODEL 3
REMARK VINA RESULT:      -6.5      5.252      7.788
REMARK  Name = 57588528
REMARK  6 active torsions:
REMARK  status: ('A' for Active; 'I' for Inactive)
REMARK    1  A    between atoms: O_1  and  C_3
REMARK    2  A    between atoms: O_1  and  C_15
REMARK    3  A    between atoms: C_2  and  C_11
REMARK    4  A    between atoms: C_15  and  C_16
REMARK    5  A    between atoms: C_18  and  O_25
REMARK    6  A    between atoms: C_19  and  N_22
REMARK                            x       y       z     vdW  Elec       q    Type
REMARK                         _______ _______ _______ _____ _____    ______ ____
ROOT
ATOM      1  O   UNL     1     -37.057  22.840   3.952  0.00  0.00    -0.421 OA
ENDROOT
BRANCH   1   3
ATOM      2  C   UNL     1     -34.357  25.871   4.819  0.00  0.00    +0.002 C 
ATOM      3  C   UNL     1     -36.172  23.834   4.237  0.00  0.00    +0.149 C 
ATOM      4  C   UNL     1     -35.596  26.180   4.259  0.00  0.00    +0.003 C 
ATOM      5  C   UNL     1     -34.024  24.543   5.087  0.00  0.00    +0.003 C 
ATOM      6  C   UNL     1     -36.503  25.162   3.968  0.00  0.00    +0.038 C 
ATOM      7  C   UNL     1     -34.933  23.525   4.797  0.00  0.00    +0.038 C 
BRANCH   2  11
ATOM      8  S   UNL     1     -31.902  29.172   4.854  0.00  0.00    -0.044 S 
ATOM      9  S   UNL     1     -31.835  28.378   6.730  0.00  0.00    -0.050 S 
ATOM     10  S   UNL     1     -33.070  27.826   2.444  0.00  0.00    -0.043 S 
ATOM     11  C   UNL     1     -33.401  26.942   5.123  0.00  0.00    +0.020 C 
ATOM     12  C   UNL     1     -32.854  27.888   4.106  0.00  0.00    +0.072 C 
ATOM     13  C   UNL     1     -32.970  27.131   6.379  0.00  0.00    +0.043 C 
ENDBRANCH   2  11
ENDBRANCH   1   3
BRANCH   1  15
ATOM     14  O   UNL     1     -38.295  22.941   1.980  0.00  0.00    -0.244 OA
ATOM     15  C   UNL     1     -37.278  22.641   2.587  0.00  0.00    +0.349 C 
BRANCH  15  16
ATOM     16  C   UNL     1     -36.107  21.994   1.941  0.00  0.00    +0.111 C 
ATOM     17  C   UNL     1     -35.272  22.759   1.127  0.00  0.00    +0.024 C 
ATOM     18  C   UNL     1     -35.836  20.642   2.143  0.00  0.00    +0.140 C 
ATOM     19  C   UNL     1     -34.166  22.171   0.513  0.00  0.00    +0.042 C 
ATOM     20  C   UNL     1     -34.731  20.053   1.529  0.00  0.00    +0.038 C 
ATOM     21  C   UNL     1     -33.896  20.818   0.714  0.00  0.00    +0.017 C 
BRANCH  19  22
ATOM     22  N   UNL     1     -33.322  22.945  -0.310  0.00  0.00    -0.357 N 
ATOM     23  H   UNL     1     -32.373  23.057  -0.074  0.00  0.00    +0.142 HD
ATOM     24  H   UNL     1     -33.682  23.372  -1.120  0.00  0.00    +0.142 HD
ENDBRANCH  19  22
BRANCH  18  25
ATOM     25  O   UNL     1     -36.640  19.877   2.935  0.00  0.00    -0.505 OA
ATOM     26  H   UNL     1     -36.782  18.975   2.725  0.00  0.00    +0.292 HD
ENDBRANCH  18  25
ENDBRANCH  15  16
ENDBRANCH   1  15
TORSDOF 6
ENDMDL
MODEL 4
REMARK VINA RESULT:      -6.4      1.756      2.383
REMARK  Name = 57588528
REMARK  6 active torsions:
REMARK  status: ('A' for Active; 'I' for Inactive)
REMARK    1  A    between atoms: O_1  and  C_3
REMARK    2  A    between atoms: O_1  and  C_15
REMARK    3  A    between atoms: C_2  and  C_11
REMARK    4  A    between atoms: C_15  and  C_16
REMARK    5  A    between atoms: C_18  and  O_25
REMARK    6  A    between atoms: C_19  and  N_22
REMARK                            x       y       z     vdW  Elec       q    Type
REMARK                         _______ _______ _______ _____ _____    ______ ____
ROOT
ATOM      1  O   UNL     1     -36.437  23.302   1.526  0.00  0.00    -0.421 OA
ENDROOT
BRANCH   1   3
ATOM      2  C   UNL     1     -33.915  20.088   0.791  0.00  0.00    +0.002 C 
ATOM      3  C   UNL     1     -35.611  22.247   1.285  0.00  0.00    +0.149 C 
ATOM      4  C   UNL     1     -34.780  20.059   1.885  0.00  0.00    +0.003 C 
ATOM      5  C   UNL     1     -33.898  21.196  -0.056  0.00  0.00    +0.003 C 
ATOM      6  C   UNL     1     -35.628  21.138   2.131  0.00  0.00    +0.038 C 
ATOM      7  C   UNL     1     -34.746  22.275   0.191  0.00  0.00    +0.038 C 
BRANCH   2  11
ATOM      8  S   UNL     1     -32.093  16.612  -0.441  0.00  0.00    -0.044 S 
ATOM      9  S   UNL     1     -30.677  17.688   0.553  0.00  0.00    -0.050 S 
ATOM     10  S   UNL     1     -35.032  17.198  -0.442  0.00  0.00    -0.043 S 
ATOM     11  C   UNL     1     -33.022  18.953   0.532  0.00  0.00    +0.020 C 
ATOM     12  C   UNL     1     -33.462  17.666  -0.085  0.00  0.00    +0.072 C 
ATOM     13  C   UNL     1     -31.719  19.030   0.841  0.00  0.00    +0.043 C 
ENDBRANCH   2  11
ENDBRANCH   1   3
BRANCH   1  15
ATOM     14  O   UNL     1     -38.048  22.659   3.083  0.00  0.00    -0.244 OA
ATOM     15  C   UNL     1     -37.041  23.283   2.786  0.00  0.00    +0.349 C 
BRANCH  15  16
ATOM     16  C   UNL     1     -36.303  24.141   3.747  0.00  0.00    +0.111 C 
ATOM     17  C   UNL     1     -36.043  25.470   3.411  0.00  0.00    +0.024 C 
ATOM     18  C   UNL     1     -35.873  23.635   4.973  0.00  0.00    +0.140 C 
ATOM     19  C   UNL     1     -35.352  26.293   4.301  0.00  0.00    +0.042 C 
ATOM     20  C   UNL     1     -35.182  24.458   5.864  0.00  0.00    +0.038 C 
ATOM     21  C   UNL     1     -34.921  25.786   5.527  0.00  0.00    +0.017 C 
BRANCH  19  22
ATOM     22  N   UNL     1     -35.089  27.636   3.961  0.00  0.00    -0.357 N 
ATOM     23  H   UNL     1     -34.925  27.883   3.023  0.00  0.00    +0.142 HD
ATOM     24  H   UNL     1     -35.069  28.326   4.663  0.00  0.00    +0.142 HD
ENDBRANCH  19  22
BRANCH  18  25
ATOM     25  O   UNL     1     -36.117  22.340   5.321  0.00  0.00    -0.505 OA
ATOM     26  H   UNL     1     -36.968  21.971   5.184  0.00  0.00    +0.292 HD
ENDBRANCH  18  25
ENDBRANCH  15  16
ENDBRANCH   1  15
TORSDOF 6
ENDMDL
MODEL 5
REMARK VINA RESULT:      -6.4      5.506      8.084
REMARK  Name = 57588528
REMARK  6 active torsions:
REMARK  status: ('A' for Active; 'I' for Inactive)
REMARK    1  A    between atoms: O_1  and  C_3
REMARK    2  A    between atoms: O_1  and  C_15
REMARK    3  A    between atoms: C_2  and  C_11
REMARK    4  A    between atoms: C_15  and  C_16
REMARK    5  A    between atoms: C_18  and  O_25
REMARK    6  A    between atoms: C_19  and  N_22
REMARK                            x       y       z     vdW  Elec       q    Type
REMARK                         _______ _______ _______ _____ _____    ______ ____
ROOT
ATOM      1  O   UNL     1     -36.366  22.645   3.810  0.00  0.00    -0.421 OA
ENDROOT
BRANCH   1   3
ATOM      2  C   UNL     1     -34.055  26.001   4.600  0.00  0.00    +0.002 C 
ATOM      3  C   UNL     1     -35.608  23.746   4.068  0.00  0.00    +0.149 C 
ATOM      4  C   UNL     1     -33.809  25.238   3.459  0.00  0.00    +0.003 C 
ATOM      5  C   UNL     1     -35.077  25.637   5.476  0.00  0.00    +0.003 C 
ATOM      6  C   UNL     1     -34.585  24.111   3.193  0.00  0.00    +0.038 C 
ATOM      7  C   UNL     1     -35.855  24.509   5.210  0.00  0.00    +0.038 C 
BRANCH   2  11
ATOM      8  S   UNL     1     -32.159  29.651   4.650  0.00  0.00    -0.044 S 
ATOM      9  S   UNL     1     -31.665  28.716   6.392  0.00  0.00    -0.050 S 
ATOM     10  S   UNL     1     -33.488  28.348   2.301  0.00  0.00    -0.043 S 
ATOM     11  C   UNL     1     -33.237  27.186   4.881  0.00  0.00    +0.020 C 
ATOM     12  C   UNL     1     -33.014  28.297   3.908  0.00  0.00    +0.072 C 
ATOM     13  C   UNL     1     -32.640  27.332   6.073  0.00  0.00    +0.043 C 
ENDBRANCH   2  11
ENDBRANCH   1   3
BRANCH   1  15
ATOM     14  O   UNL     1     -35.121  21.016   4.920  0.00  0.00    -0.244 OA
ATOM     15  C   UNL     1     -35.676  21.434   3.915  0.00  0.00    +0.349 C 
BRANCH  15  16
ATOM     16  C   UNL     1     -35.684  20.698   2.625  0.00  0.00    +0.111 C 
ATOM     17  C   UNL     1     -34.487  20.184   2.128  0.00  0.00    +0.024 C 
ATOM     18  C   UNL     1     -36.869  20.515   1.915  0.00  0.00    +0.140 C 
ATOM     19  C   UNL     1     -34.474  19.488   0.919  0.00  0.00    +0.042 C 
ATOM     20  C   UNL     1     -36.857  19.819   0.705  0.00  0.00    +0.038 C 
ATOM     21  C   UNL     1     -35.659  19.307   0.208  0.00  0.00    +0.017 C 
BRANCH  19  22
ATOM     22  N   UNL     1     -33.263  18.969   0.417  0.00  0.00    -0.357 N 
ATOM     23  H   UNL     1     -33.129  17.995   0.363  0.00  0.00    +0.142 HD
ATOM     24  H   UNL     1     -32.550  19.581   0.121  0.00  0.00    +0.142 HD
ENDBRANCH  19  22
BRANCH  18  25
ATOM     25  O   UNL     1     -38.050  21.009   2.383  0.00  0.00    -0.505 OA
ATOM     26  H   UNL     1     -38.710  21.294   1.782  0.00  0.00    +0.292 HD
ENDBRANCH  18  25
ENDBRANCH  15  16
ENDBRANCH   1  15
TORSDOF 6
ENDMDL
MODEL 6
REMARK VINA RESULT:      -6.3      1.980      2.356
REMARK  Name = 57588528
REMARK  6 active torsions:
REMARK  status: ('A' for Active; 'I' for Inactive)
REMARK    1  A    between atoms: O_1  and  C_3
REMARK    2  A    between atoms: O_1  and  C_15
REMARK    3  A    between atoms: C_2  and  C_11
REMARK    4  A    between atoms: C_15  and  C_16
REMARK    5  A    between atoms: C_18  and  O_25
REMARK    6  A    between atoms: C_19  and  N_22
REMARK                            x       y       z     vdW  Elec       q    Type
REMARK                         _______ _______ _______ _____ _____    ______ ____
ROOT
ATOM      1  O   UNL     1     -35.417  20.194   2.751  0.00  0.00    -0.421 OA
ENDROOT
BRANCH   1   3
ATOM      2  C   UNL     1     -32.435  20.348  -0.132  0.00  0.00    +0.002 C 
ATOM      3  C   UNL     1     -34.438  20.246   1.806  0.00  0.00    +0.149 C 
ATOM      4  C   UNL     1     -33.299  21.430   0.036  0.00  0.00    +0.003 C 
ATOM      5  C   UNL     1     -32.573  19.214   0.668  0.00  0.00    +0.003 C 
ATOM      6  C   UNL     1     -34.300  21.379   1.005  0.00  0.00    +0.038 C 
ATOM      7  C   UNL     1     -33.575  19.163   1.638  0.00  0.00    +0.038 C 
BRANCH   2  11
ATOM      8  S   UNL     1     -30.177  20.526  -3.566  0.00  0.00    -0.044 S 
ATOM      9  S   UNL     1     -28.878  20.716  -2.007  0.00  0.00    -0.050 S 
ATOM     10  S   UNL     1     -33.042  19.677  -3.341  0.00  0.00    -0.043 S 
ATOM     11  C   UNL     1     -31.382  20.401  -1.153  0.00  0.00    +0.020 C 
ATOM     12  C   UNL     1     -31.619  20.180  -2.611  0.00  0.00    +0.072 C 
ATOM     13  C   UNL     1     -30.115  20.672  -0.808  0.00  0.00    +0.043 C 
ENDBRANCH   2  11
ENDBRANCH   1   3
BRANCH   1  15
ATOM     14  O   UNL     1     -37.270  21.409   2.029  0.00  0.00    -0.244 OA
ATOM     15  C   UNL     1     -36.284  21.290   2.741  0.00  0.00    +0.349 C 
BRANCH  15  16
ATOM     16  C   UNL     1     -35.852  22.327   3.713  0.00  0.00    +0.111 C 
ATOM     17  C   UNL     1     -35.887  23.669   3.335  0.00  0.00    +0.024 C 
ATOM     18  C   UNL     1     -35.417  21.973   4.989  0.00  0.00    +0.140 C 
ATOM     19  C   UNL     1     -35.486  24.658   4.233  0.00  0.00    +0.042 C 
ATOM     20  C   UNL     1     -35.016  22.961   5.888  0.00  0.00    +0.038 C 
ATOM     21  C   UNL     1     -35.050  24.303   5.509  0.00  0.00    +0.017 C 
BRANCH  19  22
ATOM     22  N   UNL     1     -35.522  26.015   3.851  0.00  0.00    -0.357 N 
ATOM     23  H   UNL     1     -34.740  26.591   4.007  0.00  0.00    +0.142 HD
ATOM     24  H   UNL     1     -36.331  26.386   3.430  0.00  0.00    +0.142 HD
ENDBRANCH  19  22
BRANCH  18  25
ATOM     25  O   UNL     1     -35.375  20.667   5.377  0.00  0.00    -0.505 OA
ATOM     26  H   UNL     1     -35.079  20.010   4.779  0.00  0.00    +0.292 HD
ENDBRANCH  18  25
ENDBRANCH  15  16
ENDBRANCH   1  15
TORSDOF 6
ENDMDL
MODEL 7
REMARK VINA RESULT:      -6.3      6.777      9.245
REMARK  Name = 57588528
REMARK  6 active torsions:
REMARK  status: ('A' for Active; 'I' for Inactive)
REMARK    1  A    between atoms: O_1  and  C_3
REMARK    2  A    between atoms: O_1  and  C_15
REMARK    3  A    between atoms: C_2  and  C_11
REMARK    4  A    between atoms: C_15  and  C_16
REMARK    5  A    between atoms: C_18  and  O_25
REMARK    6  A    between atoms: C_19  and  N_22
REMARK                            x       y       z     vdW  Elec       q    Type
REMARK                         _______ _______ _______ _____ _____    ______ ____
ROOT
ATOM      1  O   UNL     1     -34.465  25.279   5.726  0.00  0.00    -0.421 OA
ENDROOT
BRANCH   1   3
ATOM      2  C   UNL     1     -31.890  28.470   5.083  0.00  0.00    +0.002 C 
ATOM      3  C   UNL     1     -33.620  26.325   5.516  0.00  0.00    +0.149 C 
ATOM      4  C   UNL     1     -32.129  28.018   6.381  0.00  0.00    +0.003 C 
ATOM      5  C   UNL     1     -32.515  27.850   4.002  0.00  0.00    +0.003 C 
ATOM      6  C   UNL     1     -32.994  26.946   6.597  0.00  0.00    +0.038 C 
ATOM      7  C   UNL     1     -33.380  26.777   4.218  0.00  0.00    +0.038 C 
BRANCH   2  11
ATOM      8  S   UNL     1     -28.709  30.998   4.441  0.00  0.00    -0.044 S 
ATOM      9  S   UNL     1     -30.396  32.126   4.244  0.00  0.00    -0.050 S 
ATOM     10  S   UNL     1     -28.601  28.225   5.572  0.00  0.00    -0.043 S 
ATOM     11  C   UNL     1     -30.981  29.600   4.856  0.00  0.00    +0.020 C 
ATOM     12  C   UNL     1     -29.496  29.519   4.992  0.00  0.00    +0.072 C 
ATOM     13  C   UNL     1     -31.464  30.797   4.493  0.00  0.00    +0.043 C 
ENDBRANCH   2  11
ENDBRANCH   1   3
BRANCH   1  15
ATOM     14  O   UNL     1     -36.447  26.487   5.935  0.00  0.00    -0.244 OA
ATOM     15  C   UNL     1     -35.807  25.561   5.459  0.00  0.00    +0.349 C 
BRANCH  15  16
ATOM     16  C   UNL     1     -36.386  24.573   4.513  0.00  0.00    +0.111 C 
ATOM     17  C   UNL     1     -35.815  23.304   4.423  0.00  0.00    +0.024 C 
ATOM     18  C   UNL     1     -37.487  24.900   3.723  0.00  0.00    +0.140 C 
ATOM     19  C   UNL     1     -36.345  22.361   3.542  0.00  0.00    +0.042 C 
ATOM     20  C   UNL     1     -38.017  23.958   2.842  0.00  0.00    +0.038 C 
ATOM     21  C   UNL     1     -37.445  22.689   2.751  0.00  0.00    +0.017 C 
BRANCH  19  22
ATOM     22  N   UNL     1     -35.768  21.078   3.451  0.00  0.00    -0.357 N 
ATOM     23  H   UNL     1     -36.143  20.412   2.830  0.00  0.00    +0.142 HD
ATOM     24  H   UNL     1     -34.991  20.847   4.009  0.00  0.00    +0.142 HD
ENDBRANCH  19  22
BRANCH  18  25
ATOM     25  O   UNL     1     -38.059  26.135   3.797  0.00  0.00    -0.505 OA
ATOM     26  H   UNL     1     -38.978  26.216   3.961  0.00  0.00    +0.292 HD
ENDBRANCH  18  25
ENDBRANCH  15  16
ENDBRANCH   1  15
TORSDOF 6
ENDMDL
MODEL 8
REMARK VINA RESULT:      -6.3      1.560      2.208
REMARK  Name = 57588528
REMARK  6 active torsions:
REMARK  status: ('A' for Active; 'I' for Inactive)
REMARK    1  A    between atoms: O_1  and  C_3
REMARK    2  A    between atoms: O_1  and  C_15
REMARK    3  A    between atoms: C_2  and  C_11
REMARK    4  A    between atoms: C_15  and  C_16
REMARK    5  A    between atoms: C_18  and  O_25
REMARK    6  A    between atoms: C_19  and  N_22
REMARK                            x       y       z     vdW  Elec       q    Type
REMARK                         _______ _______ _______ _____ _____    ______ ____
ROOT
ATOM      1  O   UNL     1     -34.695  21.298   0.792  0.00  0.00    -0.421 OA
ENDROOT
BRANCH   1   3
ATOM      2  C   UNL     1     -31.580  18.556   0.674  0.00  0.00    +0.002 C 
ATOM      3  C   UNL     1     -33.673  20.399   0.753  0.00  0.00    +0.149 C 
ATOM      4  C   UNL     1     -31.485  19.752  -0.039  0.00  0.00    +0.003 C 
ATOM      5  C   UNL     1     -32.722  18.282   1.426  0.00  0.00    +0.003 C 
ATOM      6  C   UNL     1     -32.531  20.673   0.001  0.00  0.00    +0.038 C 
ATOM      7  C   UNL     1     -33.769  19.204   1.466  0.00  0.00    +0.038 C 
BRANCH   2  11
ATOM      8  S   UNL     1     -29.014  15.426  -0.057  0.00  0.00    -0.044 S 
ATOM      9  S   UNL     1     -28.005  16.739   1.131  0.00  0.00    -0.050 S 
ATOM     10  S   UNL     1     -31.957  15.505  -0.617  0.00  0.00    -0.043 S 
ATOM     11  C   UNL     1     -30.480  17.586   0.631  0.00  0.00    +0.020 C 
ATOM     12  C   UNL     1     -30.580  16.237  -0.001  0.00  0.00    +0.072 C 
ATOM     13  C   UNL     1     -29.288  17.887   1.168  0.00  0.00    +0.043 C 
ENDBRANCH   2  11
ENDBRANCH   1   3
BRANCH   1  15
ATOM     14  O   UNL     1     -36.519  20.266   1.814  0.00  0.00    -0.244 OA
ATOM     15  C   UNL     1     -35.611  21.083   1.826  0.00  0.00    +0.349 C 
BRANCH  15  16
ATOM     16  C   UNL     1     -35.353  21.996   2.969  0.00  0.00    +0.111 C 
ATOM     17  C   UNL     1     -35.358  21.480   4.265  0.00  0.00    +0.024 C 
ATOM     18  C   UNL     1     -35.106  23.351   2.759  0.00  0.00    +0.140 C 
ATOM     19  C   UNL     1     -35.117  22.320   5.352  0.00  0.00    +0.042 C 
ATOM     20  C   UNL     1     -34.865  24.193   3.846  0.00  0.00    +0.038 C 
ATOM     21  C   UNL     1     -34.871  23.677   5.142  0.00  0.00    +0.017 C 
BRANCH  19  22
ATOM     22  N   UNL     1     -35.123  21.799   6.662  0.00  0.00    -0.357 N 
ATOM     23  H   UNL     1     -35.070  20.826   6.805  0.00  0.00    +0.142 HD
ATOM     24  H   UNL     1     -35.180  22.408   7.433  0.00  0.00    +0.142 HD
ENDBRANCH  19  22
BRANCH  18  25
ATOM     25  O   UNL     1     -35.096  23.875   1.501  0.00  0.00    -0.505 OA
ATOM     26  H   UNL     1     -34.541  24.603   1.301  0.00  0.00    +0.292 HD
ENDBRANCH  18  25
ENDBRANCH  15  16
ENDBRANCH   1  15
TORSDOF 6
ENDMDL
MODEL 9
REMARK VINA RESULT:      -6.3      2.066      2.724
REMARK  Name = 57588528
REMARK  6 active torsions:
REMARK  status: ('A' for Active; 'I' for Inactive)
REMARK    1  A    between atoms: O_1  and  C_3
REMARK    2  A    between atoms: O_1  and  C_15
REMARK    3  A    between atoms: C_2  and  C_11
REMARK    4  A    between atoms: C_15  and  C_16
REMARK    5  A    between atoms: C_18  and  O_25
REMARK    6  A    between atoms: C_19  and  N_22
REMARK                            x       y       z     vdW  Elec       q    Type
REMARK                         _______ _______ _______ _____ _____    ______ ____
ROOT
ATOM      1  O   UNL     1     -36.101  21.596   3.021  0.00  0.00    -0.421 OA
ENDROOT
BRANCH   1   3
ATOM      2  C   UNL     1     -33.178  20.520   0.277  0.00  0.00    +0.002 C 
ATOM      3  C   UNL     1     -35.143  21.243   2.120  0.00  0.00    +0.149 C 
ATOM      4  C   UNL     1     -33.673  19.575   1.175  0.00  0.00    +0.003 C 
ATOM      5  C   UNL     1     -33.666  21.826   0.300  0.00  0.00    +0.003 C 
ATOM      6  C   UNL     1     -34.655  19.936   2.097  0.00  0.00    +0.038 C 
ATOM      7  C   UNL     1     -34.649  22.188   1.222  0.00  0.00    +0.038 C 
BRANCH   2  11
ATOM      8  S   UNL     1     -30.979  19.314  -2.983  0.00  0.00    -0.044 S 
ATOM      9  S   UNL     1     -29.643  19.983  -1.597  0.00  0.00    -0.050 S 
ATOM     10  S   UNL     1     -33.880  18.767  -2.471  0.00  0.00    -0.043 S 
ATOM     11  C   UNL     1     -32.143  20.140  -0.692  0.00  0.00    +0.020 C 
ATOM     12  C   UNL     1     -32.419  19.419  -1.970  0.00  0.00    +0.072 C 
ATOM     13  C   UNL     1     -30.857  20.446  -0.466  0.00  0.00    +0.043 C 
ENDBRANCH   2  11
ENDBRANCH   1   3
BRANCH   1  15
ATOM     14  O   UNL     1     -35.141  21.157   5.099  0.00  0.00    -0.244 OA
ATOM     15  C   UNL     1     -35.607  21.938   4.282  0.00  0.00    +0.349 C 
BRANCH  15  16
ATOM     16  C   UNL     1     -35.726  23.397   4.529  0.00  0.00    +0.111 C 
ATOM     17  C   UNL     1     -34.703  24.057   5.210  0.00  0.00    +0.024 C 
ATOM     18  C   UNL     1     -36.841  24.108   4.087  0.00  0.00    +0.140 C 
ATOM     19  C   UNL     1     -34.796  25.428   5.451  0.00  0.00    +0.042 C 
ATOM     20  C   UNL     1     -36.934  25.479   4.327  0.00  0.00    +0.038 C 
ATOM     21  C   UNL     1     -35.912  26.138   5.010  0.00  0.00    +0.017 C 
BRANCH  19  22
ATOM     22  N   UNL     1     -33.762  26.095   6.139  0.00  0.00    -0.357 N 
ATOM     23  H   UNL     1     -33.238  25.618   6.823  0.00  0.00    +0.142 HD
ATOM     24  H   UNL     1     -33.565  27.038   5.937  0.00  0.00    +0.142 HD
ENDBRANCH  19  22
BRANCH  18  25
ATOM     25  O   UNL     1     -37.851  23.482   3.419  0.00  0.00    -0.505 OA
ATOM     26  H   UNL     1     -38.591  23.154   3.891  0.00  0.00    +0.292 HD
ENDBRANCH  18  25
ENDBRANCH  15  16
ENDBRANCH   1  15
TORSDOF 6
ENDMDL
