MODEL 1
REMARK VINA RESULT:      -5.6      0.000      0.000
REMARK  Name = 500900
REMARK  5 active torsions:
REMARK  status: ('A' for Active; 'I' for Inactive)
REMARK    1  A    between atoms: C_2  and  O_19
REMARK    2  A    between atoms: C_3  and  O_21
REMARK    3  A    between atoms: C_4  and  N_7
REMARK    4  A    between atoms: C_5  and  C_23
REMARK    5  A    between atoms: C_23  and  O_24
REMARK                            x       y       z     vdW  Elec       q    Type
REMARK                         _______ _______ _______ _____ _____    ______ ____
ROOT
ATOM      1  O   UNL     1     -36.085  24.140   5.452  0.00  0.00    -0.333 OA
ATOM      2  C   UNL     1     -36.212  23.741   3.087  0.00  0.00    +0.158 C 
ATOM      3  C   UNL     1     -35.633  22.525   3.798  0.00  0.00    +0.168 C 
ATOM      4  C   UNL     1     -36.134  24.826   4.178  0.00  0.00    +0.222 C 
ATOM      5  C   UNL     1     -36.128  22.721   5.222  0.00  0.00    +0.175 C 
ATOM      6  C   UNL     1     -35.536  24.047   1.758  0.00  0.00    +0.036 C 
ENDROOT
BRANCH   4   7
ATOM      7  N   UNL     1     -35.012  25.759   4.102  0.00  0.00    -0.247 N 
ATOM      8  N   UNL     1     -32.995  26.630   4.485  0.00  0.00    -0.242 NA
ATOM      9  N   UNL     1     -35.911  27.439   2.596  0.00  0.00    -0.228 NA
ATOM     10  N   UNL     1     -34.298  29.227   2.196  0.00  0.00    -0.229 NA
ATOM     11  C   UNL     1     -34.956  26.918   3.380  0.00  0.00    +0.152 C 
ATOM     12  C   UNL     1     -33.811  25.630   4.749  0.00  0.00    +0.223 C 
ATOM     13  C   UNL     1     -33.698  27.442   3.631  0.00  0.00    +0.140 C 
ATOM     14  C   UNL     1     -33.380  28.643   3.003  0.00  0.00    +0.143 C 
ATOM     15  C   UNL     1     -35.488  28.598   2.045  0.00  0.00    +0.253 C 
ATOM     16  N   UNL     1     -32.126  29.245   3.200  0.00  0.00    -0.342 N 
ATOM     17  H   UNL     1     -31.912  30.096   2.751  0.00  0.00    +0.144 HD
ATOM     18  H   UNL     1     -31.460  28.818   3.787  0.00  0.00    +0.144 HD
ENDBRANCH   4   7
BRANCH   2  19
ATOM     19  O   UNL     1     -37.597  23.518   2.781  0.00  0.00    -0.380 OA
ATOM     20  H   UNL     1     -38.149  23.979   3.432  0.00  0.00    +0.211 HD
ENDBRANCH   2  19
BRANCH   3  21
ATOM     21  O   UNL     1     -36.071  21.307   3.231  0.00  0.00    -0.379 OA
ATOM     22  H   UNL     1     -35.619  20.566   3.666  0.00  0.00    +0.211 HD
ENDBRANCH   3  21
BRANCH   5  23
ATOM     23  C   UNL     1     -35.280  22.011   6.264  0.00  0.00    +0.169 C 
BRANCH  23  24
ATOM     24  O   UNL     1     -35.204  20.634   5.930  0.00  0.00    -0.379 OA
ATOM     25  H   UNL     1     -34.340  20.447   5.528  0.00  0.00    +0.211 HD
ENDBRANCH  23  24
ENDBRANCH   5  23
TORSDOF 5
ENDMDL
MODEL 2
REMARK VINA RESULT:      -5.6      1.528      1.863
REMARK  Name = 500900
REMARK  5 active torsions:
REMARK  status: ('A' for Active; 'I' for Inactive)
REMARK    1  A    between atoms: C_2  and  O_19
REMARK    2  A    between atoms: C_3  and  O_21
REMARK    3  A    between atoms: C_4  and  N_7
REMARK    4  A    between atoms: C_5  and  C_23
REMARK    5  A    between atoms: C_23  and  O_24
REMARK                            x       y       z     vdW  Elec       q    Type
REMARK                         _______ _______ _______ _____ _____    ______ ____
ROOT
ATOM      1  O   UNL     1     -35.128  25.369   5.531  0.00  0.00    -0.333 OA
ATOM      2  C   UNL     1     -36.538  25.631   3.603  0.00  0.00    +0.158 C 
ATOM      3  C   UNL     1     -36.349  24.155   3.924  0.00  0.00    +0.168 C 
ATOM      4  C   UNL     1     -35.445  26.294   4.463  0.00  0.00    +0.222 C 
ATOM      5  C   UNL     1     -35.944  24.194   5.388  0.00  0.00    +0.175 C 
ATOM      6  C   UNL     1     -36.525  25.936   2.112  0.00  0.00    +0.036 C 
ENDROOT
BRANCH   4   7
ATOM      7  N   UNL     1     -34.207  26.669   3.783  0.00  0.00    -0.247 N 
ATOM      8  N   UNL     1     -32.186  26.458   2.864  0.00  0.00    -0.242 NA
ATOM      9  N   UNL     1     -34.586  29.040   3.410  0.00  0.00    -0.228 NA
ATOM     10  N   UNL     1     -32.695  30.072   2.262  0.00  0.00    -0.229 NA
ATOM     11  C   UNL     1     -33.865  27.912   3.328  0.00  0.00    +0.152 C 
ATOM     12  C   UNL     1     -33.166  25.831   3.480  0.00  0.00    +0.223 C 
ATOM     13  C   UNL     1     -32.609  27.759   2.762  0.00  0.00    +0.140 C 
ATOM     14  C   UNL     1     -32.023  28.896   2.214  0.00  0.00    +0.143 C 
ATOM     15  C   UNL     1     -33.916  30.070   2.848  0.00  0.00    +0.253 C 
ATOM     16  N   UNL     1     -30.752  28.832   1.618  0.00  0.00    -0.342 N 
ATOM     17  H   UNL     1     -30.347  29.644   1.234  0.00  0.00    +0.144 HD
ATOM     18  H   UNL     1     -30.266  27.976   1.584  0.00  0.00    +0.144 HD
ENDBRANCH   4   7
BRANCH   2  19
ATOM     19  O   UNL     1     -37.814  26.080   4.085  0.00  0.00    -0.380 OA
ATOM     20  H   UNL     1     -37.745  27.006   4.366  0.00  0.00    +0.211 HD
ENDBRANCH   2  19
BRANCH   3  21
ATOM     21  O   UNL     1     -37.522  23.398   3.702  0.00  0.00    -0.379 OA
ATOM     22  H   UNL     1     -38.287  23.994   3.650  0.00  0.00    +0.211 HD
ENDBRANCH   3  21
BRANCH   5  23
ATOM     23  C   UNL     1     -35.159  22.971   5.835  0.00  0.00    +0.169 C 
BRANCH  23  24
ATOM     24  O   UNL     1     -36.050  21.873   5.952  0.00  0.00    -0.379 OA
ATOM     25  H   UNL     1     -36.033  21.356   5.132  0.00  0.00    +0.211 HD
ENDBRANCH  23  24
ENDBRANCH   5  23
TORSDOF 5
ENDMDL
MODEL 3
REMARK VINA RESULT:      -5.5      3.349      5.881
REMARK  Name = 500900
REMARK  5 active torsions:
REMARK  status: ('A' for Active; 'I' for Inactive)
REMARK    1  A    between atoms: C_2  and  O_19
REMARK    2  A    between atoms: C_3  and  O_21
REMARK    3  A    between atoms: C_4  and  N_7
REMARK    4  A    between atoms: C_5  and  C_23
REMARK    5  A    between atoms: C_23  and  O_24
REMARK                            x       y       z     vdW  Elec       q    Type
REMARK                         _______ _______ _______ _____ _____    ______ ____
ROOT
ATOM      1  O   UNL     1     -35.455  26.391   2.542  0.00  0.00    -0.333 OA
ATOM      2  C   UNL     1     -35.715  25.631   4.806  0.00  0.00    +0.158 C 
ATOM      3  C   UNL     1     -34.292  26.120   4.572  0.00  0.00    +0.168 C 
ATOM      4  C   UNL     1     -36.262  25.519   3.371  0.00  0.00    +0.222 C 
ATOM      5  C   UNL     1     -34.459  27.025   3.362  0.00  0.00    +0.175 C 
ATOM      6  C   UNL     1     -35.793  24.384   5.676  0.00  0.00    +0.036 C 
ENDROOT
BRANCH   4   7
ATOM      7  N   UNL     1     -36.280  24.186   2.773  0.00  0.00    -0.247 N 
ATOM      8  N   UNL     1     -35.521  22.309   1.837  0.00  0.00    -0.242 NA
ATOM      9  N   UNL     1     -38.656  23.684   2.839  0.00  0.00    -0.228 NA
ATOM     10  N   UNL     1     -39.124  21.477   1.906  0.00  0.00    -0.229 NA
ATOM     11  C   UNL     1     -37.377  23.399   2.555  0.00  0.00    +0.152 C 
ATOM     12  C   UNL     1     -35.190  23.487   2.325  0.00  0.00    +0.223 C 
ATOM     13  C   UNL     1     -36.884  22.242   1.974  0.00  0.00    +0.140 C 
ATOM     14  C   UNL     1     -37.812  21.258   1.647  0.00  0.00    +0.143 C 
ATOM     15  C   UNL     1     -39.459  22.659   2.478  0.00  0.00    +0.253 C 
ATOM     16  N   UNL     1     -37.401  20.051   1.056  0.00  0.00    -0.342 N 
ATOM     17  H   UNL     1     -38.067  19.362   0.828  0.00  0.00    +0.144 HD
ATOM     18  H   UNL     1     -36.447  19.894   0.869  0.00  0.00    +0.144 HD
ENDBRANCH   4   7
BRANCH   2  19
ATOM     19  O   UNL     1     -36.474  26.638   5.493  0.00  0.00    -0.380 OA
ATOM     20  H   UNL     1     -36.476  26.447   6.444  0.00  0.00    +0.211 HD
ENDBRANCH   2  19
BRANCH   3  21
ATOM     21  O   UNL     1     -33.762  26.800   5.693  0.00  0.00    -0.379 OA
ATOM     22  H   UNL     1     -33.708  27.749   5.501  0.00  0.00    +0.211 HD
ENDBRANCH   3  21
BRANCH   5  23
ATOM     23  C   UNL     1     -33.182  27.210   2.560  0.00  0.00    +0.169 C 
BRANCH  23  24
ATOM     24  O   UNL     1     -32.152  26.438   3.156  0.00  0.00    -0.379 OA
ATOM     25  H   UNL     1     -31.461  27.028   3.495  0.00  0.00    +0.211 HD
ENDBRANCH  23  24
ENDBRANCH   5  23
TORSDOF 5
ENDMDL
MODEL 4
REMARK VINA RESULT:      -5.5      2.945      4.583
REMARK  Name = 500900
REMARK  5 active torsions:
REMARK  status: ('A' for Active; 'I' for Inactive)
REMARK    1  A    between atoms: C_2  and  O_19
REMARK    2  A    between atoms: C_3  and  O_21
REMARK    3  A    between atoms: C_4  and  N_7
REMARK    4  A    between atoms: C_5  and  C_23
REMARK    5  A    between atoms: C_23  and  O_24
REMARK                            x       y       z     vdW  Elec       q    Type
REMARK                         _______ _______ _______ _____ _____    ______ ____
ROOT
ATOM      1  O   UNL     1     -37.109  22.406   0.232  0.00  0.00    -0.333 OA
ATOM      2  C   UNL     1     -35.746  20.977   1.600  0.00  0.00    +0.158 C 
ATOM      3  C   UNL     1     -37.053  20.280   1.245  0.00  0.00    +0.168 C 
ATOM      4  C   UNL     1     -36.037  22.437   1.205  0.00  0.00    +0.222 C 
ATOM      5  C   UNL     1     -37.494  21.039   0.004  0.00  0.00    +0.175 C 
ATOM      6  C   UNL     1     -35.293  20.725   3.031  0.00  0.00    +0.036 C 
ENDROOT
BRANCH   4   7
ATOM      7  N   UNL     1     -36.406  23.352   2.283  0.00  0.00    -0.247 N 
ATOM      8  N   UNL     1     -37.668  24.363   3.820  0.00  0.00    -0.242 NA
ATOM      9  N   UNL     1     -34.307  24.524   2.633  0.00  0.00    -0.228 NA
ATOM     10  N   UNL     1     -34.505  26.189   4.407  0.00  0.00    -0.229 NA
ATOM     11  C   UNL     1     -35.598  24.270   2.893  0.00  0.00    +0.152 C 
ATOM     12  C   UNL     1     -37.639  23.446   2.875  0.00  0.00    +0.223 C 
ATOM     13  C   UNL     1     -36.399  24.886   3.842  0.00  0.00    +0.140 C 
ATOM     14  C   UNL     1     -35.807  25.879   4.616  0.00  0.00    +0.143 C 
ATOM     15  C   UNL     1     -33.846  25.502   3.442  0.00  0.00    +0.253 C 
ATOM     16  N   UNL     1     -36.545  26.555   5.603  0.00  0.00    -0.342 N 
ATOM     17  H   UNL     1     -36.115  27.257   6.144  0.00  0.00    +0.144 HD
ATOM     18  H   UNL     1     -37.491  26.328   5.753  0.00  0.00    +0.144 HD
ENDBRANCH   4   7
BRANCH   2  19
ATOM     19  O   UNL     1     -34.686  20.493   0.761  0.00  0.00    -0.380 OA
ATOM     20  H   UNL     1     -34.673  19.523   0.785  0.00  0.00    +0.211 HD
ENDBRANCH   2  19
BRANCH   3  21
ATOM     21  O   UNL     1     -36.881  18.897   1.006  0.00  0.00    -0.379 OA
ATOM     22  H   UNL     1     -35.935  18.697   0.924  0.00  0.00    +0.211 HD
ENDBRANCH   3  21
BRANCH   5  23
ATOM     23  C   UNL     1     -38.990  20.967  -0.254  0.00  0.00    +0.169 C 
BRANCH  23  24
ATOM     24  O   UNL     1     -39.645  20.617   0.955  0.00  0.00    -0.379 OA
ATOM     25  H   UNL     1     -40.587  20.466   0.778  0.00  0.00    +0.211 HD
ENDBRANCH  23  24
ENDBRANCH   5  23
TORSDOF 5
ENDMDL
MODEL 5
REMARK VINA RESULT:      -5.4      3.396      5.701
REMARK  Name = 500900
REMARK  5 active torsions:
REMARK  status: ('A' for Active; 'I' for Inactive)
REMARK    1  A    between atoms: C_2  and  O_19
REMARK    2  A    between atoms: C_3  and  O_21
REMARK    3  A    between atoms: C_4  and  N_7
REMARK    4  A    between atoms: C_5  and  C_23
REMARK    5  A    between atoms: C_23  and  O_24
REMARK                            x       y       z     vdW  Elec       q    Type
REMARK                         _______ _______ _______ _____ _____    ______ ____
ROOT
ATOM      1  O   UNL     1     -37.957  24.601   3.919  0.00  0.00    -0.333 OA
ATOM      2  C   UNL     1     -35.824  25.675   4.183  0.00  0.00    +0.158 C 
ATOM      3  C   UNL     1     -36.522  26.186   2.930  0.00  0.00    +0.168 C 
ATOM      4  C   UNL     1     -36.658  24.430   4.537  0.00  0.00    +0.222 C 
ATOM      5  C   UNL     1     -37.978  25.856   3.217  0.00  0.00    +0.175 C 
ATOM      6  C   UNL     1     -34.325  25.476   4.006  0.00  0.00    +0.036 C 
ENDROOT
BRANCH   4   7
ATOM      7  N   UNL     1     -36.114  23.134   4.136  0.00  0.00    -0.247 N 
ATOM      8  N   UNL     1     -35.188  21.114   4.319  0.00  0.00    -0.242 NA
ATOM      9  N   UNL     1     -36.398  23.243   1.725  0.00  0.00    -0.228 NA
ATOM     10  N   UNL     1     -35.591  21.209   0.643  0.00  0.00    -0.229 NA
ATOM     11  C   UNL     1     -36.018  22.643   2.863  0.00  0.00    +0.152 C 
ATOM     12  C   UNL     1     -35.602  22.178   4.974  0.00  0.00    +0.223 C 
ATOM     13  C   UNL     1     -35.441  21.391   2.999  0.00  0.00    +0.140 C 
ATOM     14  C   UNL     1     -35.231  20.665   1.831  0.00  0.00    +0.143 C 
ATOM     15  C   UNL     1     -36.144  22.446   0.664  0.00  0.00    +0.253 C 
ATOM     16  N   UNL     1     -34.653  19.385   1.875  0.00  0.00    -0.342 N 
ATOM     17  H   UNL     1     -34.508  18.881   1.041  0.00  0.00    +0.144 HD
ATOM     18  H   UNL     1     -34.392  18.992   2.739  0.00  0.00    +0.144 HD
ENDBRANCH   4   7
BRANCH   2  19
ATOM     19  O   UNL     1     -35.971  26.625   5.250  0.00  0.00    -0.380 OA
ATOM     20  H   UNL     1     -35.102  26.994   5.475  0.00  0.00    +0.211 HD
ENDBRANCH   2  19
BRANCH   3  21
ATOM     21  O   UNL     1     -36.308  27.566   2.716  0.00  0.00    -0.379 OA
ATOM     22  H   UNL     1     -36.091  27.996   3.558  0.00  0.00    +0.211 HD
ENDBRANCH   3  21
BRANCH   5  23
ATOM     23  C   UNL     1     -38.830  25.724   1.966  0.00  0.00    +0.169 C 
BRANCH  23  24
ATOM     24  O   UNL     1     -38.950  27.000   1.358  0.00  0.00    -0.379 OA
ATOM     25  H   UNL     1     -38.165  27.175   0.817  0.00  0.00    +0.211 HD
ENDBRANCH  23  24
ENDBRANCH   5  23
TORSDOF 5
ENDMDL
MODEL 6
REMARK VINA RESULT:      -5.3      2.396      3.362
REMARK  Name = 500900
REMARK  5 active torsions:
REMARK  status: ('A' for Active; 'I' for Inactive)
REMARK    1  A    between atoms: C_2  and  O_19
REMARK    2  A    between atoms: C_3  and  O_21
REMARK    3  A    between atoms: C_4  and  N_7
REMARK    4  A    between atoms: C_5  and  C_23
REMARK    5  A    between atoms: C_23  and  O_24
REMARK                            x       y       z     vdW  Elec       q    Type
REMARK                         _______ _______ _______ _____ _____    ______ ____
ROOT
ATOM      1  O   UNL     1     -37.738  24.730   2.106  0.00  0.00    -0.333 OA
ATOM      2  C   UNL     1     -36.484  22.690   2.297  0.00  0.00    +0.158 C 
ATOM      3  C   UNL     1     -37.935  22.459   2.696  0.00  0.00    +0.168 C 
ATOM      4  C   UNL     1     -36.391  24.228   2.280  0.00  0.00    +0.222 C 
ATOM      5  C   UNL     1     -38.644  23.618   2.014  0.00  0.00    +0.175 C 
ATOM      6  C   UNL     1     -35.486  21.947   3.174  0.00  0.00    +0.036 C 
ENDROOT
BRANCH   4   7
ATOM      7  N   UNL     1     -35.799  24.867   3.454  0.00  0.00    -0.247 N 
ATOM      8  N   UNL     1     -35.571  25.545   5.566  0.00  0.00    -0.242 NA
ATOM      9  N   UNL     1     -33.751  25.765   2.506  0.00  0.00    -0.228 NA
ATOM     10  N   UNL     1     -32.434  26.941   4.191  0.00  0.00    -0.229 NA
ATOM     11  C   UNL     1     -34.613  25.544   3.509  0.00  0.00    +0.152 C 
ATOM     12  C   UNL     1     -36.336  24.895   4.715  0.00  0.00    +0.223 C 
ATOM     13  C   UNL     1     -34.491  25.957   4.826  0.00  0.00    +0.140 C 
ATOM     14  C   UNL     1     -33.349  26.680   5.156  0.00  0.00    +0.143 C 
ATOM     15  C   UNL     1     -32.688  26.474   2.945  0.00  0.00    +0.253 C 
ATOM     16  N   UNL     1     -33.142  27.137   6.469  0.00  0.00    -0.342 N 
ATOM     17  H   UNL     1     -32.330  27.649   6.690  0.00  0.00    +0.144 HD
ATOM     18  H   UNL     1     -33.809  26.945   7.168  0.00  0.00    +0.144 HD
ENDBRANCH   4   7
BRANCH   2  19
ATOM     19  O   UNL     1     -36.260  22.218   0.959  0.00  0.00    -0.380 OA
ATOM     20  H   UNL     1     -37.102  22.201   0.479  0.00  0.00    +0.211 HD
ENDBRANCH   2  19
BRANCH   3  21
ATOM     21  O   UNL     1     -38.418  21.199   2.274  0.00  0.00    -0.379 OA
ATOM     22  H   UNL     1     -37.918  20.904   1.497  0.00  0.00    +0.211 HD
ENDBRANCH   3  21
BRANCH   5  23
ATOM     23  C   UNL     1     -39.969  23.985   2.661  0.00  0.00    +0.169 C 
BRANCH  23  24
ATOM     24  O   UNL     1     -39.711  24.732   3.839  0.00  0.00    -0.379 OA
ATOM     25  H   UNL     1     -40.281  24.410   4.556  0.00  0.00    +0.211 HD
ENDBRANCH  23  24
ENDBRANCH   5  23
TORSDOF 5
ENDMDL
MODEL 7
REMARK VINA RESULT:      -5.3      3.709      6.028
REMARK  Name = 500900
REMARK  5 active torsions:
REMARK  status: ('A' for Active; 'I' for Inactive)
REMARK    1  A    between atoms: C_2  and  O_19
REMARK    2  A    between atoms: C_3  and  O_21
REMARK    3  A    between atoms: C_4  and  N_7
REMARK    4  A    between atoms: C_5  and  C_23
REMARK    5  A    between atoms: C_23  and  O_24
REMARK                            x       y       z     vdW  Elec       q    Type
REMARK                         _______ _______ _______ _____ _____    ______ ____
ROOT
ATOM      1  O   UNL     1     -38.056  23.242   2.933  0.00  0.00    -0.333 OA
ATOM      2  C   UNL     1     -36.089  23.876   4.156  0.00  0.00    +0.158 C 
ATOM      3  C   UNL     1     -36.958  25.096   3.884  0.00  0.00    +0.168 C 
ATOM      4  C   UNL     1     -36.698  22.822   3.213  0.00  0.00    +0.222 C 
ATOM      5  C   UNL     1     -38.320  24.469   3.634  0.00  0.00    +0.175 C 
ATOM      6  C   UNL     1     -34.597  24.149   4.016  0.00  0.00    +0.036 C 
ENDROOT
BRANCH   4   7
ATOM      7  N   UNL     1     -36.007  22.591   1.946  0.00  0.00    -0.247 N 
ATOM      8  N   UNL     1     -35.298  22.947  -0.138  0.00  0.00    -0.242 NA
ATOM      9  N   UNL     1     -34.951  20.447   2.383  0.00  0.00    -0.228 NA
ATOM     10  N   UNL     1     -33.659  19.685   0.457  0.00  0.00    -0.229 NA
ATOM     11  C   UNL     1     -35.234  21.512   1.618  0.00  0.00    +0.152 C 
ATOM     12  C   UNL     1     -36.015  23.424   0.858  0.00  0.00    +0.223 C 
ATOM     13  C   UNL     1     -34.805  21.753   0.323  0.00  0.00    +0.140 C 
ATOM     14  C   UNL     1     -33.986  20.789  -0.257  0.00  0.00    +0.143 C 
ATOM     15  C   UNL     1     -34.154  19.585   1.714  0.00  0.00    +0.253 C 
ATOM     16  N   UNL     1     -33.503  20.952  -1.567  0.00  0.00    -0.342 N 
ATOM     17  H   UNL     1     -32.925  20.262  -1.968  0.00  0.00    +0.144 HD
ATOM     18  H   UNL     1     -33.742  21.755  -2.084  0.00  0.00    +0.144 HD
ENDBRANCH   4   7
BRANCH   2  19
ATOM     19  O   UNL     1     -36.281  23.427   5.506  0.00  0.00    -0.380 OA
ATOM     20  H   UNL     1     -36.178  24.176   6.113  0.00  0.00    +0.211 HD
ENDBRANCH   2  19
BRANCH   3  21
ATOM     21  O   UNL     1     -36.966  26.007   4.964  0.00  0.00    -0.379 OA
ATOM     22  H   UNL     1     -36.055  26.177   5.252  0.00  0.00    +0.211 HD
ENDBRANCH   3  21
BRANCH   5  23
ATOM     23  C   UNL     1     -39.247  25.341   2.803  0.00  0.00    +0.169 C 
BRANCH  23  24
ATOM     24  O   UNL     1     -39.468  26.561   3.492  0.00  0.00    -0.379 OA
ATOM     25  H   UNL     1     -39.477  27.293   2.856  0.00  0.00    +0.211 HD
ENDBRANCH  23  24
ENDBRANCH   5  23
TORSDOF 5
ENDMDL
MODEL 8
REMARK VINA RESULT:      -5.2      4.434      6.825
REMARK  Name = 500900
REMARK  5 active torsions:
REMARK  status: ('A' for Active; 'I' for Inactive)
REMARK    1  A    between atoms: C_2  and  O_19
REMARK    2  A    between atoms: C_3  and  O_21
REMARK    3  A    between atoms: C_4  and  N_7
REMARK    4  A    between atoms: C_5  and  C_23
REMARK    5  A    between atoms: C_23  and  O_24
REMARK                            x       y       z     vdW  Elec       q    Type
REMARK                         _______ _______ _______ _____ _____    ______ ____
ROOT
ATOM      1  O   UNL     1     -40.264  24.526   2.882  0.00  0.00    -0.333 OA
ATOM      2  C   UNL     1     -38.224  25.637   2.269  0.00  0.00    +0.158 C 
ATOM      3  C   UNL     1     -39.373  26.119   1.394  0.00  0.00    +0.168 C 
ATOM      4  C   UNL     1     -38.824  24.383   2.934  0.00  0.00    +0.222 C 
ATOM      5  C   UNL     1     -40.588  25.770   2.239  0.00  0.00    +0.175 C 
ATOM      6  C   UNL     1     -36.916  25.459   1.511  0.00  0.00    +0.036 C 
ENDROOT
BRANCH   4   7
ATOM      7  N   UNL     1     -38.459  23.091   2.357  0.00  0.00    -0.247 N 
ATOM      8  N   UNL     1     -38.571  21.279   1.061  0.00  0.00    -0.242 NA
ATOM      9  N   UNL     1     -36.430  22.589   3.596  0.00  0.00    -0.228 NA
ATOM     10  N   UNL     1     -35.476  20.450   2.909  0.00  0.00    -0.229 NA
ATOM     11  C   UNL     1     -37.376  22.323   2.683  0.00  0.00    +0.152 C 
ATOM     12  C   UNL     1     -39.145  22.421   1.378  0.00  0.00    +0.223 C 
ATOM     13  C   UNL     1     -37.465  21.205   1.870  0.00  0.00    +0.140 C 
ATOM     14  C   UNL     1     -36.465  20.247   2.005  0.00  0.00    +0.143 C 
ATOM     15  C   UNL     1     -35.520  21.592   3.637  0.00  0.00    +0.253 C 
ATOM     16  N   UNL     1     -36.475  19.082   1.219  0.00  0.00    -0.342 N 
ATOM     17  H   UNL     1     -35.762  18.411   1.324  0.00  0.00    +0.144 HD
ATOM     18  H   UNL     1     -37.194  18.937   0.562  0.00  0.00    +0.144 HD
ENDBRANCH   4   7
BRANCH   2  19
ATOM     19  O   UNL     1     -37.954  26.598   3.300  0.00  0.00    -0.380 OA
ATOM     20  H   UNL     1     -37.170  27.116   3.060  0.00  0.00    +0.211 HD
ENDBRANCH   2  19
BRANCH   3  21
ATOM     21  O   UNL     1     -39.289  27.500   1.103  0.00  0.00    -0.379 OA
ATOM     22  H   UNL     1     -39.473  27.645   0.161  0.00  0.00    +0.211 HD
ENDBRANCH   3  21
BRANCH   5  23
ATOM     23  C   UNL     1     -41.865  25.608   1.430  0.00  0.00    +0.169 C 
BRANCH  23  24
ATOM     24  O   UNL     1     -42.029  24.237   1.104  0.00  0.00    -0.379 OA
ATOM     25  H   UNL     1     -41.314  23.722   1.510  0.00  0.00    +0.211 HD
ENDBRANCH  23  24
ENDBRANCH   5  23
TORSDOF 5
ENDMDL
MODEL 9
REMARK VINA RESULT:      -5.2      3.428      5.911
REMARK  Name = 500900
REMARK  5 active torsions:
REMARK  status: ('A' for Active; 'I' for Inactive)
REMARK    1  A    between atoms: C_2  and  O_19
REMARK    2  A    between atoms: C_3  and  O_21
REMARK    3  A    between atoms: C_4  and  N_7
REMARK    4  A    between atoms: C_5  and  C_23
REMARK    5  A    between atoms: C_23  and  O_24
REMARK                            x       y       z     vdW  Elec       q    Type
REMARK                         _______ _______ _______ _____ _____    ______ ____
ROOT
ATOM      1  O   UNL     1     -35.238  25.409   1.997  0.00  0.00    -0.333 OA
ATOM      2  C   UNL     1     -37.429  25.680   2.943  0.00  0.00    +0.158 C 
ATOM      3  C   UNL     1     -36.375  25.671   4.043  0.00  0.00    +0.168 C 
ATOM      4  C   UNL     1     -36.639  25.157   1.729  0.00  0.00    +0.222 C 
ATOM      5  C   UNL     1     -35.114  26.045   3.280  0.00  0.00    +0.175 C 
ATOM      6  C   UNL     1     -38.701  24.931   3.315  0.00  0.00    +0.036 C 
ENDROOT
BRANCH   4   7
ATOM      7  N   UNL     1     -36.806  23.745   1.390  0.00  0.00    -0.247 N 
ATOM      8  N   UNL     1     -37.461  21.934   0.265  0.00  0.00    -0.242 NA
ATOM      9  N   UNL     1     -35.600  22.687   3.214  0.00  0.00    -0.228 NA
ATOM     10  N   UNL     1     -35.641  20.255   3.012  0.00  0.00    -0.229 NA
ATOM     11  C   UNL     1     -36.323  22.672   2.084  0.00  0.00    +0.152 C 
ATOM     12  C   UNL     1     -37.483  23.250   0.306  0.00  0.00    +0.223 C 
ATOM     13  C   UNL     1     -36.740  21.560   1.371  0.00  0.00    +0.140 C 
ATOM     14  C   UNL     1     -36.372  20.315   1.873  0.00  0.00    +0.143 C 
ATOM     15  C   UNL     1     -35.306  21.427   3.603  0.00  0.00    +0.253 C 
ATOM     16  N   UNL     1     -36.750  19.134   1.213  0.00  0.00    -0.342 N 
ATOM     17  H   UNL     1     -36.485  18.259   1.578  0.00  0.00    +0.144 HD
ATOM     18  H   UNL     1     -37.281  19.181   0.384  0.00  0.00    +0.144 HD
ENDBRANCH   4   7
BRANCH   2  19
ATOM     19  O   UNL     1     -37.835  27.028   2.661  0.00  0.00    -0.380 OA
ATOM     20  H   UNL     1     -38.724  27.022   2.274  0.00  0.00    +0.211 HD
ENDBRANCH   2  19
BRANCH   3  21
ATOM     21  O   UNL     1     -36.672  26.579   5.084  0.00  0.00    -0.379 OA
ATOM     22  H   UNL     1     -36.579  26.133   5.941  0.00  0.00    +0.211 HD
ENDBRANCH   3  21
BRANCH   5  23
ATOM     23  C   UNL     1     -33.835  25.581   3.957  0.00  0.00    +0.169 C 
BRANCH  23  24
ATOM     24  O   UNL     1     -34.170  24.681   5.001  0.00  0.00    -0.379 OA
ATOM     25  H   UNL     1     -35.135  24.629   5.084  0.00  0.00    +0.211 HD
ENDBRANCH  23  24
ENDBRANCH   5  23
TORSDOF 5
ENDMDL
