MODEL 1
REMARK VINA RESULT:      -6.3      0.000      0.000
REMARK  Name = 56684113
REMARK  4 active torsions:
REMARK  status: ('A' for Active; 'I' for Inactive)
REMARK    1  A    between atoms: C_10  and  O_18
REMARK    2  A    between atoms: C_11  and  O_20
REMARK    3  A    between atoms: C_15  and  O_22
REMARK    4  A    between atoms: C_16  and  O_24
REMARK                            x       y       z     vdW  Elec       q    Type
REMARK                         _______ _______ _______ _____ _____    ______ ____
ROOT
ATOM      1  O   UNL     1     -34.802  22.863   3.591  0.00  0.00    -0.444 OA
ATOM      2  O   UNL     1     -35.183  21.094   2.255  0.00  0.00    -0.245 OA
ATOM      3  O   UNL     1     -34.924  28.076   3.733  0.00  0.00    -0.280 OA
ATOM      4  C   UNL     1     -35.296  23.987   4.372  0.00  0.00    +0.179 C 
ATOM      5  C   UNL     1     -36.279  24.781   3.541  0.00  0.00    +0.055 C 
ATOM      6  C   UNL     1     -37.326  23.928   2.943  0.00  0.00    +0.015 C 
ATOM      7  C   UNL     1     -34.078  24.785   4.763  0.00  0.00    +0.058 C 
ATOM      8  C   UNL     1     -35.929  23.445   5.667  0.00  0.00    +0.053 C 
ATOM      9  C   UNL     1     -36.982  22.611   2.597  0.00  0.00    +0.109 C 
ATOM     10  C   UNL     1     -36.149  26.098   3.295  0.00  0.00    +0.175 C 
ATOM     11  C   UNL     1     -33.932  26.099   4.554  0.00  0.00    +0.180 C 
ATOM     12  C   UNL     1     -35.602  22.109   2.795  0.00  0.00    +0.345 C 
ATOM     13  C   UNL     1     -35.000  26.857   3.862  0.00  0.00    +0.262 C 
ATOM     14  C   UNL     1     -38.653  24.344   2.766  0.00  0.00    +0.037 C 
ATOM     15  C   UNL     1     -37.936  21.748   2.040  0.00  0.00    +0.143 C 
ATOM     16  C   UNL     1     -39.604  23.481   2.215  0.00  0.00    +0.142 C 
ATOM     17  C   UNL     1     -39.243  22.188   1.848  0.00  0.00    +0.074 C 
ENDROOT
BRANCH  10  18
ATOM     18  O   UNL     1     -37.013  26.799   2.479  0.00  0.00    -0.503 OA
ATOM     19  H   UNL     1     -37.295  27.660   2.723  0.00  0.00    +0.292 HD
ENDBRANCH  10  18
BRANCH  11  20
ATOM     20  O   UNL     1     -32.804  26.770   4.973  0.00  0.00    -0.468 OA
ATOM     21  C   UNL     1     -32.859  27.029   6.363  0.00  0.00    +0.253 C 
ENDBRANCH  11  20
BRANCH  15  22
ATOM     22  O   UNL     1     -37.649  20.462   1.688  0.00  0.00    -0.505 OA
ATOM     23  H   UNL     1     -37.650  19.787   2.338  0.00  0.00    +0.292 HD
ENDBRANCH  15  22
BRANCH  16  24
ATOM     24  O   UNL     1     -40.886  23.904   2.045  0.00  0.00    -0.471 OA
ATOM     25  C   UNL     1     -41.089  25.302   1.852  0.00  0.00    +0.252 C 
ENDBRANCH  16  24
TORSDOF 4
ENDMDL
MODEL 2
REMARK VINA RESULT:      -6.1      2.505      2.741
REMARK  Name = 56684113
REMARK  4 active torsions:
REMARK  status: ('A' for Active; 'I' for Inactive)
REMARK    1  A    between atoms: C_10  and  O_18
REMARK    2  A    between atoms: C_11  and  O_20
REMARK    3  A    between atoms: C_15  and  O_22
REMARK    4  A    between atoms: C_16  and  O_24
REMARK                            x       y       z     vdW  Elec       q    Type
REMARK                         _______ _______ _______ _____ _____    ______ ____
ROOT
ATOM      1  O   UNL     1     -35.120  23.329   5.079  0.00  0.00    -0.444 OA
ATOM      2  O   UNL     1     -35.294  21.085   5.059  0.00  0.00    -0.245 OA
ATOM      3  O   UNL     1     -32.584  27.328   2.891  0.00  0.00    -0.280 OA
ATOM      4  C   UNL     1     -35.329  24.618   4.437  0.00  0.00    +0.179 C 
ATOM      5  C   UNL     1     -34.827  24.556   3.012  0.00  0.00    +0.055 C 
ATOM      6  C   UNL     1     -35.373  23.397   2.276  0.00  0.00    +0.015 C 
ATOM      7  C   UNL     1     -34.584  25.623   5.279  0.00  0.00    +0.058 C 
ATOM      8  C   UNL     1     -36.827  24.969   4.516  0.00  0.00    +0.053 C 
ATOM      9  C   UNL     1     -35.641  22.225   3.001  0.00  0.00    +0.109 C 
ATOM     10  C   UNL     1     -33.911  25.404   2.510  0.00  0.00    +0.175 C 
ATOM     11  C   UNL     1     -33.686  26.494   4.803  0.00  0.00    +0.180 C 
ATOM     12  C   UNL     1     -35.353  22.147   4.452  0.00  0.00    +0.345 C 
ATOM     13  C   UNL     1     -33.343  26.485   3.363  0.00  0.00    +0.262 C 
ATOM     14  C   UNL     1     -35.693  23.431   0.911  0.00  0.00    +0.037 C 
ATOM     15  C   UNL     1     -36.173  21.097   2.362  0.00  0.00    +0.143 C 
ATOM     16  C   UNL     1     -36.228  22.307   0.276  0.00  0.00    +0.142 C 
ATOM     17  C   UNL     1     -36.461  21.141   0.999  0.00  0.00    +0.074 C 
ENDROOT
BRANCH  10  18
ATOM     18  O   UNL     1     -33.408  25.296   1.229  0.00  0.00    -0.503 OA
ATOM     19  H   UNL     1     -32.706  25.852   0.952  0.00  0.00    +0.292 HD
ENDBRANCH  10  18
BRANCH  11  20
ATOM     20  O   UNL     1     -33.070  27.410   5.628  0.00  0.00    -0.468 OA
ATOM     21  C   UNL     1     -32.922  26.889   6.936  0.00  0.00    +0.253 C 
ENDBRANCH  11  20
BRANCH  15  22
ATOM     22  O   UNL     1     -36.451  19.938   3.024  0.00  0.00    -0.505 OA
ATOM     23  H   UNL     1     -37.241  19.859   3.521  0.00  0.00    +0.292 HD
ENDBRANCH  15  22
BRANCH  16  24
ATOM     24  O   UNL     1     -36.528  22.356  -1.050  0.00  0.00    -0.471 OA
ATOM     25  C   UNL     1     -37.832  21.923  -1.437  0.00  0.00    +0.252 C 
ENDBRANCH  16  24
TORSDOF 4
ENDMDL
MODEL 3
REMARK VINA RESULT:      -6.1      1.655      6.585
REMARK  Name = 56684113
REMARK  4 active torsions:
REMARK  status: ('A' for Active; 'I' for Inactive)
REMARK    1  A    between atoms: C_10  and  O_18
REMARK    2  A    between atoms: C_11  and  O_20
REMARK    3  A    between atoms: C_15  and  O_22
REMARK    4  A    between atoms: C_16  and  O_24
REMARK                            x       y       z     vdW  Elec       q    Type
REMARK                         _______ _______ _______ _____ _____    ______ ____
ROOT
ATOM      1  O   UNL     1     -38.805  25.953   1.728  0.00  0.00    -0.444 OA
ATOM      2  O   UNL     1     -37.162  27.489   1.772  0.00  0.00    -0.245 OA
ATOM      3  O   UNL     1     -39.748  20.887   0.916  0.00  0.00    -0.280 OA
ATOM      4  C   UNL     1     -39.466  24.793   2.306  0.00  0.00    +0.179 C 
ATOM      5  C   UNL     1     -38.434  23.733   2.621  0.00  0.00    +0.055 C 
ATOM      6  C   UNL     1     -37.306  24.266   3.410  0.00  0.00    +0.015 C 
ATOM      7  C   UNL     1     -40.478  24.342   1.284  0.00  0.00    +0.058 C 
ATOM      8  C   UNL     1     -40.242  25.243   3.558  0.00  0.00    +0.053 C 
ATOM      9  C   UNL     1     -36.930  25.602   3.201  0.00  0.00    +0.109 C 
ATOM     10  C   UNL     1     -38.494  22.475   2.146  0.00  0.00    +0.175 C 
ATOM     11  C   UNL     1     -40.577  23.093   0.812  0.00  0.00    +0.180 C 
ATOM     12  C   UNL     1     -37.625  26.437   2.193  0.00  0.00    +0.345 C 
ATOM     13  C   UNL     1     -39.625  22.056   1.272  0.00  0.00    +0.262 C 
ATOM     14  C   UNL     1     -36.637  23.527   4.398  0.00  0.00    +0.037 C 
ATOM     15  C   UNL     1     -35.877  26.169   3.930  0.00  0.00    +0.143 C 
ATOM     16  C   UNL     1     -35.590  24.096   5.127  0.00  0.00    +0.142 C 
ATOM     17  C   UNL     1     -35.208  25.412   4.889  0.00  0.00    +0.074 C 
ENDROOT
BRANCH  10  18
ATOM     18  O   UNL     1     -37.512  21.534   2.382  0.00  0.00    -0.503 OA
ATOM     19  H   UNL     1     -37.250  20.948   1.699  0.00  0.00    +0.292 HD
ENDBRANCH  10  18
BRANCH  11  20
ATOM     20  O   UNL     1     -41.553  22.746  -0.096  0.00  0.00    -0.468 OA
ATOM     21  C   UNL     1     -42.403  23.844  -0.366  0.00  0.00    +0.253 C 
ENDBRANCH  11  20
BRANCH  15  22
ATOM     22  O   UNL     1     -35.476  27.462   3.761  0.00  0.00    -0.505 OA
ATOM     23  H   UNL     1     -34.577  27.654   3.583  0.00  0.00    +0.292 HD
ENDBRANCH  15  22
BRANCH  16  24
ATOM     24  O   UNL     1     -34.950  23.363   6.078  0.00  0.00    -0.471 OA
ATOM     25  C   UNL     1     -35.433  22.042   6.315  0.00  0.00    +0.252 C 
ENDBRANCH  16  24
TORSDOF 4
ENDMDL
MODEL 4
REMARK VINA RESULT:      -6.1      3.093      5.933
REMARK  Name = 56684113
REMARK  4 active torsions:
REMARK  status: ('A' for Active; 'I' for Inactive)
REMARK    1  A    between atoms: C_10  and  O_18
REMARK    2  A    between atoms: C_11  and  O_20
REMARK    3  A    between atoms: C_15  and  O_22
REMARK    4  A    between atoms: C_16  and  O_24
REMARK                            x       y       z     vdW  Elec       q    Type
REMARK                         _______ _______ _______ _____ _____    ______ ____
ROOT
ATOM      1  O   UNL     1     -37.288  21.737   0.507  0.00  0.00    -0.444 OA
ATOM      2  O   UNL     1     -37.856  20.029  -0.843  0.00  0.00    -0.245 OA
ATOM      3  O   UNL     1     -36.149  22.931   5.455  0.00  0.00    -0.280 OA
ATOM      4  C   UNL     1     -36.306  22.421   1.335  0.00  0.00    +0.179 C 
ATOM      5  C   UNL     1     -35.649  21.423   2.261  0.00  0.00    +0.055 C 
ATOM      6  C   UNL     1     -35.141  20.239   1.539  0.00  0.00    +0.015 C 
ATOM      7  C   UNL     1     -37.064  23.496   2.072  0.00  0.00    +0.058 C 
ATOM      8  C   UNL     1     -35.290  23.122   0.413  0.00  0.00    +0.053 C 
ATOM      9  C   UNL     1     -35.838  19.816   0.396  0.00  0.00    +0.109 C 
ATOM     10  C   UNL     1     -35.624  21.557   3.600  0.00  0.00    +0.175 C 
ATOM     11  C   UNL     1     -37.039  23.669   3.399  0.00  0.00    +0.180 C 
ATOM     12  C   UNL     1     -37.065  20.518  -0.047  0.00  0.00    +0.345 C 
ATOM     13  C   UNL     1     -36.253  22.743   4.246  0.00  0.00    +0.262 C 
ATOM     14  C   UNL     1     -33.968  19.560   1.899  0.00  0.00    +0.037 C 
ATOM     15  C   UNL     1     -35.397  18.708  -0.339  0.00  0.00    +0.143 C 
ATOM     16  C   UNL     1     -33.526  18.458   1.162  0.00  0.00    +0.142 C 
ATOM     17  C   UNL     1     -34.243  18.030   0.049  0.00  0.00    +0.074 C 
ENDROOT
BRANCH  10  18
ATOM     18  O   UNL     1     -35.082  20.607   4.441  0.00  0.00    -0.503 OA
ATOM     19  H   UNL     1     -34.797  20.850   5.301  0.00  0.00    +0.292 HD
ENDBRANCH  10  18
BRANCH  11  20
ATOM     20  O   UNL     1     -37.730  24.697   4.001  0.00  0.00    -0.468 OA
ATOM     21  C   UNL     1     -38.068  25.696   3.057  0.00  0.00    +0.253 C 
ENDBRANCH  11  20
BRANCH  15  22
ATOM     22  O   UNL     1     -36.041  18.260  -1.455  0.00  0.00    -0.505 OA
ATOM     23  H   UNL     1     -35.563  18.126  -2.250  0.00  0.00    +0.292 HD
ENDBRANCH  15  22
BRANCH  16  24
ATOM     24  O   UNL     1     -32.388  17.808   1.529  0.00  0.00    -0.471 OA
ATOM     25  C   UNL     1     -31.193  18.143   0.825  0.00  0.00    +0.252 C 
ENDBRANCH  16  24
TORSDOF 4
ENDMDL
MODEL 5
REMARK VINA RESULT:      -6.1      2.141      4.440
REMARK  Name = 56684113
REMARK  4 active torsions:
REMARK  status: ('A' for Active; 'I' for Inactive)
REMARK    1  A    between atoms: C_10  and  O_18
REMARK    2  A    between atoms: C_11  and  O_20
REMARK    3  A    between atoms: C_15  and  O_22
REMARK    4  A    between atoms: C_16  and  O_24
REMARK                            x       y       z     vdW  Elec       q    Type
REMARK                         _______ _______ _______ _____ _____    ______ ____
ROOT
ATOM      1  O   UNL     1     -38.589  23.863   2.681  0.00  0.00    -0.444 OA
ATOM      2  O   UNL     1     -40.504  23.055   1.821  0.00  0.00    -0.245 OA
ATOM      3  O   UNL     1     -34.626  22.677   5.859  0.00  0.00    -0.280 OA
ATOM      4  C   UNL     1     -37.136  23.850   2.763  0.00  0.00    +0.179 C 
ATOM      5  C   UNL     1     -36.656  22.427   2.936  0.00  0.00    +0.055 C 
ATOM      6  C   UNL     1     -37.232  21.515   1.927  0.00  0.00    +0.015 C 
ATOM      7  C   UNL     1     -36.780  24.736   3.930  0.00  0.00    +0.058 C 
ATOM      8  C   UNL     1     -36.567  24.510   1.492  0.00  0.00    +0.053 C 
ATOM      9  C   UNL     1     -38.525  21.790   1.454  0.00  0.00    +0.109 C 
ATOM     10  C   UNL     1     -35.873  22.026   3.955  0.00  0.00    +0.175 C 
ATOM     11  C   UNL     1     -35.986  24.374   4.944  0.00  0.00    +0.180 C 
ATOM     12  C   UNL     1     -39.296  22.941   1.978  0.00  0.00    +0.345 C 
ATOM     13  C   UNL     1     -35.422  23.005   4.983  0.00  0.00    +0.262 C 
ATOM     14  C   UNL     1     -36.532  20.432   1.376  0.00  0.00    +0.037 C 
ATOM     15  C   UNL     1     -39.119  20.970   0.486  0.00  0.00    +0.143 C 
ATOM     16  C   UNL     1     -37.124  19.617   0.408  0.00  0.00    +0.142 C 
ATOM     17  C   UNL     1     -38.417  19.883  -0.031  0.00  0.00    +0.074 C 
ENDROOT
BRANCH  10  18
ATOM     18  O   UNL     1     -35.497  20.712   4.143  0.00  0.00    -0.503 OA
ATOM     19  H   UNL     1     -34.864  20.494   4.799  0.00  0.00    +0.292 HD
ENDBRANCH  10  18
BRANCH  11  20
ATOM     20  O   UNL     1     -35.676  25.251   5.960  0.00  0.00    -0.468 OA
ATOM     21  C   UNL     1     -34.599  26.091   5.588  0.00  0.00    +0.253 C 
ENDBRANCH  11  20
BRANCH  15  22
ATOM     22  O   UNL     1     -40.372  21.197  -0.004  0.00  0.00    -0.505 OA
ATOM     23  H   UNL     1     -40.700  20.676  -0.709  0.00  0.00    +0.292 HD
ENDBRANCH  15  22
BRANCH  16  24
ATOM     24  O   UNL     1     -36.432  18.568  -0.112  0.00  0.00    -0.471 OA
ATOM     25  C   UNL     1     -37.162  17.369  -0.365  0.00  0.00    +0.252 C 
ENDBRANCH  16  24
TORSDOF 4
ENDMDL
MODEL 6
REMARK VINA RESULT:      -6.0      2.896      5.295
REMARK  Name = 56684113
REMARK  4 active torsions:
REMARK  status: ('A' for Active; 'I' for Inactive)
REMARK    1  A    between atoms: C_10  and  O_18
REMARK    2  A    between atoms: C_11  and  O_20
REMARK    3  A    between atoms: C_15  and  O_22
REMARK    4  A    between atoms: C_16  and  O_24
REMARK                            x       y       z     vdW  Elec       q    Type
REMARK                         _______ _______ _______ _____ _____    ______ ____
ROOT
ATOM      1  O   UNL     1     -36.656  23.239   0.812  0.00  0.00    -0.444 OA
ATOM      2  O   UNL     1     -37.511  22.123  -0.945  0.00  0.00    -0.245 OA
ATOM      3  O   UNL     1     -35.876  22.931   5.960  0.00  0.00    -0.280 OA
ATOM      4  C   UNL     1     -35.634  23.389   1.837  0.00  0.00    +0.179 C 
ATOM      5  C   UNL     1     -35.420  22.062   2.529  0.00  0.00    +0.055 C 
ATOM      6  C   UNL     1     -35.186  20.962   1.573  0.00  0.00    +0.015 C 
ATOM      7  C   UNL     1     -36.139  24.463   2.768  0.00  0.00    +0.058 C 
ATOM      8  C   UNL     1     -34.348  23.918   1.176  0.00  0.00    +0.053 C 
ATOM      9  C   UNL     1     -35.821  21.032   0.322  0.00  0.00    +0.109 C 
ATOM     10  C   UNL     1     -35.533  21.892   3.860  0.00  0.00    +0.175 C 
ATOM     11  C   UNL     1     -36.238  24.331   4.096  0.00  0.00    +0.180 C 
ATOM     12  C   UNL     1     -36.723  22.159  -0.009  0.00  0.00    +0.345 C 
ATOM     13  C   UNL     1     -35.871  23.047   4.737  0.00  0.00    +0.262 C 
ATOM     14  C   UNL     1     -34.317  19.891   1.825  0.00  0.00    +0.037 C 
ATOM     15  C   UNL     1     -35.626  20.026  -0.634  0.00  0.00    +0.143 C 
ATOM     16  C   UNL     1     -34.120  18.891   0.869  0.00  0.00    +0.142 C 
ATOM     17  C   UNL     1     -34.778  18.956  -0.355  0.00  0.00    +0.074 C 
ENDROOT
BRANCH  10  18
ATOM     18  O   UNL     1     -35.403  20.663   4.475  0.00  0.00    -0.503 OA
ATOM     19  H   UNL     1     -35.313  19.887   3.957  0.00  0.00    +0.292 HD
ENDBRANCH  10  18
BRANCH  11  20
ATOM     20  O   UNL     1     -36.675  25.370   4.888  0.00  0.00    -0.468 OA
ATOM     21  C   UNL     1     -35.626  26.286   5.140  0.00  0.00    +0.253 C 
ENDBRANCH  11  20
BRANCH  15  22
ATOM     22  O   UNL     1     -36.221  20.051  -1.861  0.00  0.00    -0.505 OA
ATOM     23  H   UNL     1     -36.722  20.798  -2.124  0.00  0.00    +0.292 HD
ENDBRANCH  15  22
BRANCH  16  24
ATOM     24  O   UNL     1     -33.276  17.856   1.133  0.00  0.00    -0.471 OA
ATOM     25  C   UNL     1     -31.879  18.142   1.137  0.00  0.00    +0.252 C 
ENDBRANCH  16  24
TORSDOF 4
ENDMDL
MODEL 7
REMARK VINA RESULT:      -5.9      2.697      5.048
REMARK  Name = 56684113
REMARK  4 active torsions:
REMARK  status: ('A' for Active; 'I' for Inactive)
REMARK    1  A    between atoms: C_10  and  O_18
REMARK    2  A    between atoms: C_11  and  O_20
REMARK    3  A    between atoms: C_15  and  O_22
REMARK    4  A    between atoms: C_16  and  O_24
REMARK                            x       y       z     vdW  Elec       q    Type
REMARK                         _______ _______ _______ _____ _____    ______ ____
ROOT
ATOM      1  O   UNL     1     -34.260  28.042   2.553  0.00  0.00    -0.444 OA
ATOM      2  O   UNL     1     -36.420  27.806   1.970  0.00  0.00    -0.245 OA
ATOM      3  O   UNL     1     -31.107  28.746   6.649  0.00  0.00    -0.280 OA
ATOM      4  C   UNL     1     -33.060  27.523   3.190  0.00  0.00    +0.179 C 
ATOM      5  C   UNL     1     -33.410  26.992   4.562  0.00  0.00    +0.055 C 
ATOM      6  C   UNL     1     -34.551  26.056   4.526  0.00  0.00    +0.015 C 
ATOM      7  C   UNL     1     -32.086  28.673   3.237  0.00  0.00    +0.058 C 
ATOM      8  C   UNL     1     -32.450  26.439   2.281  0.00  0.00    +0.053 C 
ATOM      9  C   UNL     1     -35.544  26.267   3.556  0.00  0.00    +0.109 C 
ATOM     10  C   UNL     1     -32.811  27.407   5.694  0.00  0.00    +0.175 C 
ATOM     11  C   UNL     1     -31.458  29.092   4.342  0.00  0.00    +0.180 C 
ATOM     12  C   UNL     1     -35.462  27.414   2.623  0.00  0.00    +0.345 C 
ATOM     13  C   UNL     1     -31.732  28.433   5.639  0.00  0.00    +0.262 C 
ATOM     14  C   UNL     1     -34.659  24.937   5.365  0.00  0.00    +0.037 C 
ATOM     15  C   UNL     1     -36.645  25.404   3.463  0.00  0.00    +0.143 C 
ATOM     16  C   UNL     1     -35.754  24.075   5.267  0.00  0.00    +0.142 C 
ATOM     17  C   UNL     1     -36.747  24.312   4.322  0.00  0.00    +0.074 C 
ENDROOT
BRANCH  10  18
ATOM     18  O   UNL     1     -33.185  26.967   6.948  0.00  0.00    -0.503 OA
ATOM     19  H   UNL     1     -34.093  26.904   7.171  0.00  0.00    +0.292 HD
ENDBRANCH  10  18
BRANCH  11  20
ATOM     20  O   UNL     1     -30.552  30.130   4.301  0.00  0.00    -0.468 OA
ATOM     21  C   UNL     1     -31.219  31.376   4.218  0.00  0.00    +0.253 C 
ENDBRANCH  11  20
BRANCH  15  22
ATOM     22  O   UNL     1     -37.633  25.569   2.538  0.00  0.00    -0.505 OA
ATOM     23  H   UNL     1     -37.861  26.429   2.243  0.00  0.00    +0.292 HD
ENDBRANCH  15  22
BRANCH  16  24
ATOM     24  O   UNL     1     -35.845  22.997   6.093  0.00  0.00    -0.471 OA
ATOM     25  C   UNL     1     -35.110  21.831   5.723  0.00  0.00    +0.252 C 
ENDBRANCH  16  24
TORSDOF 4
ENDMDL
MODEL 8
REMARK VINA RESULT:      -5.8      2.042      5.443
REMARK  Name = 56684113
REMARK  4 active torsions:
REMARK  status: ('A' for Active; 'I' for Inactive)
REMARK    1  A    between atoms: C_10  and  O_18
REMARK    2  A    between atoms: C_11  and  O_20
REMARK    3  A    between atoms: C_15  and  O_22
REMARK    4  A    between atoms: C_16  and  O_24
REMARK                            x       y       z     vdW  Elec       q    Type
REMARK                         _______ _______ _______ _____ _____    ______ ____
ROOT
ATOM      1  O   UNL     1     -37.762  22.653   1.055  0.00  0.00    -0.444 OA
ATOM      2  O   UNL     1     -37.265  20.789   2.214  0.00  0.00    -0.245 OA
ATOM      3  O   UNL     1     -40.247  27.227   1.392  0.00  0.00    -0.280 OA
ATOM      4  C   UNL     1     -37.594  24.079   0.824  0.00  0.00    +0.179 C 
ATOM      5  C   UNL     1     -37.722  24.819   2.137  0.00  0.00    +0.055 C 
ATOM      6  C   UNL     1     -36.853  24.250   3.187  0.00  0.00    +0.015 C 
ATOM      7  C   UNL     1     -38.657  24.464  -0.173  0.00  0.00    +0.058 C 
ATOM      8  C   UNL     1     -36.226  24.311   0.153  0.00  0.00    +0.053 C 
ATOM      9  C   UNL     1     -36.600  22.869   3.155  0.00  0.00    +0.109 C 
ATOM     10  C   UNL     1     -38.603  25.814   2.345  0.00  0.00    +0.175 C 
ATOM     11  C   UNL     1     -39.530  25.464  -0.004  0.00  0.00    +0.180 C 
ATOM     12  C   UNL     1     -37.216  22.009   2.119  0.00  0.00    +0.345 C 
ATOM     13  C   UNL     1     -39.511  26.254   1.249  0.00  0.00    +0.262 C 
ATOM     14  C   UNL     1     -36.221  25.026   4.170  0.00  0.00    +0.037 C 
ATOM     15  C   UNL     1     -35.772  22.274   4.116  0.00  0.00    +0.143 C 
ATOM     16  C   UNL     1     -35.391  24.431   5.124  0.00  0.00    +0.142 C 
ATOM     17  C   UNL     1     -35.173  23.057   5.100  0.00  0.00    +0.074 C 
ENDROOT
BRANCH  10  18
ATOM     18  O   UNL     1     -38.760  26.436   3.567  0.00  0.00    -0.503 OA
ATOM     19  H   UNL     1     -38.775  27.372   3.619  0.00  0.00    +0.292 HD
ENDBRANCH  10  18
BRANCH  11  20
ATOM     20  O   UNL     1     -40.453  25.782  -0.976  0.00  0.00    -0.468 OA
ATOM     21  C   UNL     1     -41.519  24.851  -0.981  0.00  0.00    +0.253 C 
ENDBRANCH  11  20
BRANCH  15  22
ATOM     22  O   UNL     1     -35.497  20.938   4.125  0.00  0.00    -0.505 OA
ATOM     23  H   UNL     1     -34.924  20.582   4.775  0.00  0.00    +0.292 HD
ENDBRANCH  15  22
BRANCH  16  24
ATOM     24  O   UNL     1     -34.790  25.198   6.073  0.00  0.00    -0.471 OA
ATOM     25  C   UNL     1     -33.949  26.256   5.616  0.00  0.00    +0.252 C 
ENDBRANCH  16  24
TORSDOF 4
ENDMDL
MODEL 9
REMARK VINA RESULT:      -5.7      2.466      5.921
REMARK  Name = 56684113
REMARK  4 active torsions:
REMARK  status: ('A' for Active; 'I' for Inactive)
REMARK    1  A    between atoms: C_10  and  O_18
REMARK    2  A    between atoms: C_11  and  O_20
REMARK    3  A    between atoms: C_15  and  O_22
REMARK    4  A    between atoms: C_16  and  O_24
REMARK                            x       y       z     vdW  Elec       q    Type
REMARK                         _______ _______ _______ _____ _____    ______ ____
ROOT
ATOM      1  O   UNL     1     -33.455  26.302   4.567  0.00  0.00    -0.444 OA
ATOM      2  O   UNL     1     -32.465  28.207   5.240  0.00  0.00    -0.245 OA
ATOM      3  O   UNL     1     -38.109  24.080   3.785  0.00  0.00    -0.280 OA
ATOM      4  C   UNL     1     -34.231  25.560   3.585  0.00  0.00    +0.179 C 
ATOM      5  C   UNL     1     -35.442  26.373   3.185  0.00  0.00    +0.055 C 
ATOM      6  C   UNL     1     -35.086  27.750   2.787  0.00  0.00    +0.015 C 
ATOM      7  C   UNL     1     -34.593  24.254   4.247  0.00  0.00    +0.058 C 
ATOM      8  C   UNL     1     -33.323  25.234   2.385  0.00  0.00    +0.053 C 
ATOM      9  C   UNL     1     -33.985  28.352   3.417  0.00  0.00    +0.109 C 
ATOM     10  C   UNL     1     -36.705  25.919   3.280  0.00  0.00    +0.175 C 
ATOM     11  C   UNL     1     -35.836  23.766   4.335  0.00  0.00    +0.180 C 
ATOM     12  C   UNL     1     -33.229  27.637   4.472  0.00  0.00    +0.345 C 
ATOM     13  C   UNL     1     -36.972  24.545   3.789  0.00  0.00    +0.262 C 
ATOM     14  C   UNL     1     -35.748  28.456   1.773  0.00  0.00    +0.037 C 
ATOM     15  C   UNL     1     -33.589  29.651   3.072  0.00  0.00    +0.143 C 
ATOM     16  C   UNL     1     -35.349  29.750   1.427  0.00  0.00    +0.142 C 
ATOM     17  C   UNL     1     -34.275  30.347   2.079  0.00  0.00    +0.074 C 
ENDROOT
BRANCH  10  18
ATOM     18  O   UNL     1     -37.807  26.693   2.978  0.00  0.00    -0.503 OA
ATOM     19  H   UNL     1     -37.791  27.616   3.140  0.00  0.00    +0.292 HD
ENDBRANCH  10  18
BRANCH  11  20
ATOM     20  O   UNL     1     -36.087  22.546   4.923  0.00  0.00    -0.468 OA
ATOM     21  C   UNL     1     -35.387  22.425   6.147  0.00  0.00    +0.253 C 
ENDBRANCH  11  20
BRANCH  15  22
ATOM     22  O   UNL     1     -32.527  30.277   3.656  0.00  0.00    -0.505 OA
ATOM     23  H   UNL     1     -32.378  30.187   4.576  0.00  0.00    +0.292 HD
ENDBRANCH  15  22
BRANCH  16  24
ATOM     24  O   UNL     1     -36.007  30.422   0.443  0.00  0.00    -0.471 OA
ATOM     25  C   UNL     1     -37.256  29.885   0.012  0.00  0.00    +0.252 C 
ENDBRANCH  16  24
TORSDOF 4
ENDMDL
