MODEL 1
REMARK VINA RESULT:      -5.8      0.000      0.000
REMARK  Name = 193508
REMARK  9 active torsions:
REMARK  status: ('A' for Active; 'I' for Inactive)
REMARK    1  A    between atoms: CA_1  and  C_4
REMARK    2  A    between atoms: CA_1  and  N_14
REMARK    3  A    between atoms: CA_1  and  CB_18
REMARK    4  A    between atoms: N_3  and  CA_6
REMARK    5  A    between atoms: CA_6  and  C_8
REMARK    6  A    between atoms: CA_6  and  CB_11
REMARK    7  A    between atoms: C_8  and  O_9
REMARK    8  A    between atoms: CB_11  and  OG_12
REMARK    9  A    between atoms: CB_18  and  CG_19
REMARK                            x       y       z     vdW  Elec       q    Type
REMARK                         _______ _______ _______ _____ _____    ______ ____
ROOT
ATOM      1  CA  PHE A   1     -35.829  20.644   2.535  0.00  0.00    +0.017 C 
ENDROOT
BRANCH   1   4
ATOM      2  O   PHE A   1     -35.213  21.177   4.817  0.00  0.00    -0.277 OA
ATOM      3  N   SER A   2     -35.694  22.918   3.363  0.00  0.00    -0.296 N 
ATOM      4  C   PHE A   1     -35.535  21.582   3.701  0.00  0.00    +0.203 C 
ATOM      5  H   SER A   2     -35.954  23.149   2.443  0.00  0.00    +0.150 HD
BRANCH   3   6
ATOM      6  CA  SER A   2     -35.491  23.981   4.319  0.00  0.00    +0.201 C 
BRANCH   6   8
ATOM      7  OXT SER A   2     -37.864  24.406   3.977  0.00  0.00    -0.248 OA
ATOM      8  C   SER A   2     -36.771  24.790   4.372  0.00  0.00    +0.334 C 
BRANCH   8   9
ATOM      9  O   SER A   2     -36.562  26.035   4.874  0.00  0.00    -0.479 OA
ATOM     10  H   SER A   2     -36.482  26.160   5.800  0.00  0.00    +0.295 HD
ENDBRANCH   8   9
ENDBRANCH   6   8
BRANCH   6  11
ATOM     11  CB  SER A   2     -34.316  24.867   3.934  0.00  0.00    +0.168 C 
BRANCH  11  12
ATOM     12  OG  SER A   2     -33.734  25.410   5.113  0.00  0.00    -0.380 OA
ATOM     13  H   SER A   2     -34.203  25.071   5.891  0.00  0.00    +0.211 HD
ENDBRANCH  11  12
ENDBRANCH   6  11
ENDBRANCH   3   6
ENDBRANCH   1   4
BRANCH   1  14
ATOM     14  N   PHE A   1     -37.276  20.687   2.315  0.00  0.00    +0.388 N 
ATOM     15  H1  PHE A   1     -37.757  20.391   3.163  0.00  0.00    -0.089 HD
ATOM     16  H2  PHE A   1     -37.522  20.059   1.549  0.00  0.00    -0.089 HD
ATOM     17  H3  PHE A   1     -37.556  21.638   2.079  0.00  0.00    -0.089 HD
ENDBRANCH   1  14
BRANCH   1  18
ATOM     18  CB  PHE A   1     -35.095  21.105   1.268  0.00  0.00    +0.013 C 
BRANCH  18  19
ATOM     19  CG  PHE A   1     -33.835  20.316   1.001  0.00  0.00    -0.024 C 
ATOM     20  CD1 PHE A   1     -32.845  20.864   0.202  0.00  0.00    -0.004 C 
ATOM     21  CD2 PHE A   1     -33.692  19.057   1.563  0.00  0.00    -0.004 C 
ATOM     22  CE1 PHE A   1     -31.682  20.135  -0.044  0.00  0.00    -0.000 C 
ATOM     23  CE2 PHE A   1     -32.528  18.327   1.317  0.00  0.00    -0.000 C 
ATOM     24  CZ  PHE A   1     -31.524  18.867   0.513  0.00  0.00    -0.000 C 
ENDBRANCH  18  19
ENDBRANCH   1  18
TORSDOF 9
ENDMDL
MODEL 2
REMARK VINA RESULT:      -5.7      1.413      2.075
REMARK  Name = 193508
REMARK  9 active torsions:
REMARK  status: ('A' for Active; 'I' for Inactive)
REMARK    1  A    between atoms: CA_1  and  C_4
REMARK    2  A    between atoms: CA_1  and  N_14
REMARK    3  A    between atoms: CA_1  and  CB_18
REMARK    4  A    between atoms: N_3  and  CA_6
REMARK    5  A    between atoms: CA_6  and  C_8
REMARK    6  A    between atoms: CA_6  and  CB_11
REMARK    7  A    between atoms: C_8  and  O_9
REMARK    8  A    between atoms: CB_11  and  OG_12
REMARK    9  A    between atoms: CB_18  and  CG_19
REMARK                            x       y       z     vdW  Elec       q    Type
REMARK                         _______ _______ _______ _____ _____    ______ ____
ROOT
ATOM      1  CA  PHE A   1     -35.642  20.134   1.945  0.00  0.00    +0.017 C 
ENDROOT
BRANCH   1   4
ATOM      2  O   PHE A   1     -37.221  21.922   2.373  0.00  0.00    -0.277 OA
ATOM      3  N   SER A   2     -35.523  21.550   3.909  0.00  0.00    -0.296 N 
ATOM      4  C   PHE A   1     -36.234  21.290   2.746  0.00  0.00    +0.203 C 
ATOM      5  H   SER A   2     -34.744  20.990   4.126  0.00  0.00    +0.150 HD
BRANCH   3   6
ATOM      6  CA  SER A   2     -35.890  22.617   4.809  0.00  0.00    +0.201 C 
BRANCH   6   8
ATOM      7  OXT SER A   2     -34.029  24.186   4.747  0.00  0.00    -0.248 OA
ATOM      8  C   SER A   2     -35.145  23.859   4.365  0.00  0.00    +0.334 C 
BRANCH   8   9
ATOM      9  O   SER A   2     -35.883  24.614   3.510  0.00  0.00    -0.479 OA
ATOM     10  H   SER A   2     -36.313  25.387   3.819  0.00  0.00    +0.295 HD
ENDBRANCH   8   9
ENDBRANCH   6   8
BRANCH   6  11
ATOM     11  CB  SER A   2     -35.547  22.278   6.252  0.00  0.00    +0.168 C 
BRANCH  11  12
ATOM     12  OG  SER A   2     -34.429  21.398   6.273  0.00  0.00    -0.380 OA
ATOM     13  H   SER A   2     -34.135  21.227   5.364  0.00  0.00    +0.211 HD
ENDBRANCH  11  12
ENDBRANCH   6  11
ENDBRANCH   3   6
ENDBRANCH   1   4
BRANCH   1  14
ATOM     14  N   PHE A   1     -36.769  19.408   1.357  0.00  0.00    +0.388 N 
ATOM     15  H1  PHE A   1     -36.838  18.485   1.785  0.00  0.00    -0.089 HD
ATOM     16  H2  PHE A   1     -36.621  19.307   0.353  0.00  0.00    -0.089 HD
ATOM     17  H3  PHE A   1     -37.631  19.926   1.524  0.00  0.00    -0.089 HD
ENDBRANCH   1  14
BRANCH   1  18
ATOM     18  CB  PHE A   1     -34.722  20.658   0.833  0.00  0.00    +0.013 C 
BRANCH  18  19
ATOM     19  CG  PHE A   1     -33.411  19.912   0.758  0.00  0.00    -0.024 C 
ATOM     20  CD1 PHE A   1     -32.359  20.457   0.039  0.00  0.00    -0.004 C 
ATOM     21  CD2 PHE A   1     -33.284  18.696   1.410  0.00  0.00    -0.004 C 
ATOM     22  CE1 PHE A   1     -31.148  19.768  -0.030  0.00  0.00    -0.000 C 
ATOM     23  CE2 PHE A   1     -32.073  18.007   1.341  0.00  0.00    -0.000 C 
ATOM     24  CZ  PHE A   1     -31.006  18.543   0.620  0.00  0.00    -0.000 C 
ENDBRANCH  18  19
ENDBRANCH   1  18
TORSDOF 9
ENDMDL
MODEL 3
REMARK VINA RESULT:      -5.7      1.378      2.382
REMARK  Name = 193508
REMARK  9 active torsions:
REMARK  status: ('A' for Active; 'I' for Inactive)
REMARK    1  A    between atoms: CA_1  and  C_4
REMARK    2  A    between atoms: CA_1  and  N_14
REMARK    3  A    between atoms: CA_1  and  CB_18
REMARK    4  A    between atoms: N_3  and  CA_6
REMARK    5  A    between atoms: CA_6  and  C_8
REMARK    6  A    between atoms: CA_6  and  CB_11
REMARK    7  A    between atoms: C_8  and  O_9
REMARK    8  A    between atoms: CB_11  and  OG_12
REMARK    9  A    between atoms: CB_18  and  CG_19
REMARK                            x       y       z     vdW  Elec       q    Type
REMARK                         _______ _______ _______ _____ _____    ______ ____
ROOT
ATOM      1  CA  PHE A   1     -35.296  20.330   2.091  0.00  0.00    +0.017 C 
ENDROOT
BRANCH   1   4
ATOM      2  O   PHE A   1     -34.692  22.575   1.407  0.00  0.00    -0.277 OA
ATOM      3  N   SER A   2     -35.972  22.306   3.323  0.00  0.00    -0.296 N 
ATOM      4  C   PHE A   1     -35.279  21.851   2.210  0.00  0.00    +0.203 C 
ATOM      5  H   SER A   2     -36.412  21.651   3.910  0.00  0.00    +0.150 HD
BRANCH   3   6
ATOM      6  CA  SER A   2     -36.065  23.710   3.646  0.00  0.00    +0.201 C 
BRANCH   6   8
ATOM      7  OXT SER A   2     -35.508  24.832   5.734  0.00  0.00    -0.248 OA
ATOM      8  C   SER A   2     -35.916  23.838   5.149  0.00  0.00    +0.334 C 
BRANCH   8   9
ATOM      9  O   SER A   2     -36.247  22.687   5.790  0.00  0.00    -0.479 OA
ATOM     10  H   SER A   2     -35.849  22.476   6.611  0.00  0.00    +0.295 HD
ENDBRANCH   8   9
ENDBRANCH   6   8
BRANCH   6  11
ATOM     11  CB  SER A   2     -37.390  24.305   3.190  0.00  0.00    +0.168 C 
BRANCH  11  12
ATOM     12  OG  SER A   2     -38.077  24.835   4.317  0.00  0.00    -0.380 OA
ATOM     13  H   SER A   2     -38.229  25.785   4.186  0.00  0.00    +0.211 HD
ENDBRANCH  11  12
ENDBRANCH   6  11
ENDBRANCH   3   6
ENDBRANCH   1   4
BRANCH   1  14
ATOM     14  N   PHE A   1     -36.676  19.905   2.332  0.00  0.00    +0.388 N 
ATOM     15  H1  PHE A   1     -36.700  18.898   2.485  0.00  0.00    -0.089 HD
ATOM     16  H2  PHE A   1     -37.250  20.139   1.521  0.00  0.00    -0.089 HD
ATOM     17  H3  PHE A   1     -37.040  20.384   3.156  0.00  0.00    -0.089 HD
ENDBRANCH   1  14
BRANCH   1  18
ATOM     18  CB  PHE A   1     -34.851  19.889   0.690  0.00  0.00    +0.013 C 
BRANCH  18  19
ATOM     19  CG  PHE A   1     -33.407  19.450   0.645  0.00  0.00    -0.024 C 
ATOM     20  CD1 PHE A   1     -33.028  18.290   1.302  0.00  0.00    -0.004 C 
ATOM     21  CD2 PHE A   1     -32.486  20.216  -0.052  0.00  0.00    -0.004 C 
ATOM     22  CE1 PHE A   1     -31.695  17.885   1.261  0.00  0.00    -0.000 C 
ATOM     23  CE2 PHE A   1     -31.152  19.811  -0.094  0.00  0.00    -0.000 C 
ATOM     24  CZ  PHE A   1     -30.757  18.646   0.564  0.00  0.00    -0.000 C 
ENDBRANCH  18  19
ENDBRANCH   1  18
TORSDOF 9
ENDMDL
MODEL 4
REMARK VINA RESULT:      -5.7      4.164      6.121
REMARK  Name = 193508
REMARK  9 active torsions:
REMARK  status: ('A' for Active; 'I' for Inactive)
REMARK    1  A    between atoms: CA_1  and  C_4
REMARK    2  A    between atoms: CA_1  and  N_14
REMARK    3  A    between atoms: CA_1  and  CB_18
REMARK    4  A    between atoms: N_3  and  CA_6
REMARK    5  A    between atoms: CA_6  and  C_8
REMARK    6  A    between atoms: CA_6  and  CB_11
REMARK    7  A    between atoms: C_8  and  O_9
REMARK    8  A    between atoms: CB_11  and  OG_12
REMARK    9  A    between atoms: CB_18  and  CG_19
REMARK                            x       y       z     vdW  Elec       q    Type
REMARK                         _______ _______ _______ _____ _____    ______ ____
ROOT
ATOM      1  CA  PHE A   1     -34.760  26.250   4.343  0.00  0.00    +0.017 C 
ENDROOT
BRANCH   1   4
ATOM      2  O   PHE A   1     -32.498  26.226   3.474  0.00  0.00    -0.277 OA
ATOM      3  N   SER A   2     -33.103  27.915   4.943  0.00  0.00    -0.296 N 
ATOM      4  C   PHE A   1     -33.337  26.776   4.185  0.00  0.00    +0.203 C 
ATOM      5  H   SER A   2     -33.838  28.287   5.482  0.00  0.00    +0.150 HD
BRANCH   3   6
ATOM      6  CA  SER A   2     -31.818  28.571   4.966  0.00  0.00    +0.201 C 
BRANCH   6   8
ATOM      7  OXT SER A   2     -31.596  29.556   7.182  0.00  0.00    -0.248 OA
ATOM      8  C   SER A   2     -31.368  28.632   6.411  0.00  0.00    +0.334 C 
BRANCH   8   9
ATOM      9  O   SER A   2     -30.627  27.548   6.758  0.00  0.00    -0.479 OA
ATOM     10  H   SER A   2     -31.033  26.706   6.829  0.00  0.00    +0.295 HD
ENDBRANCH   8   9
ENDBRANCH   6   8
BRANCH   6  11
ATOM     11  CB  SER A   2     -31.890  29.969   4.370  0.00  0.00    +0.168 C 
BRANCH  11  12
ATOM     12  OG  SER A   2     -33.065  30.618   4.841  0.00  0.00    -0.380 OA
ATOM     13  H   SER A   2     -32.948  30.864   5.772  0.00  0.00    +0.211 HD
ENDBRANCH  11  12
ENDBRANCH   6  11
ENDBRANCH   3   6
ENDBRANCH   1   4
BRANCH   1  14
ATOM     14  N   PHE A   1     -35.658  27.353   3.998  0.00  0.00    +0.388 N 
ATOM     15  H1  PHE A   1     -35.111  28.142   3.655  0.00  0.00    -0.089 HD
ATOM     16  H2  PHE A   1     -36.180  27.637   4.828  0.00  0.00    -0.089 HD
ATOM     17  H3  PHE A   1     -36.308  27.049   3.274  0.00  0.00    -0.089 HD
ENDBRANCH   1  14
BRANCH   1  18
ATOM     18  CB  PHE A   1     -35.007  25.062   3.402  0.00  0.00    +0.013 C 
BRANCH  18  19
ATOM     19  CG  PHE A   1     -35.117  23.746   4.136  0.00  0.00    -0.024 C 
ATOM     20  CD1 PHE A   1     -35.281  22.576   3.413  0.00  0.00    -0.004 C 
ATOM     21  CD2 PHE A   1     -35.050  23.735   5.520  0.00  0.00    -0.004 C 
ATOM     22  CE1 PHE A   1     -35.383  21.362   4.091  0.00  0.00    -0.000 C 
ATOM     23  CE2 PHE A   1     -35.151  22.520   6.199  0.00  0.00    -0.000 C 
ATOM     24  CZ  PHE A   1     -35.318  21.334   5.484  0.00  0.00    -0.000 C 
ENDBRANCH  18  19
ENDBRANCH   1  18
TORSDOF 9
ENDMDL
MODEL 5
REMARK VINA RESULT:      -5.6      2.052      3.041
REMARK  Name = 193508
REMARK  9 active torsions:
REMARK  status: ('A' for Active; 'I' for Inactive)
REMARK    1  A    between atoms: CA_1  and  C_4
REMARK    2  A    between atoms: CA_1  and  N_14
REMARK    3  A    between atoms: CA_1  and  CB_18
REMARK    4  A    between atoms: N_3  and  CA_6
REMARK    5  A    between atoms: CA_6  and  C_8
REMARK    6  A    between atoms: CA_6  and  CB_11
REMARK    7  A    between atoms: C_8  and  O_9
REMARK    8  A    between atoms: CB_11  and  OG_12
REMARK    9  A    between atoms: CB_18  and  CG_19
REMARK                            x       y       z     vdW  Elec       q    Type
REMARK                         _______ _______ _______ _____ _____    ______ ____
ROOT
ATOM      1  CA  PHE A   1     -35.482  22.574   4.755  0.00  0.00    +0.017 C 
ENDROOT
BRANCH   1   4
ATOM      2  O   PHE A   1     -36.821  24.588   4.897  0.00  0.00    -0.277 OA
ATOM      3  N   SER A   2     -34.528  24.757   5.202  0.00  0.00    -0.296 N 
ATOM      4  C   PHE A   1     -35.709  24.068   4.961  0.00  0.00    +0.203 C 
ATOM      5  H   SER A   2     -33.682  24.255   5.237  0.00  0.00    +0.150 HD
BRANCH   3   6
ATOM      6  CA  SER A   2     -34.501  26.186   5.403  0.00  0.00    +0.201 C 
BRANCH   6   8
ATOM      7  OXT SER A   2     -33.487  26.539   3.218  0.00  0.00    -0.248 OA
ATOM      8  C   SER A   2     -34.345  26.830   4.041  0.00  0.00    +0.334 C 
BRANCH   8   9
ATOM      9  O   SER A   2     -35.252  27.822   3.843  0.00  0.00    -0.479 OA
ATOM     10  H   SER A   2     -35.059  28.523   3.251  0.00  0.00    +0.295 HD
ENDBRANCH   8   9
ENDBRANCH   6   8
BRANCH   6  11
ATOM     11  CB  SER A   2     -33.364  26.603   6.324  0.00  0.00    +0.168 C 
BRANCH  11  12
ATOM     12  OG  SER A   2     -32.804  27.823   5.852  0.00  0.00    -0.380 OA
ATOM     13  H   SER A   2     -33.253  28.090   5.034  0.00  0.00    +0.211 HD
ENDBRANCH  11  12
ENDBRANCH   6  11
ENDBRANCH   3   6
ENDBRANCH   1   4
BRANCH   1  14
ATOM     14  N   PHE A   1     -35.986  21.901   5.953  0.00  0.00    +0.388 N 
ATOM     15  H1  PHE A   1     -36.934  21.569   5.783  0.00  0.00    -0.089 HD
ATOM     16  H2  PHE A   1     -35.992  22.559   6.734  0.00  0.00    -0.089 HD
ATOM     17  H3  PHE A   1     -35.383  21.111   6.179  0.00  0.00    -0.089 HD
ENDBRANCH   1  14
BRANCH   1  18
ATOM     18  CB  PHE A   1     -36.242  22.075   3.517  0.00  0.00    +0.013 C 
BRANCH  18  19
ATOM     19  CG  PHE A   1     -35.322  21.587   2.423  0.00  0.00    -0.024 C 
ATOM     20  CD1 PHE A   1     -34.820  22.494   1.503  0.00  0.00    -0.004 C 
ATOM     21  CD2 PHE A   1     -34.997  20.242   2.359  0.00  0.00    -0.004 C 
ATOM     22  CE1 PHE A   1     -33.971  22.043   0.492  0.00  0.00    -0.000 C 
ATOM     23  CE2 PHE A   1     -34.148  19.791   1.349  0.00  0.00    -0.000 C 
ATOM     24  CZ  PHE A   1     -33.636  20.692   0.415  0.00  0.00    -0.000 C 
ENDBRANCH  18  19
ENDBRANCH   1  18
TORSDOF 9
ENDMDL
MODEL 6
REMARK VINA RESULT:      -5.5      3.088      6.832
REMARK  Name = 193508
REMARK  9 active torsions:
REMARK  status: ('A' for Active; 'I' for Inactive)
REMARK    1  A    between atoms: CA_1  and  C_4
REMARK    2  A    between atoms: CA_1  and  N_14
REMARK    3  A    between atoms: CA_1  and  CB_18
REMARK    4  A    between atoms: N_3  and  CA_6
REMARK    5  A    between atoms: CA_6  and  C_8
REMARK    6  A    between atoms: CA_6  and  CB_11
REMARK    7  A    between atoms: C_8  and  O_9
REMARK    8  A    between atoms: CB_11  and  OG_12
REMARK    9  A    between atoms: CB_18  and  CG_19
REMARK                            x       y       z     vdW  Elec       q    Type
REMARK                         _______ _______ _______ _____ _____    ______ ____
ROOT
ATOM      1  CA  PHE A   1     -35.392  25.505   4.898  0.00  0.00    +0.017 C 
ENDROOT
BRANCH   1   4
ATOM      2  O   PHE A   1     -36.027  23.363   5.836  0.00  0.00    -0.277 OA
ATOM      3  N   SER A   2     -36.400  23.739   3.578  0.00  0.00    -0.296 N 
ATOM      4  C   PHE A   1     -35.972  24.095   4.850  0.00  0.00    +0.203 C 
ATOM      5  H   SER A   2     -36.317  24.393   2.848  0.00  0.00    +0.150 HD
BRANCH   3   6
ATOM      6  CA  SER A   2     -36.961  22.440   3.294  0.00  0.00    +0.201 C 
BRANCH   6   8
ATOM      7  OXT SER A   2     -34.967  22.021   1.962  0.00  0.00    -0.248 OA
ATOM      8  C   SER A   2     -35.861  21.597   2.682  0.00  0.00    +0.334 C 
BRANCH   8   9
ATOM      9  O   SER A   2     -36.001  20.281   2.988  0.00  0.00    -0.479 OA
ATOM     10  H   SER A   2     -36.391  20.028   3.802  0.00  0.00    +0.295 HD
ENDBRANCH   8   9
ENDBRANCH   6   8
BRANCH   6  11
ATOM     11  CB  SER A   2     -38.148  22.536   2.347  0.00  0.00    +0.168 C 
BRANCH  11  12
ATOM     12  OG  SER A   2     -38.771  21.260   2.247  0.00  0.00    -0.380 OA
ATOM     13  H   SER A   2     -38.780  20.976   1.319  0.00  0.00    +0.211 HD
ENDBRANCH  11  12
ENDBRANCH   6  11
ENDBRANCH   3   6
ENDBRANCH   1   4
BRANCH   1  14
ATOM     14  N   PHE A   1     -36.453  26.380   5.402  0.00  0.00    +0.388 N 
ATOM     15  H1  PHE A   1     -36.073  27.310   5.574  0.00  0.00    -0.089 HD
ATOM     16  H2  PHE A   1     -36.823  25.998   6.274  0.00  0.00    -0.089 HD
ATOM     17  H3  PHE A   1     -37.201  26.439   4.712  0.00  0.00    -0.089 HD
ENDBRANCH   1  14
BRANCH   1  18
ATOM     18  CB  PHE A   1     -34.178  25.562   5.837  0.00  0.00    +0.013 C 
BRANCH  18  19
ATOM     19  CG  PHE A   1     -33.328  26.791   5.620  0.00  0.00    -0.024 C 
ATOM     20  CD1 PHE A   1     -33.203  27.315   4.344  0.00  0.00    -0.004 C 
ATOM     21  CD2 PHE A   1     -32.687  27.371   6.703  0.00  0.00    -0.004 C 
ATOM     22  CE1 PHE A   1     -32.418  28.450   4.145  0.00  0.00    -0.000 C 
ATOM     23  CE2 PHE A   1     -31.902  28.507   6.505  0.00  0.00    -0.000 C 
ATOM     24  CZ  PHE A   1     -31.767  29.045   5.225  0.00  0.00    -0.000 C 
ENDBRANCH  18  19
ENDBRANCH   1  18
TORSDOF 9
ENDMDL
MODEL 7
REMARK VINA RESULT:      -5.4      1.633      2.087
REMARK  Name = 193508
REMARK  9 active torsions:
REMARK  status: ('A' for Active; 'I' for Inactive)
REMARK    1  A    between atoms: CA_1  and  C_4
REMARK    2  A    between atoms: CA_1  and  N_14
REMARK    3  A    between atoms: CA_1  and  CB_18
REMARK    4  A    between atoms: N_3  and  CA_6
REMARK    5  A    between atoms: CA_6  and  C_8
REMARK    6  A    between atoms: CA_6  and  CB_11
REMARK    7  A    between atoms: C_8  and  O_9
REMARK    8  A    between atoms: CB_11  and  OG_12
REMARK    9  A    between atoms: CB_18  and  CG_19
REMARK                            x       y       z     vdW  Elec       q    Type
REMARK                         _______ _______ _______ _____ _____    ______ ____
ROOT
ATOM      1  CA  PHE A   1     -36.005  21.140   2.531  0.00  0.00    +0.017 C 
ENDROOT
BRANCH   1   4
ATOM      2  O   PHE A   1     -35.710  22.701   4.361  0.00  0.00    -0.277 OA
ATOM      3  N   SER A   2     -37.309  23.172   2.749  0.00  0.00    -0.296 N 
ATOM      4  C   PHE A   1     -36.300  22.411   3.322  0.00  0.00    +0.203 C 
ATOM      5  H   SER A   2     -37.725  22.860   1.913  0.00  0.00    +0.150 HD
BRANCH   3   6
ATOM      6  CA  SER A   2     -37.770  24.405   3.341  0.00  0.00    +0.201 C 
BRANCH   6   8
ATOM      7  OXT SER A   2     -39.779  24.268   1.973  0.00  0.00    -0.248 OA
ATOM      8  C   SER A   2     -39.252  24.521   3.048  0.00  0.00    +0.334 C 
BRANCH   8   9
ATOM      9  O   SER A   2     -39.944  24.990   4.118  0.00  0.00    -0.479 OA
ATOM     10  H   SER A   2     -40.844  24.756   4.234  0.00  0.00    +0.295 HD
ENDBRANCH   8   9
ENDBRANCH   6   8
BRANCH   6  11
ATOM     11  CB  SER A   2     -37.021  25.609   2.787  0.00  0.00    +0.168 C 
BRANCH  11  12
ATOM     12  OG  SER A   2     -37.933  26.687   2.614  0.00  0.00    -0.380 OA
ATOM     13  H   SER A   2     -37.808  27.334   3.327  0.00  0.00    +0.211 HD
ENDBRANCH  11  12
ENDBRANCH   6  11
ENDBRANCH   3   6
ENDBRANCH   1   4
BRANCH   1  14
ATOM     14  N   PHE A   1     -37.296  20.507   2.256  0.00  0.00    +0.388 N 
ATOM     15  H1  PHE A   1     -37.634  20.043   3.099  0.00  0.00    -0.089 HD
ATOM     16  H2  PHE A   1     -37.185  19.818   1.511  0.00  0.00    -0.089 HD
ATOM     17  H3  PHE A   1     -37.968  21.217   1.965  0.00  0.00    -0.089 HD
ENDBRANCH   1  14
BRANCH   1  18
ATOM     18  CB  PHE A   1     -35.295  21.473   1.211  0.00  0.00    +0.013 C 
BRANCH  18  19
ATOM     19  CG  PHE A   1     -34.064  20.629   0.980  0.00  0.00    -0.024 C 
ATOM     20  CD1 PHE A   1     -33.040  21.123   0.188  0.00  0.00    -0.004 C 
ATOM     21  CD2 PHE A   1     -33.982  19.375   1.564  0.00  0.00    -0.004 C 
ATOM     22  CE1 PHE A   1     -31.904  20.343  -0.026  0.00  0.00    -0.000 C 
ATOM     23  CE2 PHE A   1     -32.845  18.595   1.351  0.00  0.00    -0.000 C 
ATOM     24  CZ  PHE A   1     -31.807  19.079   0.555  0.00  0.00    -0.000 C 
ENDBRANCH  18  19
ENDBRANCH   1  18
TORSDOF 9
ENDMDL
MODEL 8
REMARK VINA RESULT:      -5.3      3.824      6.893
REMARK  Name = 193508
REMARK  9 active torsions:
REMARK  status: ('A' for Active; 'I' for Inactive)
REMARK    1  A    between atoms: CA_1  and  C_4
REMARK    2  A    between atoms: CA_1  and  N_14
REMARK    3  A    between atoms: CA_1  and  CB_18
REMARK    4  A    between atoms: N_3  and  CA_6
REMARK    5  A    between atoms: CA_6  and  C_8
REMARK    6  A    between atoms: CA_6  and  CB_11
REMARK    7  A    between atoms: C_8  and  O_9
REMARK    8  A    between atoms: CB_11  and  OG_12
REMARK    9  A    between atoms: CB_18  and  CG_19
REMARK                            x       y       z     vdW  Elec       q    Type
REMARK                         _______ _______ _______ _____ _____    ______ ____
ROOT
ATOM      1  CA  PHE A   1     -36.343  20.926   1.693  0.00  0.00    +0.017 C 
ENDROOT
BRANCH   1   4
ATOM      2  O   PHE A   1     -35.659  20.697  -0.620  0.00  0.00    -0.277 OA
ATOM      3  N   SER A   2     -35.901  18.778   0.658  0.00  0.00    -0.296 N 
ATOM      4  C   PHE A   1     -35.924  20.150   0.448  0.00  0.00    +0.203 C 
ATOM      5  H   SER A   2     -36.128  18.429   1.550  0.00  0.00    +0.150 HD
BRANCH   3   6
ATOM      6  CA  SER A   2     -35.557  17.847  -0.389  0.00  0.00    +0.201 C 
BRANCH   6   8
ATOM      7  OXT SER A   2     -37.024  16.363  -1.643  0.00  0.00    -0.248 OA
ATOM      8  C   SER A   2     -36.752  16.940  -0.599  0.00  0.00    +0.334 C 
BRANCH   8   9
ATOM      9  O   SER A   2     -37.535  16.871   0.509  0.00  0.00    -0.479 OA
ATOM     10  H   SER A   2     -37.964  17.640   0.829  0.00  0.00    +0.295 HD
ENDBRANCH   8   9
ENDBRANCH   6   8
BRANCH   6  11
ATOM     11  CB  SER A   2     -34.324  17.030  -0.032  0.00  0.00    +0.168 C 
BRANCH  11  12
ATOM     12  OG  SER A   2     -34.722  15.707   0.308  0.00  0.00    -0.380 OA
ATOM     13  H   SER A   2     -33.937  15.142   0.383  0.00  0.00    +0.211 HD
ENDBRANCH  11  12
ENDBRANCH   6  11
ENDBRANCH   3   6
ENDBRANCH   1   4
BRANCH   1  14
ATOM     14  N   PHE A   1     -37.693  20.476   2.034  0.00  0.00    +0.388 N 
ATOM     15  H1  PHE A   1     -38.172  21.208   2.559  0.00  0.00    -0.089 HD
ATOM     16  H2  PHE A   1     -37.636  19.632   2.604  0.00  0.00    -0.089 HD
ATOM     17  H3  PHE A   1     -38.211  20.276   1.179  0.00  0.00    -0.089 HD
ENDBRANCH   1  14
BRANCH   1  18
ATOM     18  CB  PHE A   1     -35.386  20.640   2.859  0.00  0.00    +0.013 C 
BRANCH  18  19
ATOM     19  CG  PHE A   1     -35.372  21.744   3.890  0.00  0.00    -0.024 C 
ATOM     20  CD1 PHE A   1     -35.211  21.423   5.228  0.00  0.00    -0.004 C 
ATOM     21  CD2 PHE A   1     -35.521  23.058   3.477  0.00  0.00    -0.004 C 
ATOM     22  CE1 PHE A   1     -35.199  22.442   6.179  0.00  0.00    -0.000 C 
ATOM     23  CE2 PHE A   1     -35.508  24.079   4.428  0.00  0.00    -0.000 C 
ATOM     24  CZ  PHE A   1     -35.348  23.770   5.779  0.00  0.00    -0.000 C 
ENDBRANCH  18  19
ENDBRANCH   1  18
TORSDOF 9
ENDMDL
MODEL 9
REMARK VINA RESULT:      -5.3      1.105      2.190
REMARK  Name = 193508
REMARK  9 active torsions:
REMARK  status: ('A' for Active; 'I' for Inactive)
REMARK    1  A    between atoms: CA_1  and  C_4
REMARK    2  A    between atoms: CA_1  and  N_14
REMARK    3  A    between atoms: CA_1  and  CB_18
REMARK    4  A    between atoms: N_3  and  CA_6
REMARK    5  A    between atoms: CA_6  and  C_8
REMARK    6  A    between atoms: CA_6  and  CB_11
REMARK    7  A    between atoms: C_8  and  O_9
REMARK    8  A    between atoms: CB_11  and  OG_12
REMARK    9  A    between atoms: CB_18  and  CG_19
REMARK                            x       y       z     vdW  Elec       q    Type
REMARK                         _______ _______ _______ _____ _____    ______ ____
ROOT
ATOM      1  CA  PHE A   1     -35.678  20.801   2.397  0.00  0.00    +0.017 C 
ENDROOT
BRANCH   1   4
ATOM      2  O   PHE A   1     -37.406  22.439   2.843  0.00  0.00    -0.277 OA
ATOM      3  N   SER A   2     -35.201  23.010   3.275  0.00  0.00    -0.296 N 
ATOM      4  C   PHE A   1     -36.211  22.153   2.861  0.00  0.00    +0.203 C 
ATOM      5  H   SER A   2     -34.269  22.693   3.255  0.00  0.00    +0.150 HD
BRANCH   3   6
ATOM      6  CA  SER A   2     -35.473  24.351   3.733  0.00  0.00    +0.201 C 
BRANCH   6   8
ATOM      7  OXT SER A   2     -33.860  25.698   2.503  0.00  0.00    -0.248 OA
ATOM      8  C   SER A   2     -34.204  25.158   3.546  0.00  0.00    +0.334 C 
BRANCH   8   9
ATOM      9  O   SER A   2     -33.447  25.179   4.674  0.00  0.00    -0.479 OA
ATOM     10  H   SER A   2     -33.481  25.919   5.248  0.00  0.00    +0.295 HD
ENDBRANCH   8   9
ENDBRANCH   6   8
BRANCH   6  11
ATOM     11  CB  SER A   2     -35.907  24.370   5.191  0.00  0.00    +0.168 C 
BRANCH  11  12
ATOM     12  OG  SER A   2     -36.342  25.681   5.533  0.00  0.00    -0.380 OA
ATOM     13  H   SER A   2     -35.719  26.074   6.165  0.00  0.00    +0.211 HD
ENDBRANCH  11  12
ENDBRANCH   6  11
ENDBRANCH   3   6
ENDBRANCH   1   4
BRANCH   1  14
ATOM     14  N   PHE A   1     -36.822  19.889   2.353  0.00  0.00    +0.388 N 
ATOM     15  H1  PHE A   1     -37.193  19.855   1.404  0.00  0.00    -0.089 HD
ATOM     16  H2  PHE A   1     -37.547  20.223   2.988  0.00  0.00    -0.089 HD
ATOM     17  H3  PHE A   1     -36.524  18.956   2.636  0.00  0.00    -0.089 HD
ENDBRANCH   1  14
BRANCH   1  18
ATOM     18  CB  PHE A   1     -35.047  20.916   1.002  0.00  0.00    +0.013 C 
BRANCH  18  19
ATOM     19  CG  PHE A   1     -33.752  20.147   0.879  0.00  0.00    -0.024 C 
ATOM     20  CD1 PHE A   1     -33.628  18.920   1.511  0.00  0.00    -0.004 C 
ATOM     21  CD2 PHE A   1     -32.713  20.683   0.137  0.00  0.00    -0.004 C 
ATOM     22  CE1 PHE A   1     -32.433  18.211   1.398  0.00  0.00    -0.000 C 
ATOM     23  CE2 PHE A   1     -31.517  19.973   0.023  0.00  0.00    -0.000 C 
ATOM     24  CZ  PHE A   1     -31.377  18.738   0.654  0.00  0.00    -0.000 C 
ENDBRANCH  18  19
ENDBRANCH   1  18
TORSDOF 9
ENDMDL
