MODEL 1
REMARK VINA RESULT:      -6.4      0.000      0.000
REMARK  Name = 53229
REMARK  3 active torsions:
REMARK  status: ('A' for Active; 'I' for Inactive)
REMARK    1  A    between atoms: C_7  and  N_19
REMARK    2  A    between atoms: C_8  and  N_22
REMARK    3  A    between atoms: C_13  and  N_25
REMARK                            x       y       z     vdW  Elec       q    Type
REMARK                         _______ _______ _______ _____ _____    ______ ____
ROOT
ATOM      1  C   UNL     1     -35.783  25.319   3.300  0.00  0.00    +0.003 C 
ATOM      2  C   UNL     1     -35.089  26.554   3.262  0.00  0.00    +0.002 C 
ATOM      3  C   UNL     1     -35.375  24.307   4.200  0.00  0.00    +0.023 C 
ATOM      4  C   UNL     1     -36.882  25.099   2.438  0.00  0.00    +0.023 C 
ATOM      5  C   UNL     1     -33.989  26.774   4.124  0.00  0.00    +0.022 C 
ATOM      6  C   UNL     1     -35.496  27.566   2.362  0.00  0.00    +0.000 C 
ATOM      7  C   UNL     1     -36.073  23.090   4.226  0.00  0.00    +0.144 C 
ATOM      8  C   UNL     1     -37.559  23.872   2.488  0.00  0.00    +0.144 C 
ATOM      9  C   UNL     1     -34.285  24.542   5.046  0.00  0.00    +0.002 C 
ATOM     10  C   UNL     1     -37.272  26.114   1.553  0.00  0.00    +0.002 C 
ATOM     11  C   UNL     1     -33.600  25.759   5.009  0.00  0.00    +0.002 C 
ATOM     12  C   UNL     1     -36.587  27.330   1.516  0.00  0.00    +0.000 C 
ATOM     13  C   UNL     1     -33.313  28.001   4.074  0.00  0.00    +0.143 C 
ATOM     14  C   UNL     1     -34.798  28.783   2.336  0.00  0.00    +0.002 C 
ATOM     15  C   UNL     1     -37.157  22.875   3.375  0.00  0.00    +0.048 C 
ATOM     16  C   UNL     1     -33.716  28.997   3.187  0.00  0.00    +0.024 C 
ENDROOT
BRANCH   7  19
ATOM     17  O   UNL     1     -35.938  22.162   6.332  0.00  0.00    -0.126 OA
ATOM     18  O   UNL     1     -35.187  21.000   4.628  0.00  0.00    -0.126 OA
ATOM     19  N   UNL     1     -35.714  22.029   5.108  0.00  0.00    +0.058 N 
ENDBRANCH   7  19
BRANCH   8  22
ATOM     20  O   UNL     1     -39.828  23.813   2.078  0.00  0.00    -0.126 OA
ATOM     21  O   UNL     1     -38.463  23.119   0.504  0.00  0.00    -0.126 OA
ATOM     22  N   UNL     1     -38.675  23.587   1.646  0.00  0.00    +0.058 N 
ENDBRANCH   8  22
BRANCH  13  25
ATOM     23  O   UNL     1     -31.058  27.909   4.553  0.00  0.00    -0.126 OA
ATOM     24  O   UNL     1     -32.393  28.903   5.986  0.00  0.00    -0.126 OA
ATOM     25  N   UNL     1     -32.196  28.286   4.915  0.00  0.00    +0.058 N 
ENDBRANCH  13  25
TORSDOF 3
ENDMDL
MODEL 2
REMARK VINA RESULT:      -6.4      9.129     11.899
REMARK  Name = 53229
REMARK  3 active torsions:
REMARK  status: ('A' for Active; 'I' for Inactive)
REMARK    1  A    between atoms: C_7  and  N_19
REMARK    2  A    between atoms: C_8  and  N_22
REMARK    3  A    between atoms: C_13  and  N_25
REMARK                            x       y       z     vdW  Elec       q    Type
REMARK                         _______ _______ _______ _____ _____    ______ ____
ROOT
ATOM      1  C   UNL     1     -45.738  26.164   4.374  0.00  0.00    +0.003 C 
ATOM      2  C   UNL     1     -46.226  25.064   3.625  0.00  0.00    +0.002 C 
ATOM      3  C   UNL     1     -44.696  26.966   3.854  0.00  0.00    +0.023 C 
ATOM      4  C   UNL     1     -46.295  26.459   5.639  0.00  0.00    +0.023 C 
ATOM      5  C   UNL     1     -45.669  24.769   2.358  0.00  0.00    +0.022 C 
ATOM      6  C   UNL     1     -47.268  24.261   4.144  0.00  0.00    +0.000 C 
ATOM      7  C   UNL     1     -44.225  28.051   4.607  0.00  0.00    +0.144 C 
ATOM      8  C   UNL     1     -45.802  27.551   6.369  0.00  0.00    +0.144 C 
ATOM      9  C   UNL     1     -44.157  26.659   2.598  0.00  0.00    +0.002 C 
ATOM     10  C   UNL     1     -47.327  25.653   6.138  0.00  0.00    +0.002 C 
ATOM     11  C   UNL     1     -44.637  25.574   1.860  0.00  0.00    +0.002 C 
ATOM     12  C   UNL     1     -47.807  24.569   5.400  0.00  0.00    +0.000 C 
ATOM     13  C   UNL     1     -46.162  23.677   1.630  0.00  0.00    +0.143 C 
ATOM     14  C   UNL     1     -47.739  23.176   3.390  0.00  0.00    +0.002 C 
ATOM     15  C   UNL     1     -44.774  28.341   5.856  0.00  0.00    +0.048 C 
ATOM     16  C   UNL     1     -47.190  22.888   2.142  0.00  0.00    +0.024 C 
ENDROOT
BRANCH   7  19
ATOM     17  O   UNL     1     -43.437  29.753   3.266  0.00  0.00    -0.126 OA
ATOM     18  O   UNL     1     -42.030  28.759   4.626  0.00  0.00    -0.126 OA
ATOM     19  N   UNL     1     -43.176  28.899   4.142  0.00  0.00    +0.058 N 
ENDBRANCH   7  19
BRANCH   8  22
ATOM     20  O   UNL     1     -45.829  27.359   8.666  0.00  0.00    -0.126 OA
ATOM     21  O   UNL     1     -47.245  28.743   7.716  0.00  0.00    -0.126 OA
ATOM     22  N   UNL     1     -46.319  27.902   7.651  0.00  0.00    +0.058 N 
ENDBRANCH   8  22
BRANCH  13  25
ATOM     23  O   UNL     1     -44.757  22.445   0.278  0.00  0.00    -0.126 OA
ATOM     24  O   UNL     1     -46.097  23.908  -0.664  0.00  0.00    -0.126 OA
ATOM     25  N   UNL     1     -45.645  23.325   0.347  0.00  0.00    +0.058 N 
ENDBRANCH  13  25
TORSDOF 3
ENDMDL
MODEL 3
REMARK VINA RESULT:      -6.4      2.590      6.750
REMARK  Name = 53229
REMARK  3 active torsions:
REMARK  status: ('A' for Active; 'I' for Inactive)
REMARK    1  A    between atoms: C_7  and  N_19
REMARK    2  A    between atoms: C_8  and  N_22
REMARK    3  A    between atoms: C_13  and  N_25
REMARK                            x       y       z     vdW  Elec       q    Type
REMARK                         _______ _______ _______ _____ _____    ______ ____
ROOT
ATOM      1  C   UNL     1     -33.929  25.707   3.182  0.00  0.00    +0.003 C 
ATOM      2  C   UNL     1     -34.514  24.563   3.782  0.00  0.00    +0.002 C 
ATOM      3  C   UNL     1     -33.747  25.754   1.781  0.00  0.00    +0.023 C 
ATOM      4  C   UNL     1     -33.529  26.799   3.986  0.00  0.00    +0.023 C 
ATOM      5  C   UNL     1     -34.915  23.470   2.979  0.00  0.00    +0.022 C 
ATOM      6  C   UNL     1     -34.697  24.516   5.184  0.00  0.00    +0.000 C 
ATOM      7  C   UNL     1     -33.167  26.892   1.203  0.00  0.00    +0.144 C 
ATOM      8  C   UNL     1     -32.952  27.924   3.378  0.00  0.00    +0.144 C 
ATOM      9  C   UNL     1     -34.150  24.663   1.001  0.00  0.00    +0.002 C 
ATOM     10  C   UNL     1     -33.717  26.734   5.373  0.00  0.00    +0.002 C 
ATOM     11  C   UNL     1     -34.727  23.535   1.592  0.00  0.00    +0.002 C 
ATOM     12  C   UNL     1     -34.293  25.608   5.964  0.00  0.00    +0.000 C 
ATOM     13  C   UNL     1     -35.492  22.347   3.587  0.00  0.00    +0.143 C 
ATOM     14  C   UNL     1     -35.277  23.377   5.762  0.00  0.00    +0.002 C 
ATOM     15  C   UNL     1     -32.773  27.969   1.996  0.00  0.00    +0.048 C 
ATOM     16  C   UNL     1     -35.672  22.302   4.969  0.00  0.00    +0.024 C 
ENDROOT
BRANCH   7  19
ATOM     17  O   UNL     1     -31.884  26.576  -0.687  0.00  0.00    -0.126 OA
ATOM     18  O   UNL     1     -33.849  27.529  -0.906  0.00  0.00    -0.126 OA
ATOM     19  N   UNL     1     -32.955  27.005  -0.203  0.00  0.00    +0.058 N 
ENDBRANCH   7  19
BRANCH   8  22
ATOM     20  O   UNL     1     -31.370  29.063   4.609  0.00  0.00    -0.126 OA
ATOM     21  O   UNL     1     -33.324  30.011   4.285  0.00  0.00    -0.126 OA
ATOM     22  N   UNL     1     -32.526  29.058   4.130  0.00  0.00    +0.058 N 
ENDBRANCH   8  22
BRANCH  13  25
ATOM     23  O   UNL     1     -37.039  21.245   2.278  0.00  0.00    -0.126 OA
ATOM     24  O   UNL     1     -35.157  20.221   2.759  0.00  0.00    -0.126 OA
ATOM     25  N   UNL     1     -35.918  21.211   2.835  0.00  0.00    +0.058 N 
ENDBRANCH  13  25
TORSDOF 3
ENDMDL
MODEL 4
REMARK VINA RESULT:      -6.3      1.907      5.702
REMARK  Name = 53229
REMARK  3 active torsions:
REMARK  status: ('A' for Active; 'I' for Inactive)
REMARK    1  A    between atoms: C_7  and  N_19
REMARK    2  A    between atoms: C_8  and  N_22
REMARK    3  A    between atoms: C_13  and  N_25
REMARK                            x       y       z     vdW  Elec       q    Type
REMARK                         _______ _______ _______ _____ _____    ______ ____
ROOT
ATOM      1  C   UNL     1     -35.100  26.568   3.260  0.00  0.00    +0.003 C 
ATOM      2  C   UNL     1     -35.794  25.333   3.286  0.00  0.00    +0.002 C 
ATOM      3  C   UNL     1     -33.988  26.771   4.111  0.00  0.00    +0.023 C 
ATOM      4  C   UNL     1     -35.520  27.596   2.385  0.00  0.00    +0.023 C 
ATOM      5  C   UNL     1     -35.374  24.304   4.161  0.00  0.00    +0.022 C 
ATOM      6  C   UNL     1     -36.906  25.129   2.436  0.00  0.00    +0.000 C 
ATOM      7  C   UNL     1     -33.312  28.000   4.074  0.00  0.00    +0.144 C 
ATOM      8  C   UNL     1     -34.823  28.814   2.372  0.00  0.00    +0.144 C 
ATOM      9  C   UNL     1     -33.587  25.742   4.971  0.00  0.00    +0.002 C 
ATOM     10  C   UNL     1     -36.624  27.377   1.550  0.00  0.00    +0.002 C 
ATOM     11  C   UNL     1     -34.271  24.524   4.996  0.00  0.00    +0.002 C 
ATOM     12  C   UNL     1     -37.307  26.159   1.575  0.00  0.00    +0.000 C 
ATOM     13  C   UNL     1     -36.071  23.087   4.174  0.00  0.00    +0.143 C 
ATOM     14  C   UNL     1     -37.582  23.900   2.473  0.00  0.00    +0.002 C 
ATOM     15  C   UNL     1     -33.728  29.013   3.210  0.00  0.00    +0.048 C 
ATOM     16  C   UNL     1     -37.166  22.888   3.335  0.00  0.00    +0.024 C 
ENDROOT
BRANCH   7  19
ATOM     17  O   UNL     1     -31.055  27.883   4.530  0.00  0.00    -0.126 OA
ATOM     18  O   UNL     1     -32.364  28.886   5.979  0.00  0.00    -0.126 OA
ATOM     19  N   UNL     1     -32.185  28.270   4.904  0.00  0.00    +0.058 N 
ENDBRANCH   7  19
BRANCH   8  22
ATOM     20  O   UNL     1     -34.664  29.970   0.383  0.00  0.00    -0.126 OA
ATOM     21  O   UNL     1     -36.039  30.721   1.921  0.00  0.00    -0.126 OA
ATOM     22  N   UNL     1     -35.194  29.891   1.514  0.00  0.00    +0.058 N 
ENDBRANCH   8  22
BRANCH  13  25
ATOM     23  O   UNL     1     -35.154  21.001   4.530  0.00  0.00    -0.126 OA
ATOM     24  O   UNL     1     -35.933  22.109   6.258  0.00  0.00    -0.126 OA
ATOM     25  N   UNL     1     -35.700  22.010   5.033  0.00  0.00    +0.058 N 
ENDBRANCH  13  25
TORSDOF 3
ENDMDL
MODEL 5
REMARK VINA RESULT:      -6.2      1.483      5.769
REMARK  Name = 53229
REMARK  3 active torsions:
REMARK  status: ('A' for Active; 'I' for Inactive)
REMARK    1  A    between atoms: C_7  and  N_19
REMARK    2  A    between atoms: C_8  and  N_22
REMARK    3  A    between atoms: C_13  and  N_25
REMARK                            x       y       z     vdW  Elec       q    Type
REMARK                         _______ _______ _______ _____ _____    ______ ____
ROOT
ATOM      1  C   UNL     1     -36.502  24.978   3.022  0.00  0.00    +0.003 C 
ATOM      2  C   UNL     1     -37.458  25.340   2.040  0.00  0.00    +0.002 C 
ATOM      3  C   UNL     1     -36.536  23.686   3.598  0.00  0.00    +0.023 C 
ATOM      4  C   UNL     1     -35.515  25.907   3.423  0.00  0.00    +0.023 C 
ATOM      5  C   UNL     1     -38.446  24.411   1.637  0.00  0.00    +0.022 C 
ATOM      6  C   UNL     1     -37.424  26.631   1.463  0.00  0.00    +0.000 C 
ATOM      7  C   UNL     1     -35.583  23.343   4.568  0.00  0.00    +0.144 C 
ATOM      8  C   UNL     1     -34.576  25.533   4.396  0.00  0.00    +0.144 C 
ATOM      9  C   UNL     1     -37.521  22.780   3.187  0.00  0.00    +0.002 C 
ATOM     10  C   UNL     1     -35.497  27.181   2.841  0.00  0.00    +0.002 C 
ATOM     11  C   UNL     1     -38.464  23.136   2.220  0.00  0.00    +0.002 C 
ATOM     12  C   UNL     1     -36.439  27.538   1.874  0.00  0.00    +0.000 C 
ATOM     13  C   UNL     1     -39.384  24.785   0.665  0.00  0.00    +0.143 C 
ATOM     14  C   UNL     1     -38.377  26.975   0.493  0.00  0.00    +0.002 C 
ATOM     15  C   UNL     1     -34.610  24.261   4.964  0.00  0.00    +0.048 C 
ATOM     16  C   UNL     1     -39.349  26.057   0.097  0.00  0.00    +0.024 C 
ENDROOT
BRANCH   7  19
ATOM     17  O   UNL     1     -35.936  21.959   6.378  0.00  0.00    -0.126 OA
ATOM     18  O   UNL     1     -35.167  21.076   4.522  0.00  0.00    -0.126 OA
ATOM     19  N   UNL     1     -35.562  22.059   5.189  0.00  0.00    +0.058 N 
ENDBRANCH   7  19
BRANCH   8  22
ATOM     20  O   UNL     1     -32.565  26.625   4.107  0.00  0.00    -0.126 OA
ATOM     21  O   UNL     1     -33.684  26.969   5.965  0.00  0.00    -0.126 OA
ATOM     22  N   UNL     1     -33.555  26.422   4.846  0.00  0.00    +0.058 N 
ENDBRANCH   8  22
BRANCH  13  25
ATOM     23  O   UNL     1     -41.464  23.811   0.879  0.00  0.00    -0.126 OA
ATOM     24  O   UNL     1     -40.208  23.231  -0.826  0.00  0.00    -0.126 OA
ATOM     25  N   UNL     1     -40.405  23.896   0.215  0.00  0.00    +0.058 N 
ENDBRANCH  13  25
TORSDOF 3
ENDMDL
MODEL 6
REMARK VINA RESULT:      -6.2      2.303      5.052
REMARK  Name = 53229
REMARK  3 active torsions:
REMARK  status: ('A' for Active; 'I' for Inactive)
REMARK    1  A    between atoms: C_7  and  N_19
REMARK    2  A    between atoms: C_8  and  N_22
REMARK    3  A    between atoms: C_13  and  N_25
REMARK                            x       y       z     vdW  Elec       q    Type
REMARK                         _______ _______ _______ _____ _____    ______ ____
ROOT
ATOM      1  C   UNL     1     -36.236  25.107   3.171  0.00  0.00    +0.003 C 
ATOM      2  C   UNL     1     -37.086  25.503   2.109  0.00  0.00    +0.002 C 
ATOM      3  C   UNL     1     -35.275  26.010   3.681  0.00  0.00    +0.023 C 
ATOM      4  C   UNL     1     -36.350  23.809   3.720  0.00  0.00    +0.023 C 
ATOM      5  C   UNL     1     -36.973  26.802   1.559  0.00  0.00    +0.022 C 
ATOM      6  C   UNL     1     -38.048  24.600   1.598  0.00  0.00    +0.000 C 
ATOM      7  C   UNL     1     -34.441  25.602   4.733  0.00  0.00    +0.144 C 
ATOM      8  C   UNL     1     -35.502  23.431   4.771  0.00  0.00    +0.144 C 
ATOM      9  C   UNL     1     -35.176  27.291   3.125  0.00  0.00    +0.002 C 
ATOM     10  C   UNL     1     -37.309  22.927   3.202  0.00  0.00    +0.002 C 
ATOM     11  C   UNL     1     -36.014  27.683   2.078  0.00  0.00    +0.002 C 
ATOM     12  C   UNL     1     -38.146  23.319   2.155  0.00  0.00    +0.000 C 
ATOM     13  C   UNL     1     -37.821  27.179   0.509  0.00  0.00    +0.143 C 
ATOM     14  C   UNL     1     -38.882  25.008   0.547  0.00  0.00    +0.002 C 
ATOM     15  C   UNL     1     -34.554  24.322   5.274  0.00  0.00    +0.048 C 
ATOM     16  C   UNL     1     -38.769  26.288   0.007  0.00  0.00    +0.024 C 
ENDROOT
BRANCH   7  19
ATOM     17  O   UNL     1     -32.503  26.841   4.570  0.00  0.00    -0.126 OA
ATOM     18  O   UNL     1     -33.565  26.809   6.491  0.00  0.00    -0.126 OA
ATOM     19  N   UNL     1     -33.451  26.463   5.293  0.00  0.00    +0.058 N 
ENDBRANCH   7  19
BRANCH   8  22
ATOM     20  O   UNL     1     -36.034  22.031   6.525  0.00  0.00    -0.126 OA
ATOM     21  O   UNL     1     -35.148  21.153   4.718  0.00  0.00    -0.126 OA
ATOM     22  N   UNL     1     -35.564  22.138   5.370  0.00  0.00    +0.058 N 
ENDBRANCH   8  22
BRANCH  13  25
ATOM     23  O   UNL     1     -36.966  28.657  -1.042  0.00  0.00    -0.126 OA
ATOM     24  O   UNL     1     -38.497  29.378   0.357  0.00  0.00    -0.126 OA
ATOM     25  N   UNL     1     -37.758  28.472  -0.090  0.00  0.00    +0.058 N 
ENDBRANCH  13  25
TORSDOF 3
ENDMDL
MODEL 7
REMARK VINA RESULT:      -6.1      2.597      3.964
REMARK  Name = 53229
REMARK  3 active torsions:
REMARK  status: ('A' for Active; 'I' for Inactive)
REMARK    1  A    between atoms: C_7  and  N_19
REMARK    2  A    between atoms: C_8  and  N_22
REMARK    3  A    between atoms: C_13  and  N_25
REMARK                            x       y       z     vdW  Elec       q    Type
REMARK                         _______ _______ _______ _____ _____    ______ ____
ROOT
ATOM      1  C   UNL     1     -34.690  24.119   2.714  0.00  0.00    +0.003 C 
ATOM      2  C   UNL     1     -34.333  24.982   3.779  0.00  0.00    +0.002 C 
ATOM      3  C   UNL     1     -34.210  24.372   1.408  0.00  0.00    +0.023 C 
ATOM      4  C   UNL     1     -35.527  23.005   2.958  0.00  0.00    +0.023 C 
ATOM      5  C   UNL     1     -33.495  26.096   3.536  0.00  0.00    +0.022 C 
ATOM      6  C   UNL     1     -34.813  24.730   5.086  0.00  0.00    +0.000 C 
ATOM      7  C   UNL     1     -34.573  23.507   0.365  0.00  0.00    +0.144 C 
ATOM      8  C   UNL     1     -35.872  22.160   1.893  0.00  0.00    +0.144 C 
ATOM      9  C   UNL     1     -33.382  25.479   1.186  0.00  0.00    +0.002 C 
ATOM     10  C   UNL     1     -35.993  22.771   4.259  0.00  0.00    +0.002 C 
ATOM     11  C   UNL     1     -33.029  26.331   2.235  0.00  0.00    +0.002 C 
ATOM     12  C   UNL     1     -35.641  23.622   5.308  0.00  0.00    +0.000 C 
ATOM     13  C   UNL     1     -33.151  26.941   4.600  0.00  0.00    +0.143 C 
ATOM     14  C   UNL     1     -34.450  25.594   6.129  0.00  0.00    +0.002 C 
ATOM     15  C   UNL     1     -35.398  22.409   0.607  0.00  0.00    +0.048 C 
ATOM     16  C   UNL     1     -33.624  26.691   5.887  0.00  0.00    +0.024 C 
ENDROOT
BRANCH   7  19
ATOM     17  O   UNL     1     -33.049  23.173  -1.334  0.00  0.00    -0.126 OA
ATOM     18  O   UNL     1     -34.819  24.404  -1.745  0.00  0.00    -0.126 OA
ATOM     19  N   UNL     1     -34.124  23.704  -0.974  0.00  0.00    +0.058 N 
ENDBRANCH   7  19
BRANCH   8  22
ATOM     20  O   UNL     1     -37.942  21.145   1.882  0.00  0.00    -0.126 OA
ATOM     21  O   UNL     1     -36.188  19.935   2.411  0.00  0.00    -0.126 OA
ATOM     22  N   UNL     1     -36.712  21.021   2.071  0.00  0.00    +0.058 N 
ENDBRANCH   8  22
BRANCH  13  25
ATOM     23  O   UNL     1     -31.069  27.921   4.438  0.00  0.00    -0.126 OA
ATOM     24  O   UNL     1     -32.844  29.201   4.259  0.00  0.00    -0.126 OA
ATOM     25  N   UNL     1     -32.311  28.081   4.423  0.00  0.00    +0.058 N 
ENDBRANCH  13  25
TORSDOF 3
ENDMDL
MODEL 8
REMARK VINA RESULT:      -6.1      3.455      7.835
REMARK  Name = 53229
REMARK  3 active torsions:
REMARK  status: ('A' for Active; 'I' for Inactive)
REMARK    1  A    between atoms: C_7  and  N_19
REMARK    2  A    between atoms: C_8  and  N_22
REMARK    3  A    between atoms: C_13  and  N_25
REMARK                            x       y       z     vdW  Elec       q    Type
REMARK                         _______ _______ _______ _____ _____    ______ ____
ROOT
ATOM      1  C   UNL     1     -37.519  22.313   2.162  0.00  0.00    +0.003 C 
ATOM      2  C   UNL     1     -37.636  21.204   1.287  0.00  0.00    +0.002 C 
ATOM      3  C   UNL     1     -38.495  23.337   2.138  0.00  0.00    +0.023 C 
ATOM      4  C   UNL     1     -36.428  22.394   3.057  0.00  0.00    +0.023 C 
ATOM      5  C   UNL     1     -38.727  21.123   0.390  0.00  0.00    +0.022 C 
ATOM      6  C   UNL     1     -36.661  20.179   1.310  0.00  0.00    +0.000 C 
ATOM      7  C   UNL     1     -38.364  24.427   3.011  0.00  0.00    +0.144 C 
ATOM      8  C   UNL     1     -36.327  23.497   3.918  0.00  0.00    +0.144 C 
ATOM      9  C   UNL     1     -39.568  23.240   1.245  0.00  0.00    +0.002 C 
ATOM     10  C   UNL     1     -35.472  21.369   3.066  0.00  0.00    +0.002 C 
ATOM     11  C   UNL     1     -39.684  22.147   0.381  0.00  0.00    +0.002 C 
ATOM     12  C   UNL     1     -35.588  20.277   2.204  0.00  0.00    +0.000 C 
ATOM     13  C   UNL     1     -38.829  20.020  -0.469  0.00  0.00    +0.143 C 
ATOM     14  C   UNL     1     -36.791  19.089   0.437  0.00  0.00    +0.002 C 
ATOM     15  C   UNL     1     -37.288  24.506   3.894  0.00  0.00    +0.048 C 
ATOM     16  C   UNL     1     -37.868  19.010  -0.445  0.00  0.00    +0.024 C 
ENDROOT
BRANCH   7  19
ATOM     17  O   UNL     1     -40.379  25.335   3.671  0.00  0.00    -0.126 OA
ATOM     18  O   UNL     1     -39.042  26.552   2.427  0.00  0.00    -0.126 OA
ATOM     19  N   UNL     1     -39.311  25.493   3.038  0.00  0.00    +0.058 N 
ENDBRANCH   7  19
BRANCH   8  22
ATOM     20  O   UNL     1     -35.375  23.149   5.989  0.00  0.00    -0.126 OA
ATOM     21  O   UNL     1     -34.221  24.252   4.481  0.00  0.00    -0.126 OA
ATOM     22  N   UNL     1     -35.252  23.640   4.844  0.00  0.00    +0.058 N 
ENDBRANCH   8  22
BRANCH  13  25
ATOM     23  O   UNL     1     -39.787  20.383  -2.535  0.00  0.00    -0.126 OA
ATOM     24  O   UNL     1     -40.927  19.250  -1.040  0.00  0.00    -0.126 OA
ATOM     25  N   UNL     1     -39.904  19.876  -1.397  0.00  0.00    +0.058 N 
ENDBRANCH  13  25
TORSDOF 3
ENDMDL
MODEL 9
REMARK VINA RESULT:      -6.0      8.618     11.375
REMARK  Name = 53229
REMARK  3 active torsions:
REMARK  status: ('A' for Active; 'I' for Inactive)
REMARK    1  A    between atoms: C_7  and  N_19
REMARK    2  A    between atoms: C_8  and  N_22
REMARK    3  A    between atoms: C_13  and  N_25
REMARK                            x       y       z     vdW  Elec       q    Type
REMARK                         _______ _______ _______ _____ _____    ______ ____
ROOT
ATOM      1  C   UNL     1     -45.373  25.917   3.713  0.00  0.00    +0.003 C 
ATOM      2  C   UNL     1     -46.410  25.497   4.583  0.00  0.00    +0.002 C 
ATOM      3  C   UNL     1     -44.544  27.004   4.076  0.00  0.00    +0.023 C 
ATOM      4  C   UNL     1     -45.169  25.250   2.483  0.00  0.00    +0.023 C 
ATOM      5  C   UNL     1     -46.615  26.164   5.813  0.00  0.00    +0.022 C 
ATOM      6  C   UNL     1     -47.240  24.410   4.220  0.00  0.00    +0.000 C 
ATOM      7  C   UNL     1     -43.522  27.408   3.205  0.00  0.00    +0.144 C 
ATOM      8  C   UNL     1     -44.138  25.678   1.633  0.00  0.00    +0.144 C 
ATOM      9  C   UNL     1     -44.762  27.652   5.298  0.00  0.00    +0.002 C 
ATOM     10  C   UNL     1     -46.001  24.176   2.141  0.00  0.00    +0.002 C 
ATOM     11  C   UNL     1     -45.784  27.238   6.156  0.00  0.00    +0.002 C 
ATOM     12  C   UNL     1     -47.022  23.762   2.998  0.00  0.00    +0.000 C 
ATOM     13  C   UNL     1     -47.645  25.736   6.663  0.00  0.00    +0.143 C 
ATOM     14  C   UNL     1     -48.262  24.006   5.092  0.00  0.00    +0.002 C 
ATOM     15  C   UNL     1     -43.322  26.749   1.992  0.00  0.00    +0.048 C 
ATOM     16  C   UNL     1     -48.461  24.664   6.304  0.00  0.00    +0.024 C 
ENDROOT
BRANCH   7  19
ATOM     17  O   UNL     1     -41.852  28.377   4.465  0.00  0.00    -0.126 OA
ATOM     18  O   UNL     1     -42.716  29.531   2.810  0.00  0.00    -0.126 OA
ATOM     19  N   UNL     1     -42.651  28.495   3.509  0.00  0.00    +0.058 N 
ENDBRANCH   7  19
BRANCH   8  22
ATOM     20  O   UNL     1     -43.138  24.041   0.354  0.00  0.00    -0.126 OA
ATOM     21  O   UNL     1     -44.402  25.528  -0.653  0.00  0.00    -0.126 OA
ATOM     22  N   UNL     1     -43.879  25.049   0.380  0.00  0.00    +0.058 N 
ENDBRANCH   8  22
BRANCH  13  25
ATOM     23  O   UNL     1     -47.314  25.941   8.936  0.00  0.00    -0.126 OA
ATOM     24  O   UNL     1     -48.716  27.317   7.955  0.00  0.00    -0.126 OA
ATOM     25  N   UNL     1     -47.905  26.365   7.917  0.00  0.00    +0.058 N 
ENDBRANCH  13  25
TORSDOF 3
ENDMDL
