MODEL 1
REMARK VINA RESULT:      -5.0      0.000      0.000
REMARK  Name = 5491917
REMARK  12 active torsions:
REMARK  status: ('A' for Active; 'I' for Inactive)
REMARK    1  A    between atoms: C_1  and  O_2
REMARK    2  A    between atoms: C_1  and  C_4
REMARK    3  A    between atoms: C_1  and  C_13
REMARK    4  A    between atoms: C_4  and  N_5
REMARK    5  A    between atoms: C_4  and  C_9
REMARK    6  A    between atoms: C_9  and  O_11
REMARK    7  A    between atoms: C_13  and  O_14
REMARK    8  A    between atoms: C_13  and  C_16
REMARK    9  A    between atoms: C_16  and  O_17
REMARK   10  A    between atoms: C_16  and  C_19
REMARK   11  A    between atoms: C_19  and  O_20
REMARK   12  A    between atoms: C_19  and  C_23
REMARK                            x       y       z     vdW  Elec       q    Type
REMARK                         _______ _______ _______ _____ _____    ______ ____
ROOT
ATOM      1  C   UNL     1     -36.288  25.470   4.881  0.00  0.00    +0.122 C 
ENDROOT
BRANCH   1   2
ATOM      2  O   UNL     1     -36.504  26.507   5.832  0.00  0.00    -0.384 OA
ATOM      3  H   UNL     1     -37.372  26.913   5.676  0.00  0.00    +0.210 HD
ENDBRANCH   1   2
BRANCH   1   4
ATOM      4  C   UNL     1     -35.139  24.524   5.335  0.00  0.00    -0.008 C 
BRANCH   4   5
ATOM      5  N   UNL     1     -33.903  24.989   4.687  0.00  0.00    +0.385 N 
ATOM      6  H   UNL     1     -34.046  25.928   4.314  0.00  0.00    -0.089 HD
ATOM      7  H   UNL     1     -33.658  24.354   3.927  0.00  0.00    -0.089 HD
ATOM      8  H   UNL     1     -33.146  25.006   5.371  0.00  0.00    -0.089 HD
ENDBRANCH   4   5
BRANCH   4   9
ATOM      9  C   UNL     1     -35.387  23.021   5.068  0.00  0.00    +0.098 C 
ATOM     10  C   UNL     1     -35.421  22.176   6.340  0.00  0.00    +0.030 C 
BRANCH   9  11
ATOM     11  O   UNL     1     -36.609  22.831   4.359  0.00  0.00    -0.356 OA
ATOM     12  C   UNL     1     -36.381  22.277   3.073  0.00  0.00    +0.174 C 
ENDBRANCH   9  11
ENDBRANCH   4   9
ENDBRANCH   1   4
BRANCH   1  13
ATOM     13  C   UNL     1     -36.048  26.117   3.497  0.00  0.00    +0.165 C 
BRANCH  13  14
ATOM     14  O   UNL     1     -35.650  27.473   3.679  0.00  0.00    -0.380 OA
ATOM     15  H   UNL     1     -36.275  27.915   4.276  0.00  0.00    +0.211 HD
ENDBRANCH  13  14
BRANCH  13  16
ATOM     16  C   UNL     1     -37.254  26.055   2.526  0.00  0.00    +0.174 C 
BRANCH  16  17
ATOM     17  O   UNL     1     -37.482  27.377   2.036  0.00  0.00    -0.379 OA
ATOM     18  H   UNL     1     -38.376  27.433   1.662  0.00  0.00    +0.211 HD
ENDBRANCH  16  17
BRANCH  16  19
ATOM     19  C   UNL     1     -38.556  25.496   3.120  0.00  0.00    +0.205 C 
BRANCH  19  20
ATOM     20  O   UNL     1     -39.472  26.540   3.401  0.00  0.00    -0.375 OA
ATOM     21  H   UNL     1     -38.986  27.328   3.690  0.00  0.00    +0.211 HD
ENDBRANCH  19  20
BRANCH  19  23
ATOM     22  O   UNL     1     -39.715  23.470   2.440  0.00  0.00    -0.286 OA
ATOM     23  C   UNL     1     -39.229  24.555   2.138  0.00  0.00    +0.239 C 
ENDBRANCH  19  23
ENDBRANCH  16  19
ENDBRANCH  13  16
ENDBRANCH   1  13
TORSDOF 12
ENDMDL
MODEL 2
REMARK VINA RESULT:      -4.9      2.931      4.790
REMARK  Name = 5491917
REMARK  12 active torsions:
REMARK  status: ('A' for Active; 'I' for Inactive)
REMARK    1  A    between atoms: C_1  and  O_2
REMARK    2  A    between atoms: C_1  and  C_4
REMARK    3  A    between atoms: C_1  and  C_13
REMARK    4  A    between atoms: C_4  and  N_5
REMARK    5  A    between atoms: C_4  and  C_9
REMARK    6  A    between atoms: C_9  and  O_11
REMARK    7  A    between atoms: C_13  and  O_14
REMARK    8  A    between atoms: C_13  and  C_16
REMARK    9  A    between atoms: C_16  and  O_17
REMARK   10  A    between atoms: C_16  and  C_19
REMARK   11  A    between atoms: C_19  and  O_20
REMARK   12  A    between atoms: C_19  and  C_23
REMARK                            x       y       z     vdW  Elec       q    Type
REMARK                         _______ _______ _______ _____ _____    ______ ____
ROOT
ATOM      1  C   UNL     1     -35.573  23.127   4.632  0.00  0.00    +0.122 C 
ENDROOT
BRANCH   1   2
ATOM      2  O   UNL     1     -36.094  22.146   5.524  0.00  0.00    -0.384 OA
ATOM      3  H   UNL     1     -35.676  21.289   5.342  0.00  0.00    +0.210 HD
ENDBRANCH   1   2
BRANCH   1   4
ATOM      4  C   UNL     1     -35.758  24.561   5.207  0.00  0.00    -0.008 C 
BRANCH   4   5
ATOM      5  N   UNL     1     -37.059  25.060   4.739  0.00  0.00    +0.385 N 
ATOM      6  H   UNL     1     -37.805  24.486   5.132  0.00  0.00    -0.089 HD
ATOM      7  H   UNL     1     -37.094  25.014   3.720  0.00  0.00    -0.089 HD
ATOM      8  H   UNL     1     -37.181  26.027   5.040  0.00  0.00    -0.089 HD
ENDBRANCH   4   5
BRANCH   4   9
ATOM      9  C   UNL     1     -34.617  25.550   4.872  0.00  0.00    +0.098 C 
ATOM     10  C   UNL     1     -33.998  26.205   6.105  0.00  0.00    +0.030 C 
BRANCH   9  11
ATOM     11  O   UNL     1     -33.587  24.898   4.133  0.00  0.00    -0.356 OA
ATOM     12  C   UNL     1     -33.309  25.582   2.920  0.00  0.00    +0.174 C 
ENDBRANCH   9  11
ENDBRANCH   4   9
ENDBRANCH   1   4
BRANCH   1  13
ATOM     13  C   UNL     1     -36.228  22.926   3.246  0.00  0.00    +0.165 C 
BRANCH  13  14
ATOM     14  O   UNL     1     -37.532  22.378   3.421  0.00  0.00    -0.380 OA
ATOM     15  H   UNL     1     -38.171  23.098   3.546  0.00  0.00    +0.211 HD
ENDBRANCH  13  14
BRANCH  13  16
ATOM     16  C   UNL     1     -35.421  22.043   2.262  0.00  0.00    +0.174 C 
BRANCH  16  17
ATOM     17  O   UNL     1     -36.029  22.163   0.975  0.00  0.00    -0.379 OA
ATOM     18  H   UNL     1     -35.529  21.637   0.330  0.00  0.00    +0.211 HD
ENDBRANCH  16  17
BRANCH  16  19
ATOM     19  C   UNL     1     -35.310  20.557   2.640  0.00  0.00    +0.205 C 
BRANCH  19  20
ATOM     20  O   UNL     1     -36.590  19.951   2.688  0.00  0.00    -0.375 OA
ATOM     21  H   UNL     1     -36.737  19.442   1.875  0.00  0.00    +0.211 HD
ENDBRANCH  19  20
BRANCH  19  23
ATOM     22  O   UNL     1     -33.590  20.303   0.941  0.00  0.00    -0.286 OA
ATOM     23  C   UNL     1     -34.490  19.804   1.609  0.00  0.00    +0.239 C 
ENDBRANCH  19  23
ENDBRANCH  16  19
ENDBRANCH  13  16
ENDBRANCH   1  13
TORSDOF 12
ENDMDL
MODEL 3
REMARK VINA RESULT:      -4.8      2.522      5.006
REMARK  Name = 5491917
REMARK  12 active torsions:
REMARK  status: ('A' for Active; 'I' for Inactive)
REMARK    1  A    between atoms: C_1  and  O_2
REMARK    2  A    between atoms: C_1  and  C_4
REMARK    3  A    between atoms: C_1  and  C_13
REMARK    4  A    between atoms: C_4  and  N_5
REMARK    5  A    between atoms: C_4  and  C_9
REMARK    6  A    between atoms: C_9  and  O_11
REMARK    7  A    between atoms: C_13  and  O_14
REMARK    8  A    between atoms: C_13  and  C_16
REMARK    9  A    between atoms: C_16  and  O_17
REMARK   10  A    between atoms: C_16  and  C_19
REMARK   11  A    between atoms: C_19  and  O_20
REMARK   12  A    between atoms: C_19  and  C_23
REMARK                            x       y       z     vdW  Elec       q    Type
REMARK                         _______ _______ _______ _____ _____    ______ ____
ROOT
ATOM      1  C   UNL     1     -35.886  23.322   4.253  0.00  0.00    +0.122 C 
ENDROOT
BRANCH   1   2
ATOM      2  O   UNL     1     -36.319  22.412   5.259  0.00  0.00    -0.384 OA
ATOM      3  H   UNL     1     -36.185  22.809   6.134  0.00  0.00    +0.210 HD
ENDBRANCH   1   2
BRANCH   1   4
ATOM      4  C   UNL     1     -36.185  24.793   4.664  0.00  0.00    -0.008 C 
BRANCH   4   5
ATOM      5  N   UNL     1     -37.612  25.041   4.411  0.00  0.00    +0.385 N 
ATOM      6  H   UNL     1     -37.776  25.086   3.405  0.00  0.00    -0.089 HD
ATOM      7  H   UNL     1     -37.885  25.925   4.841  0.00  0.00    -0.089 HD
ATOM      8  H   UNL     1     -38.165  24.283   4.812  0.00  0.00    -0.089 HD
ENDBRANCH   4   5
BRANCH   4   9
ATOM      9  C   UNL     1     -35.295  25.856   3.976  0.00  0.00    +0.098 C 
ATOM     10  C   UNL     1     -36.005  26.606   2.852  0.00  0.00    +0.030 C 
BRANCH   9  11
ATOM     11  O   UNL     1     -34.815  26.802   4.928  0.00  0.00    -0.356 OA
ATOM     12  C   UNL     1     -34.038  26.173   5.936  0.00  0.00    +0.174 C 
ENDBRANCH   9  11
ENDBRANCH   4   9
ENDBRANCH   1   4
BRANCH   1  13
ATOM     13  C   UNL     1     -36.531  22.910   2.909  0.00  0.00    +0.165 C 
BRANCH  13  14
ATOM     14  O   UNL     1     -37.789  22.294   3.166  0.00  0.00    -0.380 OA
ATOM     15  H   UNL     1     -37.722  21.340   2.999  0.00  0.00    +0.211 HD
ENDBRANCH  13  14
BRANCH  13  16
ATOM     16  C   UNL     1     -35.666  21.977   2.026  0.00  0.00    +0.174 C 
BRANCH  16  17
ATOM     17  O   UNL     1     -36.296  21.885   0.748  0.00  0.00    -0.379 OA
ATOM     18  H   UNL     1     -36.305  20.959   0.457  0.00  0.00    +0.211 HD
ENDBRANCH  16  17
BRANCH  16  19
ATOM     19  C   UNL     1     -35.429  20.565   2.584  0.00  0.00    +0.205 C 
BRANCH  19  20
ATOM     20  O   UNL     1     -36.640  19.831   2.630  0.00  0.00    -0.375 OA
ATOM     21  H   UNL     1     -36.445  18.894   2.788  0.00  0.00    +0.211 HD
ENDBRANCH  19  20
BRANCH  19  23
ATOM     22  O   UNL     1     -34.746  19.361   0.586  0.00  0.00    -0.286 OA
ATOM     23  C   UNL     1     -34.467  19.796   1.699  0.00  0.00    +0.239 C 
ENDBRANCH  19  23
ENDBRANCH  16  19
ENDBRANCH  13  16
ENDBRANCH   1  13
TORSDOF 12
ENDMDL
MODEL 4
REMARK VINA RESULT:      -4.7      2.061      4.197
REMARK  Name = 5491917
REMARK  12 active torsions:
REMARK  status: ('A' for Active; 'I' for Inactive)
REMARK    1  A    between atoms: C_1  and  O_2
REMARK    2  A    between atoms: C_1  and  C_4
REMARK    3  A    between atoms: C_1  and  C_13
REMARK    4  A    between atoms: C_4  and  N_5
REMARK    5  A    between atoms: C_4  and  C_9
REMARK    6  A    between atoms: C_9  and  O_11
REMARK    7  A    between atoms: C_13  and  O_14
REMARK    8  A    between atoms: C_13  and  C_16
REMARK    9  A    between atoms: C_16  and  O_17
REMARK   10  A    between atoms: C_16  and  C_19
REMARK   11  A    between atoms: C_19  and  O_20
REMARK   12  A    between atoms: C_19  and  C_23
REMARK                            x       y       z     vdW  Elec       q    Type
REMARK                         _______ _______ _______ _____ _____    ______ ____
ROOT
ATOM      1  C   UNL     1     -36.538  25.070   3.883  0.00  0.00    +0.122 C 
ENDROOT
BRANCH   1   2
ATOM      2  O   UNL     1     -37.875  24.746   4.251  0.00  0.00    -0.384 OA
ATOM      3  H   UNL     1     -38.463  25.481   4.013  0.00  0.00    +0.210 HD
ENDBRANCH   1   2
BRANCH   1   4
ATOM      4  C   UNL     1     -35.811  23.836   3.275  0.00  0.00    -0.008 C 
BRANCH   4   5
ATOM      5  N   UNL     1     -35.981  23.897   1.816  0.00  0.00    +0.385 N 
ATOM      6  H   UNL     1     -35.926  24.868   1.507  0.00  0.00    -0.089 HD
ATOM      7  H   UNL     1     -36.890  23.510   1.563  0.00  0.00    -0.089 HD
ATOM      8  H   UNL     1     -35.244  23.355   1.364  0.00  0.00    -0.089 HD
ENDBRANCH   4   5
BRANCH   4   9
ATOM      9  C   UNL     1     -36.262  22.469   3.841  0.00  0.00    +0.098 C 
ATOM     10  C   UNL     1     -35.441  21.293   3.315  0.00  0.00    +0.030 C 
BRANCH   9  11
ATOM     11  O   UNL     1     -36.202  22.470   5.265  0.00  0.00    -0.356 OA
ATOM     12  C   UNL     1     -35.106  21.700   5.737  0.00  0.00    +0.174 C 
ENDBRANCH   9  11
ENDBRANCH   4   9
ENDBRANCH   1   4
BRANCH   1  13
ATOM     13  C   UNL     1     -35.822  25.667   5.116  0.00  0.00    +0.165 C 
BRANCH  13  14
ATOM     14  O   UNL     1     -36.594  26.751   5.625  0.00  0.00    -0.380 OA
ATOM     15  H   UNL     1     -36.445  27.539   5.079  0.00  0.00    +0.211 HD
ENDBRANCH  13  14
BRANCH  13  16
ATOM     16  C   UNL     1     -34.368  26.139   4.865  0.00  0.00    +0.174 C 
BRANCH  16  17
ATOM     17  O   UNL     1     -33.877  26.696   6.085  0.00  0.00    -0.379 OA
ATOM     18  H   UNL     1     -34.570  26.652   6.762  0.00  0.00    +0.211 HD
ENDBRANCH  16  17
BRANCH  16  19
ATOM     19  C   UNL     1     -34.187  27.156   3.727  0.00  0.00    +0.205 C 
BRANCH  19  20
ATOM     20  O   UNL     1     -35.250  28.094   3.714  0.00  0.00    -0.375 OA
ATOM     21  H   UNL     1     -35.807  27.961   4.497  0.00  0.00    +0.211 HD
ENDBRANCH  19  20
BRANCH  19  23
ATOM     22  O   UNL     1     -32.793  28.951   4.590  0.00  0.00    -0.286 OA
ATOM     23  C   UNL     1     -32.898  27.936   3.909  0.00  0.00    +0.239 C 
ENDBRANCH  19  23
ENDBRANCH  16  19
ENDBRANCH  13  16
ENDBRANCH   1  13
TORSDOF 12
ENDMDL
MODEL 5
REMARK VINA RESULT:      -4.6      2.174      4.068
REMARK  Name = 5491917
REMARK  12 active torsions:
REMARK  status: ('A' for Active; 'I' for Inactive)
REMARK    1  A    between atoms: C_1  and  O_2
REMARK    2  A    between atoms: C_1  and  C_4
REMARK    3  A    between atoms: C_1  and  C_13
REMARK    4  A    between atoms: C_4  and  N_5
REMARK    5  A    between atoms: C_4  and  C_9
REMARK    6  A    between atoms: C_9  and  O_11
REMARK    7  A    between atoms: C_13  and  O_14
REMARK    8  A    between atoms: C_13  and  C_16
REMARK    9  A    between atoms: C_16  and  O_17
REMARK   10  A    between atoms: C_16  and  C_19
REMARK   11  A    between atoms: C_19  and  O_20
REMARK   12  A    between atoms: C_19  and  C_23
REMARK                            x       y       z     vdW  Elec       q    Type
REMARK                         _______ _______ _______ _____ _____    ______ ____
ROOT
ATOM      1  C   UNL     1     -36.752  24.691   4.043  0.00  0.00    +0.122 C 
ENDROOT
BRANCH   1   2
ATOM      2  O   UNL     1     -38.130  24.992   4.238  0.00  0.00    -0.384 OA
ATOM      3  H   UNL     1     -38.322  25.874   3.882  0.00  0.00    +0.210 HD
ENDBRANCH   1   2
BRANCH   1   4
ATOM      4  C   UNL     1     -36.516  23.154   4.000  0.00  0.00    -0.008 C 
BRANCH   4   5
ATOM      5  N   UNL     1     -36.189  22.718   5.365  0.00  0.00    +0.385 N 
ATOM      6  H   UNL     1     -35.423  22.044   5.334  0.00  0.00    -0.089 HD
ATOM      7  H   UNL     1     -37.009  22.283   5.789  0.00  0.00    -0.089 HD
ATOM      8  H   UNL     1     -35.908  23.526   5.922  0.00  0.00    -0.089 HD
ENDBRANCH   4   5
BRANCH   4   9
ATOM      9  C   UNL     1     -35.445  22.687   2.985  0.00  0.00    +0.098 C 
ATOM     10  C   UNL     1     -35.463  21.181   2.733  0.00  0.00    +0.030 C 
BRANCH   9  11
ATOM     11  O   UNL     1     -35.604  23.362   1.740  0.00  0.00    -0.356 OA
ATOM     12  C   UNL     1     -34.356  23.803   1.226  0.00  0.00    +0.174 C 
ENDBRANCH   9  11
ENDBRANCH   4   9
ENDBRANCH   1   4
BRANCH   1  13
ATOM     13  C   UNL     1     -35.933  25.413   5.139  0.00  0.00    +0.165 C 
BRANCH  13  14
ATOM     14  O   UNL     1     -36.696  26.503   5.648  0.00  0.00    -0.380 OA
ATOM     15  H   UNL     1     -36.482  27.309   5.151  0.00  0.00    +0.211 HD
ENDBRANCH  13  14
BRANCH  13  16
ATOM     16  C   UNL     1     -34.540  25.920   4.688  0.00  0.00    +0.174 C 
BRANCH  16  17
ATOM     17  O   UNL     1     -33.967  26.637   5.782  0.00  0.00    -0.379 OA
ATOM     18  H   UNL     1     -34.673  27.057   6.299  0.00  0.00    +0.211 HD
ENDBRANCH  16  17
BRANCH  16  19
ATOM     19  C   UNL     1     -34.529  26.805   3.432  0.00  0.00    +0.205 C 
BRANCH  19  20
ATOM     20  O   UNL     1     -35.168  28.045   3.683  0.00  0.00    -0.375 OA
ATOM     21  H   UNL     1     -35.070  28.622   2.909  0.00  0.00    +0.211 HD
ENDBRANCH  19  20
BRANCH  19  23
ATOM     22  O   UNL     1     -32.114  26.894   3.698  0.00  0.00    -0.286 OA
ATOM     23  C   UNL     1     -33.105  27.108   3.006  0.00  0.00    +0.239 C 
ENDBRANCH  19  23
ENDBRANCH  16  19
ENDBRANCH  13  16
ENDBRANCH   1  13
TORSDOF 12
ENDMDL
MODEL 6
REMARK VINA RESULT:      -4.6      2.143      3.642
REMARK  Name = 5491917
REMARK  12 active torsions:
REMARK  status: ('A' for Active; 'I' for Inactive)
REMARK    1  A    between atoms: C_1  and  O_2
REMARK    2  A    between atoms: C_1  and  C_4
REMARK    3  A    between atoms: C_1  and  C_13
REMARK    4  A    between atoms: C_4  and  N_5
REMARK    5  A    between atoms: C_4  and  C_9
REMARK    6  A    between atoms: C_9  and  O_11
REMARK    7  A    between atoms: C_13  and  O_14
REMARK    8  A    between atoms: C_13  and  C_16
REMARK    9  A    between atoms: C_16  and  O_17
REMARK   10  A    between atoms: C_16  and  C_19
REMARK   11  A    between atoms: C_19  and  O_20
REMARK   12  A    between atoms: C_19  and  C_23
REMARK                            x       y       z     vdW  Elec       q    Type
REMARK                         _______ _______ _______ _____ _____    ______ ____
ROOT
ATOM      1  C   UNL     1     -35.149  24.515   4.591  0.00  0.00    +0.122 C 
ENDROOT
BRANCH   1   2
ATOM      2  O   UNL     1     -34.110  23.603   4.933  0.00  0.00    -0.384 OA
ATOM      3  H   UNL     1     -34.491  22.835   5.389  0.00  0.00    +0.210 HD
ENDBRANCH   1   2
BRANCH   1   4
ATOM      4  C   UNL     1     -35.133  25.758   5.526  0.00  0.00    -0.008 C 
BRANCH   4   5
ATOM      5  N   UNL     1     -36.375  26.507   5.287  0.00  0.00    +0.385 N 
ATOM      6  H   UNL     1     -36.632  26.435   4.302  0.00  0.00    -0.089 HD
ATOM      7  H   UNL     1     -36.234  27.488   5.531  0.00  0.00    -0.089 HD
ATOM      8  H   UNL     1     -37.123  26.119   5.862  0.00  0.00    -0.089 HD
ENDBRANCH   4   5
BRANCH   4   9
ATOM      9  C   UNL     1     -33.888  26.666   5.383  0.00  0.00    +0.098 C 
ATOM     10  C   UNL     1     -33.090  26.811   6.677  0.00  0.00    +0.030 C 
BRANCH   9  11
ATOM     11  O   UNL     1     -33.022  26.175   4.363  0.00  0.00    -0.356 OA
ATOM     12  C   UNL     1     -32.712  27.186   3.416  0.00  0.00    +0.174 C 
ENDBRANCH   9  11
ENDBRANCH   4   9
ENDBRANCH   1   4
BRANCH   1  13
ATOM     13  C   UNL     1     -36.493  23.751   4.599  0.00  0.00    +0.165 C 
BRANCH  13  14
ATOM     14  O   UNL     1     -36.309  22.489   5.234  0.00  0.00    -0.380 OA
ATOM     15  H   UNL     1     -36.278  21.790   4.562  0.00  0.00    +0.211 HD
ENDBRANCH  13  14
BRANCH  13  16
ATOM     16  C   UNL     1     -37.136  23.541   3.205  0.00  0.00    +0.174 C 
BRANCH  16  17
ATOM     17  O   UNL     1     -36.108  23.704   2.226  0.00  0.00    -0.379 OA
ATOM     18  H   UNL     1     -35.814  22.832   1.918  0.00  0.00    +0.211 HD
ENDBRANCH  16  17
BRANCH  16  19
ATOM     19  C   UNL     1     -38.315  24.469   2.870  0.00  0.00    +0.205 C 
BRANCH  19  20
ATOM     20  O   UNL     1     -38.871  25.023   4.050  0.00  0.00    -0.375 OA
ATOM     21  H   UNL     1     -39.120  25.947   3.886  0.00  0.00    +0.211 HD
ENDBRANCH  19  20
BRANCH  19  23
ATOM     22  O   UNL     1     -37.161  26.555   2.396  0.00  0.00    -0.286 OA
ATOM     23  C   UNL     1     -37.854  25.624   2.000  0.00  0.00    +0.239 C 
ENDBRANCH  19  23
ENDBRANCH  16  19
ENDBRANCH  13  16
ENDBRANCH   1  13
TORSDOF 12
ENDMDL
MODEL 7
REMARK VINA RESULT:      -4.6      3.106      5.069
REMARK  Name = 5491917
REMARK  12 active torsions:
REMARK  status: ('A' for Active; 'I' for Inactive)
REMARK    1  A    between atoms: C_1  and  O_2
REMARK    2  A    between atoms: C_1  and  C_4
REMARK    3  A    between atoms: C_1  and  C_13
REMARK    4  A    between atoms: C_4  and  N_5
REMARK    5  A    between atoms: C_4  and  C_9
REMARK    6  A    between atoms: C_9  and  O_11
REMARK    7  A    between atoms: C_13  and  O_14
REMARK    8  A    between atoms: C_13  and  C_16
REMARK    9  A    between atoms: C_16  and  O_17
REMARK   10  A    between atoms: C_16  and  C_19
REMARK   11  A    between atoms: C_19  and  O_20
REMARK   12  A    between atoms: C_19  and  C_23
REMARK                            x       y       z     vdW  Elec       q    Type
REMARK                         _______ _______ _______ _____ _____    ______ ____
ROOT
ATOM      1  C   UNL     1     -36.465  21.172   1.942  0.00  0.00    +0.122 C 
ENDROOT
BRANCH   1   2
ATOM      2  O   UNL     1     -36.544  20.001   2.749  0.00  0.00    -0.384 OA
ATOM      3  H   UNL     1     -35.895  19.349   2.437  0.00  0.00    +0.210 HD
ENDBRANCH   1   2
BRANCH   1   4
ATOM      4  C   UNL     1     -34.994  21.472   1.535  0.00  0.00    -0.008 C 
BRANCH   4   5
ATOM      5  N   UNL     1     -35.015  22.623   0.619  0.00  0.00    +0.385 N 
ATOM      6  H   UNL     1     -34.427  23.367   0.994  0.00  0.00    -0.089 HD
ATOM      7  H   UNL     1     -35.972  22.962   0.521  0.00  0.00    -0.089 HD
ATOM      8  H   UNL     1     -34.660  22.337  -0.294  0.00  0.00    -0.089 HD
ENDBRANCH   4   5
BRANCH   4   9
ATOM      9  C   UNL     1     -34.229  20.275   0.922  0.00  0.00    +0.098 C 
ATOM     10  C   UNL     1     -32.957  20.682   0.182  0.00  0.00    +0.030 C 
BRANCH   9  11
ATOM     11  O   UNL     1     -33.890  19.326   1.930  0.00  0.00    -0.356 OA
ATOM     12  C   UNL     1     -32.953  18.373   1.450  0.00  0.00    +0.174 C 
ENDBRANCH   9  11
ENDBRANCH   4   9
ENDBRANCH   1   4
BRANCH   1  13
ATOM     13  C   UNL     1     -37.148  22.335   2.700  0.00  0.00    +0.165 C 
BRANCH  13  14
ATOM     14  O   UNL     1     -37.622  23.291   1.756  0.00  0.00    -0.380 OA
ATOM     15  H   UNL     1     -37.933  24.081   2.226  0.00  0.00    +0.211 HD
ENDBRANCH  13  14
BRANCH  13  16
ATOM     16  C   UNL     1     -36.259  23.041   3.754  0.00  0.00    +0.174 C 
BRANCH  16  17
ATOM     17  O   UNL     1     -36.359  22.299   4.970  0.00  0.00    -0.379 OA
ATOM     18  H   UNL     1     -36.843  21.474   4.807  0.00  0.00    +0.211 HD
ENDBRANCH  16  17
BRANCH  16  19
ATOM     19  C   UNL     1     -36.594  24.516   4.024  0.00  0.00    +0.205 C 
BRANCH  19  20
ATOM     20  O   UNL     1     -37.976  24.679   4.296  0.00  0.00    -0.375 OA
ATOM     21  H   UNL     1     -38.423  23.822   4.218  0.00  0.00    +0.211 HD
ENDBRANCH  19  20
BRANCH  19  23
ATOM     22  O   UNL     1     -34.826  24.491   5.692  0.00  0.00    -0.286 OA
ATOM     23  C   UNL     1     -35.832  25.023   5.234  0.00  0.00    +0.239 C 
ENDBRANCH  19  23
ENDBRANCH  16  19
ENDBRANCH  13  16
ENDBRANCH   1  13
TORSDOF 12
ENDMDL
MODEL 8
REMARK VINA RESULT:      -4.6      2.401      4.314
REMARK  Name = 5491917
REMARK  12 active torsions:
REMARK  status: ('A' for Active; 'I' for Inactive)
REMARK    1  A    between atoms: C_1  and  O_2
REMARK    2  A    between atoms: C_1  and  C_4
REMARK    3  A    between atoms: C_1  and  C_13
REMARK    4  A    between atoms: C_4  and  N_5
REMARK    5  A    between atoms: C_4  and  C_9
REMARK    6  A    between atoms: C_9  and  O_11
REMARK    7  A    between atoms: C_13  and  O_14
REMARK    8  A    between atoms: C_13  and  C_16
REMARK    9  A    between atoms: C_16  and  O_17
REMARK   10  A    between atoms: C_16  and  C_19
REMARK   11  A    between atoms: C_19  and  O_20
REMARK   12  A    between atoms: C_19  and  C_23
REMARK                            x       y       z     vdW  Elec       q    Type
REMARK                         _______ _______ _______ _____ _____    ______ ____
ROOT
ATOM      1  C   UNL     1     -36.800  24.538   3.597  0.00  0.00    +0.122 C 
ENDROOT
BRANCH   1   2
ATOM      2  O   UNL     1     -38.076  24.692   4.212  0.00  0.00    -0.384 OA
ATOM      3  H   UNL     1     -38.764  24.350   3.619  0.00  0.00    +0.210 HD
ENDBRANCH   1   2
BRANCH   1   4
ATOM      4  C   UNL     1     -36.804  23.350   2.592  0.00  0.00    -0.008 C 
BRANCH   4   5
ATOM      5  N   UNL     1     -37.775  22.360   3.081  0.00  0.00    +0.385 N 
ATOM      6  H   UNL     1     -38.710  22.768   3.077  0.00  0.00    -0.089 HD
ATOM      7  H   UNL     1     -37.528  22.084   4.032  0.00  0.00    -0.089 HD
ATOM      8  H   UNL     1     -37.759  21.540   2.475  0.00  0.00    -0.089 HD
ENDBRANCH   4   5
BRANCH   4   9
ATOM      9  C   UNL     1     -35.420  22.708   2.335  0.00  0.00    +0.098 C 
ATOM     10  C   UNL     1     -35.417  21.189   2.491  0.00  0.00    +0.030 C 
BRANCH   9  11
ATOM     11  O   UNL     1     -34.949  23.036   1.031  0.00  0.00    -0.356 OA
ATOM     12  C   UNL     1     -34.107  24.180   1.057  0.00  0.00    +0.174 C 
ENDBRANCH   9  11
ENDBRANCH   4   9
ENDBRANCH   1   4
BRANCH   1  13
ATOM     13  C   UNL     1     -35.734  24.405   4.709  0.00  0.00    +0.165 C 
BRANCH  13  14
ATOM     14  O   UNL     1     -36.204  23.497   5.701  0.00  0.00    -0.380 OA
ATOM     15  H   UNL     1     -37.171  23.563   5.767  0.00  0.00    +0.211 HD
ENDBRANCH  13  14
BRANCH  13  16
ATOM     16  C   UNL     1     -35.317  25.738   5.380  0.00  0.00    +0.174 C 
BRANCH  16  17
ATOM     17  O   UNL     1     -36.416  26.643   5.260  0.00  0.00    -0.379 OA
ATOM     18  H   UNL     1     -36.144  27.523   5.566  0.00  0.00    +0.211 HD
ENDBRANCH  16  17
BRANCH  16  19
ATOM     19  C   UNL     1     -34.047  26.396   4.820  0.00  0.00    +0.205 C 
BRANCH  19  20
ATOM     20  O   UNL     1     -33.117  25.415   4.393  0.00  0.00    -0.375 OA
ATOM     21  H   UNL     1     -32.784  25.647   3.511  0.00  0.00    +0.211 HD
ENDBRANCH  19  20
BRANCH  19  23
ATOM     22  O   UNL     1     -34.662  28.451   3.678  0.00  0.00    -0.286 OA
ATOM     23  C   UNL     1     -34.379  27.259   3.617  0.00  0.00    +0.239 C 
ENDBRANCH  19  23
ENDBRANCH  16  19
ENDBRANCH  13  16
ENDBRANCH   1  13
TORSDOF 12
ENDMDL
MODEL 9
REMARK VINA RESULT:      -4.6      1.811      3.351
REMARK  Name = 5491917
REMARK  12 active torsions:
REMARK  status: ('A' for Active; 'I' for Inactive)
REMARK    1  A    between atoms: C_1  and  O_2
REMARK    2  A    between atoms: C_1  and  C_4
REMARK    3  A    between atoms: C_1  and  C_13
REMARK    4  A    between atoms: C_4  and  N_5
REMARK    5  A    between atoms: C_4  and  C_9
REMARK    6  A    between atoms: C_9  and  O_11
REMARK    7  A    between atoms: C_13  and  O_14
REMARK    8  A    between atoms: C_13  and  C_16
REMARK    9  A    between atoms: C_16  and  O_17
REMARK   10  A    between atoms: C_16  and  C_19
REMARK   11  A    between atoms: C_19  and  O_20
REMARK   12  A    between atoms: C_19  and  C_23
REMARK                            x       y       z     vdW  Elec       q    Type
REMARK                         _______ _______ _______ _____ _____    ______ ____
ROOT
ATOM      1  C   UNL     1     -37.047  24.929   3.866  0.00  0.00    +0.122 C 
ENDROOT
BRANCH   1   2
ATOM      2  O   UNL     1     -38.438  24.682   4.050  0.00  0.00    -0.384 OA
ATOM      3  H   UNL     1     -38.950  25.260   3.462  0.00  0.00    +0.210 HD
ENDBRANCH   1   2
BRANCH   1   4
ATOM      4  C   UNL     1     -36.267  24.756   5.201  0.00  0.00    -0.008 C 
BRANCH   4   5
ATOM      5  N   UNL     1     -35.707  26.068   5.559  0.00  0.00    +0.385 N 
ATOM      6  H   UNL     1     -36.083  26.781   4.933  0.00  0.00    -0.089 HD
ATOM      7  H   UNL     1     -34.691  26.039   5.471  0.00  0.00    -0.089 HD
ATOM      8  H   UNL     1     -35.959  26.294   6.521  0.00  0.00    -0.089 HD
ENDBRANCH   4   5
BRANCH   4   9
ATOM      9  C   UNL     1     -35.174  23.661   5.180  0.00  0.00    +0.098 C 
ATOM     10  C   UNL     1     -35.412  22.546   6.197  0.00  0.00    +0.030 C 
BRANCH   9  11
ATOM     11  O   UNL     1     -35.067  23.082   3.882  0.00  0.00    -0.356 OA
ATOM     12  C   UNL     1     -35.435  21.711   3.894  0.00  0.00    +0.174 C 
ENDBRANCH   9  11
ENDBRANCH   4   9
ENDBRANCH   1   4
BRANCH   1  13
ATOM     13  C   UNL     1     -36.880  26.328   3.227  0.00  0.00    +0.165 C 
BRANCH  13  14
ATOM     14  O   UNL     1     -38.126  26.740   2.674  0.00  0.00    -0.380 OA
ATOM     15  H   UNL     1     -38.138  27.707   2.588  0.00  0.00    +0.211 HD
ENDBRANCH  13  14
BRANCH  13  16
ATOM     16  C   UNL     1     -35.774  26.426   2.146  0.00  0.00    +0.174 C 
BRANCH  16  17
ATOM     17  O   UNL     1     -35.244  25.114   1.950  0.00  0.00    -0.379 OA
ATOM     18  H   UNL     1     -35.519  24.781   1.081  0.00  0.00    +0.211 HD
ENDBRANCH  16  17
BRANCH  16  19
ATOM     19  C   UNL     1     -34.628  27.402   2.454  0.00  0.00    +0.205 C 
BRANCH  19  20
ATOM     20  O   UNL     1     -34.945  28.217   3.569  0.00  0.00    -0.375 OA
ATOM     21  H   UNL     1     -34.262  28.113   4.250  0.00  0.00    +0.211 HD
ENDBRANCH  19  20
BRANCH  19  23
ATOM     22  O   UNL     1     -33.126  26.138   3.888  0.00  0.00    -0.286 OA
ATOM     23  C   UNL     1     -33.359  26.643   2.794  0.00  0.00    +0.239 C 
ENDBRANCH  19  23
ENDBRANCH  16  19
ENDBRANCH  13  16
ENDBRANCH   1  13
TORSDOF 12
ENDMDL
