MODEL 1
REMARK VINA RESULT:      -6.4      0.000      0.000
REMARK  Name = 5747969
REMARK  5 active torsions:
REMARK  status: ('A' for Active; 'I' for Inactive)
REMARK    1  A    between atoms: C_1  and  C_15
REMARK    2  A    between atoms: C_3  and  N_9
REMARK    3  A    between atoms: C_5  and  O_10
REMARK    4  A    between atoms: C_6  and  O_12
REMARK    5  A    between atoms: C_15  and  C_16
REMARK                            x       y       z     vdW  Elec       q    Type
REMARK                         _______ _______ _______ _____ _____    ______ ____
ROOT
ATOM      1  C   UNL     1     -35.478  21.082   2.681  0.00  0.00    +0.044 C 
ATOM      2  C   UNL     1     -36.211  22.209   2.394  0.00  0.00    +0.031 C 
ATOM      3  C   UNL     1     -36.464  23.121   3.419  0.00  0.00    +0.179 C 
ATOM      4  C   UNL     1     -34.982  20.814   3.936  0.00  0.00    +0.043 C 
ATOM      5  C   UNL     1     -35.975  22.879   4.703  0.00  0.00    +0.190 C 
ATOM      6  C   UNL     1     -35.235  21.725   4.961  0.00  0.00    +0.169 C 
ENDROOT
BRANCH   3   9
ATOM      7  O   UNL     1     -38.236  24.538   3.831  0.00  0.00    -0.126 OA
ATOM      8  O   UNL     1     -36.850  25.042   2.204  0.00  0.00    -0.126 OA
ATOM      9  N   UNL     1     -37.220  24.292   3.137  0.00  0.00    +0.061 N 
ENDBRANCH   3   9
BRANCH   5  10
ATOM     10  O   UNL     1     -36.216  23.763   5.715  0.00  0.00    -0.502 OA
ATOM     11  H   UNL     1     -36.612  24.591   5.529  0.00  0.00    +0.292 HD
ENDBRANCH   5  10
BRANCH   6  12
ATOM     12  O   UNL     1     -34.751  21.475   6.211  0.00  0.00    -0.503 OA
ATOM     13  H   UNL     1     -34.534  22.187   6.780  0.00  0.00    +0.292 HD
ENDBRANCH   6  12
BRANCH   1  15
ATOM     14  O   UNL     1     -36.185  19.554   1.057  0.00  0.00    -0.287 OA
ATOM     15  C   UNL     1     -35.207  20.107   1.584  0.00  0.00    +0.196 C 
BRANCH  15  16
ATOM     16  C   UNL     1     -33.860  19.798   1.130  0.00  0.00    +0.039 C 
ATOM     17  C   UNL     1     -33.264  18.589   1.489  0.00  0.00    +0.003 C 
ATOM     18  C   UNL     1     -33.165  20.710   0.337  0.00  0.00    +0.003 C 
ATOM     19  C   UNL     1     -31.973  18.291   1.055  0.00  0.00    +0.000 C 
ATOM     20  C   UNL     1     -31.873  20.412  -0.098  0.00  0.00    +0.000 C 
ATOM     21  C   UNL     1     -31.276  19.204   0.261  0.00  0.00    +0.000 C 
ENDBRANCH  15  16
ENDBRANCH   1  15
TORSDOF 5
ENDMDL
MODEL 2
REMARK VINA RESULT:      -6.4      0.019      1.109
REMARK  Name = 5747969
REMARK  5 active torsions:
REMARK  status: ('A' for Active; 'I' for Inactive)
REMARK    1  A    between atoms: C_1  and  C_15
REMARK    2  A    between atoms: C_3  and  N_9
REMARK    3  A    between atoms: C_5  and  O_10
REMARK    4  A    between atoms: C_6  and  O_12
REMARK    5  A    between atoms: C_15  and  C_16
REMARK                            x       y       z     vdW  Elec       q    Type
REMARK                         _______ _______ _______ _____ _____    ______ ____
ROOT
ATOM      1  C   UNL     1     -35.477  21.082   2.675  0.00  0.00    +0.044 C 
ATOM      2  C   UNL     1     -36.207  22.211   2.389  0.00  0.00    +0.031 C 
ATOM      3  C   UNL     1     -36.461  23.120   3.416  0.00  0.00    +0.179 C 
ATOM      4  C   UNL     1     -34.984  20.809   3.930  0.00  0.00    +0.043 C 
ATOM      5  C   UNL     1     -35.975  22.874   4.701  0.00  0.00    +0.190 C 
ATOM      6  C   UNL     1     -35.237  21.718   4.957  0.00  0.00    +0.169 C 
ENDROOT
BRANCH   3   9
ATOM      7  O   UNL     1     -38.258  24.515   3.796  0.00  0.00    -0.126 OA
ATOM      8  O   UNL     1     -36.815  25.070   2.238  0.00  0.00    -0.126 OA
ATOM      9  N   UNL     1     -37.215  24.293   3.136  0.00  0.00    +0.061 N 
ENDBRANCH   3   9
BRANCH   5  10
ATOM     10  O   UNL     1     -36.216  23.756   5.714  0.00  0.00    -0.502 OA
ATOM     11  H   UNL     1     -36.571  23.451   6.526  0.00  0.00    +0.292 HD
ENDBRANCH   5  10
BRANCH   6  12
ATOM     12  O   UNL     1     -34.756  21.464   6.207  0.00  0.00    -0.503 OA
ATOM     13  H   UNL     1     -35.322  21.109   6.863  0.00  0.00    +0.292 HD
ENDBRANCH   6  12
BRANCH   1  15
ATOM     14  O   UNL     1     -36.183  19.562   1.044  0.00  0.00    -0.287 OA
ATOM     15  C   UNL     1     -35.205  20.109   1.575  0.00  0.00    +0.196 C 
BRANCH  15  16
ATOM     16  C   UNL     1     -33.858  19.797   1.125  0.00  0.00    +0.039 C 
ATOM     17  C   UNL     1     -33.155  20.712   0.342  0.00  0.00    +0.003 C 
ATOM     18  C   UNL     1     -33.269  18.583   1.476  0.00  0.00    +0.003 C 
ATOM     19  C   UNL     1     -31.863  20.414  -0.090  0.00  0.00    +0.000 C 
ATOM     20  C   UNL     1     -31.976  18.285   1.045  0.00  0.00    +0.000 C 
ATOM     21  C   UNL     1     -31.273  19.200   0.261  0.00  0.00    +0.000 C 
ENDBRANCH  15  16
ENDBRANCH   1  15
TORSDOF 5
ENDMDL
MODEL 3
REMARK VINA RESULT:      -6.3      1.198      2.582
REMARK  Name = 5747969
REMARK  5 active torsions:
REMARK  status: ('A' for Active; 'I' for Inactive)
REMARK    1  A    between atoms: C_1  and  C_15
REMARK    2  A    between atoms: C_3  and  N_9
REMARK    3  A    between atoms: C_5  and  O_10
REMARK    4  A    between atoms: C_6  and  O_12
REMARK    5  A    between atoms: C_15  and  C_16
REMARK                            x       y       z     vdW  Elec       q    Type
REMARK                         _______ _______ _______ _____ _____    ______ ____
ROOT
ATOM      1  C   UNL     1     -36.172  21.502   2.265  0.00  0.00    +0.044 C 
ATOM      2  C   UNL     1     -35.655  21.679   3.527  0.00  0.00    +0.031 C 
ATOM      3  C   UNL     1     -36.073  22.783   4.270  0.00  0.00    +0.179 C 
ATOM      4  C   UNL     1     -37.085  22.364   1.704  0.00  0.00    +0.043 C 
ATOM      5  C   UNL     1     -36.998  23.677   3.732  0.00  0.00    +0.190 C 
ATOM      6  C   UNL     1     -37.503  23.468   2.448  0.00  0.00    +0.169 C 
ENDROOT
BRANCH   3   9
ATOM      7  O   UNL     1     -35.849  22.163   6.481  0.00  0.00    -0.126 OA
ATOM      8  O   UNL     1     -34.799  23.963   5.787  0.00  0.00    -0.126 OA
ATOM      9  N   UNL     1     -35.548  22.980   5.577  0.00  0.00    +0.061 N 
ENDBRANCH   3   9
BRANCH   5  10
ATOM     10  O   UNL     1     -37.415  24.760   4.449  0.00  0.00    -0.502 OA
ATOM     11  H   UNL     1     -36.857  25.508   4.536  0.00  0.00    +0.292 HD
ENDBRANCH   5  10
BRANCH   6  12
ATOM     12  O   UNL     1     -38.407  24.333   1.908  0.00  0.00    -0.503 OA
ATOM     13  H   UNL     1     -38.761  25.027   2.428  0.00  0.00    +0.292 HD
ENDBRANCH   6  12
BRANCH   1  15
ATOM     14  O   UNL     1     -36.587  19.487   1.152  0.00  0.00    -0.287 OA
ATOM     15  C   UNL     1     -35.724  20.320   1.469  0.00  0.00    +0.196 C 
BRANCH  15  16
ATOM     16  C   UNL     1     -34.339  20.128   1.069  0.00  0.00    +0.039 C 
ATOM     17  C   UNL     1     -33.654  18.977   1.457  0.00  0.00    +0.003 C 
ATOM     18  C   UNL     1     -33.695  21.096   0.299  0.00  0.00    +0.003 C 
ATOM     19  C   UNL     1     -32.327  18.792   1.074  0.00  0.00    +0.000 C 
ATOM     20  C   UNL     1     -32.367  20.912  -0.085  0.00  0.00    +0.000 C 
ATOM     21  C   UNL     1     -31.682  19.760   0.303  0.00  0.00    +0.000 C 
ENDBRANCH  15  16
ENDBRANCH   1  15
TORSDOF 5
ENDMDL
MODEL 4
REMARK VINA RESULT:      -6.2      3.509      6.142
REMARK  Name = 5747969
REMARK  5 active torsions:
REMARK  status: ('A' for Active; 'I' for Inactive)
REMARK    1  A    between atoms: C_1  and  C_15
REMARK    2  A    between atoms: C_3  and  N_9
REMARK    3  A    between atoms: C_5  and  O_10
REMARK    4  A    between atoms: C_6  and  O_12
REMARK    5  A    between atoms: C_15  and  C_16
REMARK                            x       y       z     vdW  Elec       q    Type
REMARK                         _______ _______ _______ _____ _____    ______ ____
ROOT
ATOM      1  C   UNL     1     -35.316  24.191   4.803  0.00  0.00    +0.044 C 
ATOM      2  C   UNL     1     -35.305  24.054   3.435  0.00  0.00    +0.031 C 
ATOM      3  C   UNL     1     -35.302  22.770   2.892  0.00  0.00    +0.179 C 
ATOM      4  C   UNL     1     -35.326  23.115   5.660  0.00  0.00    +0.043 C 
ATOM      5  C   UNL     1     -35.312  21.657   3.733  0.00  0.00    +0.190 C 
ATOM      6  C   UNL     1     -35.323  21.830   5.118  0.00  0.00    +0.169 C 
ENDROOT
BRANCH   3   9
ATOM      7  O   UNL     1     -36.237  23.090   0.808  0.00  0.00    -0.126 OA
ATOM      8  O   UNL     1     -34.335  22.003   0.944  0.00  0.00    -0.126 OA
ATOM      9  N   UNL     1     -35.291  22.613   1.478  0.00  0.00    +0.061 N 
ENDBRANCH   3   9
BRANCH   5  10
ATOM     10  O   UNL     1     -35.309  20.395   3.214  0.00  0.00    -0.502 OA
ATOM     11  H   UNL     1     -34.538  20.061   2.800  0.00  0.00    +0.292 HD
ENDBRANCH   5  10
BRANCH   6  12
ATOM     12  O   UNL     1     -35.332  20.753   5.952  0.00  0.00    -0.503 OA
ATOM     13  H   UNL     1     -34.949  20.817   6.804  0.00  0.00    +0.292 HD
ENDBRANCH   6  12
BRANCH   1  15
ATOM     14  O   UNL     1     -36.380  25.970   5.886  0.00  0.00    -0.287 OA
ATOM     15  C   UNL     1     -35.320  25.567   5.384  0.00  0.00    +0.196 C 
BRANCH  15  16
ATOM     16  C   UNL     1     -34.142  26.420   5.375  0.00  0.00    +0.039 C 
ATOM     17  C   UNL     1     -33.723  27.017   4.186  0.00  0.00    +0.003 C 
ATOM     18  C   UNL     1     -33.432  26.643   6.554  0.00  0.00    +0.003 C 
ATOM     19  C   UNL     1     -32.594  27.835   4.175  0.00  0.00    +0.000 C 
ATOM     20  C   UNL     1     -32.303  27.462   6.544  0.00  0.00    +0.000 C 
ATOM     21  C   UNL     1     -31.884  28.057   5.355  0.00  0.00    +0.000 C 
ENDBRANCH  15  16
ENDBRANCH   1  15
TORSDOF 5
ENDMDL
MODEL 5
REMARK VINA RESULT:      -6.0      1.833      2.036
REMARK  Name = 5747969
REMARK  5 active torsions:
REMARK  status: ('A' for Active; 'I' for Inactive)
REMARK    1  A    between atoms: C_1  and  C_15
REMARK    2  A    between atoms: C_3  and  N_9
REMARK    3  A    between atoms: C_5  and  O_10
REMARK    4  A    between atoms: C_6  and  O_12
REMARK    5  A    between atoms: C_15  and  C_16
REMARK                            x       y       z     vdW  Elec       q    Type
REMARK                         _______ _______ _______ _____ _____    ______ ____
ROOT
ATOM      1  C   UNL     1     -35.173  22.451   2.544  0.00  0.00    +0.044 C 
ATOM      2  C   UNL     1     -34.703  23.740   2.447  0.00  0.00    +0.031 C 
ATOM      3  C   UNL     1     -34.737  24.549   3.582  0.00  0.00    +0.179 C 
ATOM      4  C   UNL     1     -35.674  21.925   3.711  0.00  0.00    +0.043 C 
ATOM      5  C   UNL     1     -35.239  24.047   4.783  0.00  0.00    +0.190 C 
ATOM      6  C   UNL     1     -35.708  22.734   4.847  0.00  0.00    +0.169 C 
ENDROOT
BRANCH   3   9
ATOM      7  O   UNL     1     -33.213  26.193   4.125  0.00  0.00    -0.126 OA
ATOM      8  O   UNL     1     -34.885  26.713   2.800  0.00  0.00    -0.126 OA
ATOM      9  N   UNL     1     -34.255  25.885   3.498  0.00  0.00    +0.061 N 
ENDBRANCH   3   9
BRANCH   5  10
ATOM     10  O   UNL     1     -35.278  24.829   5.900  0.00  0.00    -0.502 OA
ATOM     11  H   UNL     1     -34.752  24.611   6.644  0.00  0.00    +0.292 HD
ENDBRANCH   5  10
BRANCH   6  12
ATOM     12  O   UNL     1     -36.202  22.229   6.012  0.00  0.00    -0.503 OA
ATOM     13  H   UNL     1     -35.619  22.003   6.709  0.00  0.00    +0.292 HD
ENDBRANCH   6  12
BRANCH   1  15
ATOM     14  O   UNL     1     -36.094  21.659   0.545  0.00  0.00    -0.287 OA
ATOM     15  C   UNL     1     -35.135  21.584   1.328  0.00  0.00    +0.196 C 
BRANCH  15  16
ATOM     16  C   UNL     1     -34.032  20.678   1.050  0.00  0.00    +0.039 C 
ATOM     17  C   UNL     1     -34.014  19.405   1.621  0.00  0.00    +0.003 C 
ATOM     18  C   UNL     1     -32.992  21.081   0.214  0.00  0.00    +0.003 C 
ATOM     19  C   UNL     1     -32.957  18.536   1.355  0.00  0.00    +0.000 C 
ATOM     20  C   UNL     1     -31.934  20.212  -0.052  0.00  0.00    +0.000 C 
ATOM     21  C   UNL     1     -31.916  18.939   0.519  0.00  0.00    +0.000 C 
ENDBRANCH  15  16
ENDBRANCH   1  15
TORSDOF 5
ENDMDL
MODEL 6
REMARK VINA RESULT:      -6.0      1.927      3.107
REMARK  Name = 5747969
REMARK  5 active torsions:
REMARK  status: ('A' for Active; 'I' for Inactive)
REMARK    1  A    between atoms: C_1  and  C_15
REMARK    2  A    between atoms: C_3  and  N_9
REMARK    3  A    between atoms: C_5  and  O_10
REMARK    4  A    between atoms: C_6  and  O_12
REMARK    5  A    between atoms: C_15  and  C_16
REMARK                            x       y       z     vdW  Elec       q    Type
REMARK                         _______ _______ _______ _____ _____    ______ ____
ROOT
ATOM      1  C   UNL     1     -36.379  22.726   2.824  0.00  0.00    +0.044 C 
ATOM      2  C   UNL     1     -35.249  23.297   3.361  0.00  0.00    +0.031 C 
ATOM      3  C   UNL     1     -35.380  24.477   4.092  0.00  0.00    +0.179 C 
ATOM      4  C   UNL     1     -37.634  23.268   2.978  0.00  0.00    +0.043 C 
ATOM      5  C   UNL     1     -36.638  25.053   4.267  0.00  0.00    +0.190 C 
ATOM      6  C   UNL     1     -37.765  24.448   3.709  0.00  0.00    +0.169 C 
ENDROOT
BRANCH   3   9
ATOM      7  O   UNL     1     -34.252  25.455   5.850  0.00  0.00    -0.126 OA
ATOM      8  O   UNL     1     -33.202  25.216   3.937  0.00  0.00    -0.126 OA
ATOM      9  N   UNL     1     -34.220  25.079   4.654  0.00  0.00    +0.061 N 
ENDBRANCH   3   9
BRANCH   5  10
ATOM     10  O   UNL     1     -36.780  26.208   4.981  0.00  0.00    -0.502 OA
ATOM     11  H   UNL     1     -36.075  26.518   5.513  0.00  0.00    +0.292 HD
ENDBRANCH   5  10
BRANCH   6  12
ATOM     12  O   UNL     1     -39.001  24.999   3.871  0.00  0.00    -0.503 OA
ATOM     13  H   UNL     1     -39.749  24.447   3.985  0.00  0.00    +0.292 HD
ENDBRANCH   6  12
BRANCH   1  15
ATOM     14  O   UNL     1     -37.248  20.753   1.918  0.00  0.00    -0.287 OA
ATOM     15  C   UNL     1     -36.238  21.462   2.041  0.00  0.00    +0.196 C 
BRANCH  15  16
ATOM     16  C   UNL     1     -34.979  21.054   1.438  0.00  0.00    +0.039 C 
ATOM     17  C   UNL     1     -34.324  21.906   0.549  0.00  0.00    +0.003 C 
ATOM     18  C   UNL     1     -34.428  19.811   1.747  0.00  0.00    +0.003 C 
ATOM     19  C   UNL     1     -33.117  21.517  -0.030  0.00  0.00    +0.000 C 
ATOM     20  C   UNL     1     -33.220  19.421   1.168  0.00  0.00    +0.000 C 
ATOM     21  C   UNL     1     -32.565  20.273   0.279  0.00  0.00    +0.000 C 
ENDBRANCH  15  16
ENDBRANCH   1  15
TORSDOF 5
ENDMDL
MODEL 7
REMARK VINA RESULT:      -5.9      3.027      5.605
REMARK  Name = 5747969
REMARK  5 active torsions:
REMARK  status: ('A' for Active; 'I' for Inactive)
REMARK    1  A    between atoms: C_1  and  C_15
REMARK    2  A    between atoms: C_3  and  N_9
REMARK    3  A    between atoms: C_5  and  O_10
REMARK    4  A    between atoms: C_6  and  O_12
REMARK    5  A    between atoms: C_15  and  C_16
REMARK                            x       y       z     vdW  Elec       q    Type
REMARK                         _______ _______ _______ _____ _____    ______ ____
ROOT
ATOM      1  C   UNL     1     -37.050  22.996   3.142  0.00  0.00    +0.044 C 
ATOM      2  C   UNL     1     -38.100  22.620   2.339  0.00  0.00    +0.031 C 
ATOM      3  C   UNL     1     -38.049  21.375   1.713  0.00  0.00    +0.179 C 
ATOM      4  C   UNL     1     -35.951  22.198   3.357  0.00  0.00    +0.043 C 
ATOM      5  C   UNL     1     -36.949  20.540   1.909  0.00  0.00    +0.190 C 
ATOM      6  C   UNL     1     -35.899  20.953   2.731  0.00  0.00    +0.169 C 
ENDROOT
BRANCH   3   9
ATOM      7  O   UNL     1     -40.294  21.005   1.338  0.00  0.00    -0.126 OA
ATOM      8  O   UNL     1     -38.881  20.595  -0.291  0.00  0.00    -0.126 OA
ATOM      9  N   UNL     1     -39.128  20.971   0.878  0.00  0.00    +0.061 N 
ENDBRANCH   3   9
BRANCH   5  10
ATOM     10  O   UNL     1     -36.887  19.320   1.302  0.00  0.00    -0.502 OA
ATOM     11  H   UNL     1     -36.260  19.166   0.623  0.00  0.00    +0.292 HD
ENDBRANCH   5  10
BRANCH   6  12
ATOM     12  O   UNL     1     -34.818  20.148   2.932  0.00  0.00    -0.503 OA
ATOM     13  H   UNL     1     -34.932  19.291   3.292  0.00  0.00    +0.292 HD
ENDBRANCH   6  12
BRANCH   1  15
ATOM     14  O   UNL     1     -38.227  24.797   4.060  0.00  0.00    -0.287 OA
ATOM     15  C   UNL     1     -37.106  24.330   3.813  0.00  0.00    +0.196 C 
BRANCH  15  16
ATOM     16  C   UNL     1     -35.908  25.072   4.173  0.00  0.00    +0.039 C 
ATOM     17  C   UNL     1     -35.567  25.237   5.516  0.00  0.00    +0.003 C 
ATOM     18  C   UNL     1     -35.100  25.619   3.177  0.00  0.00    +0.003 C 
ATOM     19  C   UNL     1     -34.419  25.948   5.862  0.00  0.00    +0.000 C 
ATOM     20  C   UNL     1     -33.951  26.330   3.523  0.00  0.00    +0.000 C 
ATOM     21  C   UNL     1     -33.610  26.495   4.866  0.00  0.00    +0.000 C 
ENDBRANCH  15  16
ENDBRANCH   1  15
TORSDOF 5
ENDMDL
MODEL 8
REMARK VINA RESULT:      -5.9      3.203      6.400
REMARK  Name = 5747969
REMARK  5 active torsions:
REMARK  status: ('A' for Active; 'I' for Inactive)
REMARK    1  A    between atoms: C_1  and  C_15
REMARK    2  A    between atoms: C_3  and  N_9
REMARK    3  A    between atoms: C_5  and  O_10
REMARK    4  A    between atoms: C_6  and  O_12
REMARK    5  A    between atoms: C_15  and  C_16
REMARK                            x       y       z     vdW  Elec       q    Type
REMARK                         _______ _______ _______ _____ _____    ______ ____
ROOT
ATOM      1  C   UNL     1     -34.385  20.452   1.585  0.00  0.00    +0.044 C 
ATOM      2  C   UNL     1     -33.759  19.234   1.703  0.00  0.00    +0.031 C 
ATOM      3  C   UNL     1     -32.636  18.982   0.916  0.00  0.00    +0.179 C 
ATOM      4  C   UNL     1     -33.952  21.434   0.725  0.00  0.00    +0.043 C 
ATOM      5  C   UNL     1     -32.170  19.956   0.033  0.00  0.00    +0.190 C 
ATOM      6  C   UNL     1     -32.829  21.182  -0.063  0.00  0.00    +0.169 C 
ENDROOT
BRANCH   3   9
ATOM      7  O   UNL     1     -30.804  17.695   1.470  0.00  0.00    -0.126 OA
ATOM      8  O   UNL     1     -32.587  16.689   0.680  0.00  0.00    -0.126 OA
ATOM      9  N   UNL     1     -31.977  17.726   1.027  0.00  0.00    +0.061 N 
ENDBRANCH   3   9
BRANCH   5  10
ATOM     10  O   UNL     1     -31.072  19.721  -0.743  0.00  0.00    -0.502 OA
ATOM     11  H   UNL     1     -30.360  19.215  -0.406  0.00  0.00    +0.292 HD
ENDBRANCH   5  10
BRANCH   6  12
ATOM     12  O   UNL     1     -32.386  22.143  -0.922  0.00  0.00    -0.503 OA
ATOM     13  H   UNL     1     -32.610  22.100  -1.830  0.00  0.00    +0.292 HD
ENDBRANCH   6  12
BRANCH   1  15
ATOM     14  O   UNL     1     -36.644  20.154   2.114  0.00  0.00    -0.287 OA
ATOM     15  C   UNL     1     -35.588  20.722   2.429  0.00  0.00    +0.196 C 
BRANCH  15  16
ATOM     16  C   UNL     1     -35.549  21.612   3.579  0.00  0.00    +0.039 C 
ATOM     17  C   UNL     1     -35.107  21.138   4.813  0.00  0.00    +0.003 C 
ATOM     18  C   UNL     1     -35.955  22.940   3.447  0.00  0.00    +0.003 C 
ATOM     19  C   UNL     1     -35.070  21.989   5.916  0.00  0.00    +0.000 C 
ATOM     20  C   UNL     1     -35.918  23.793   4.550  0.00  0.00    +0.000 C 
ATOM     21  C   UNL     1     -35.476  23.318   5.785  0.00  0.00    +0.000 C 
ENDBRANCH  15  16
ENDBRANCH   1  15
TORSDOF 5
ENDMDL
MODEL 9
REMARK VINA RESULT:      -5.8      4.874      7.430
REMARK  Name = 5747969
REMARK  5 active torsions:
REMARK  status: ('A' for Active; 'I' for Inactive)
REMARK    1  A    between atoms: C_1  and  C_15
REMARK    2  A    between atoms: C_3  and  N_9
REMARK    3  A    between atoms: C_5  and  O_10
REMARK    4  A    between atoms: C_6  and  O_12
REMARK    5  A    between atoms: C_15  and  C_16
REMARK                            x       y       z     vdW  Elec       q    Type
REMARK                         _______ _______ _______ _____ _____    ______ ____
ROOT
ATOM      1  C   UNL     1     -34.166  26.112   3.843  0.00  0.00    +0.044 C 
ATOM      2  C   UNL     1     -34.236  24.843   4.367  0.00  0.00    +0.031 C 
ATOM      3  C   UNL     1     -35.479  24.212   4.424  0.00  0.00    +0.179 C 
ATOM      4  C   UNL     1     -35.268  26.787   3.371  0.00  0.00    +0.043 C 
ATOM      5  C   UNL     1     -36.616  24.868   3.955  0.00  0.00    +0.190 C 
ATOM      6  C   UNL     1     -36.510  26.156   3.429  0.00  0.00    +0.169 C 
ENDROOT
BRANCH   3   9
ATOM      7  O   UNL     1     -35.242  21.925   4.243  0.00  0.00    -0.126 OA
ATOM      8  O   UNL     1     -35.966  22.754   6.143  0.00  0.00    -0.126 OA
ATOM      9  N   UNL     1     -35.567  22.899   4.964  0.00  0.00    +0.061 N 
ENDBRANCH   3   9
BRANCH   5  10
ATOM     10  O   UNL     1     -37.838  24.261   4.006  0.00  0.00    -0.502 OA
ATOM     11  H   UNL     1     -38.485  24.562   4.612  0.00  0.00    +0.292 HD
ENDBRANCH   5  10
BRANCH   6  12
ATOM     12  O   UNL     1     -37.614  26.810   2.966  0.00  0.00    -0.503 OA
ATOM     13  H   UNL     1     -38.092  27.381   3.534  0.00  0.00    +0.292 HD
ENDBRANCH   6  12
BRANCH   1  15
ATOM     14  O   UNL     1     -31.988  26.307   3.014  0.00  0.00    -0.287 OA
ATOM     15  C   UNL     1     -32.835  26.787   3.781  0.00  0.00    +0.196 C 
BRANCH  15  16
ATOM     16  C   UNL     1     -32.519  27.962   4.578  0.00  0.00    +0.039 C 
ATOM     17  C   UNL     1     -32.528  29.227   3.990  0.00  0.00    +0.003 C 
ATOM     18  C   UNL     1     -32.207  27.825   5.930  0.00  0.00    +0.003 C 
ATOM     19  C   UNL     1     -32.225  30.354   4.753  0.00  0.00    +0.000 C 
ATOM     20  C   UNL     1     -31.904  28.952   6.694  0.00  0.00    +0.000 C 
ATOM     21  C   UNL     1     -31.913  30.217   6.105  0.00  0.00    +0.000 C 
ENDBRANCH  15  16
ENDBRANCH   1  15
TORSDOF 5
ENDMDL
