MODEL 1
REMARK VINA RESULT:      -6.8      0.000      0.000
REMARK  Name = 56832738
REMARK  10 active torsions:
REMARK  status: ('A' for Active; 'I' for Inactive)
REMARK    1  A    between atoms: C_2  and  C_11
REMARK    2  A    between atoms: C_5  and  C_25
REMARK    3  A    between atoms: C_10  and  C_22
REMARK    4  A    between atoms: C_12  and  O_16
REMARK    5  A    between atoms: C_13  and  O_18
REMARK    6  A    between atoms: C_14  and  O_20
REMARK    7  A    between atoms: C_22  and  O_23
REMARK    8  A    between atoms: C_25  and  C_27
REMARK    9  A    between atoms: C_32  and  O_33
REMARK   10  A    between atoms: O_33  and  C_34
REMARK                            x       y       z     vdW  Elec       q    Type
REMARK                         _______ _______ _______ _____ _____    ______ ____
ROOT
ATOM      1 CL   UNL     1     -36.792  27.360   2.083  0.00  0.00    -0.083 Cl
ATOM      2  C   UNL     1     -32.422  27.939   3.060  0.00  0.00    +0.031 C 
ATOM      3  C   UNL     1     -33.226  27.194   3.923  0.00  0.00    -0.003 C 
ATOM      4  C   UNL     1     -32.969  28.496   1.904  0.00  0.00    +0.001 C 
ATOM      5  C   UNL     1     -34.578  27.009   3.630  0.00  0.00    -0.007 C 
ATOM      6  C   UNL     1     -34.320  28.311   1.612  0.00  0.00    +0.011 C 
ATOM      7  C   UNL     1     -35.125  27.567   2.475  0.00  0.00    +0.054 C 
ENDROOT
BRANCH   2  11
ATOM      8  O   UNL     1     -30.624  27.708   4.711  0.00  0.00    -0.326 OA
ATOM      9  O   UNL     1     -30.626  29.545   3.291  0.00  0.00    -0.326 OA
ATOM     10  C   UNL     1     -29.447  28.472   5.003  0.00  0.00    +0.176 C 
ATOM     11  C   UNL     1     -30.954  28.140   3.377  0.00  0.00    +0.235 C 
ATOM     12  C   UNL     1     -28.268  27.833   4.225  0.00  0.00    +0.169 C 
ATOM     13  C   UNL     1     -30.018  27.375   2.412  0.00  0.00    +0.196 C 
ATOM     14  C   UNL     1     -28.537  27.683   2.712  0.00  0.00    +0.172 C 
ATOM     15  C   UNL     1     -29.866  29.834   4.472  0.00  0.00    +0.177 C 
BRANCH  12  16
ATOM     16  O   UNL     1     -28.028  26.530   4.765  0.00  0.00    -0.379 OA
ATOM     17  H   UNL     1     -27.645  26.612   5.653  0.00  0.00    +0.211 HD
ENDBRANCH  12  16
BRANCH  13  18
ATOM     18  O   UNL     1     -30.233  25.970   2.547  0.00  0.00    -0.377 OA
ATOM     19  H   UNL     1     -29.475  25.491   2.175  0.00  0.00    +0.211 HD
ENDBRANCH  13  18
BRANCH  14  20
ATOM     20  O   UNL     1     -28.188  28.899   2.050  0.00  0.00    -0.379 OA
ATOM     21  H   UNL     1     -28.502  29.653   2.573  0.00  0.00    +0.211 HD
ENDBRANCH  14  20
BRANCH  10  22
ATOM     22  C   UNL     1     -29.211  28.488   6.508  0.00  0.00    +0.169 C 
BRANCH  22  23
ATOM     23  O   UNL     1     -29.435  27.183   7.014  0.00  0.00    -0.379 OA
ATOM     24  H   UNL     1     -28.586  26.723   7.109  0.00  0.00    +0.211 HD
ENDBRANCH  22  23
ENDBRANCH  10  22
ENDBRANCH   2  11
BRANCH   5  25
ATOM     25  C   UNL     1     -35.406  26.207   4.582  0.00  0.00    +0.054 C 
BRANCH  25  27
ATOM     26  F   UNL     1     -35.654  21.567   6.089  0.00  0.00    -0.201 F 
ATOM     27  C   UNL     1     -35.397  24.720   4.296  0.00  0.00    -0.015 C 
ATOM     28  C   UNL     1     -35.532  23.807   5.343  0.00  0.00    +0.029 C 
ATOM     29  C   UNL     1     -35.251  24.262   2.987  0.00  0.00    -0.001 C 
ATOM     30  C   UNL     1     -35.523  22.438   5.079  0.00  0.00    +0.174 C 
ATOM     31  C   UNL     1     -35.242  22.893   2.723  0.00  0.00    +0.039 C 
ATOM     32  C   UNL     1     -35.377  21.981   3.770  0.00  0.00    +0.166 C 
BRANCH  32  33
ATOM     33  O   UNL     1     -35.368  20.644   3.511  0.00  0.00    -0.473 OA
BRANCH  33  34
ATOM     34  C   UNL     1     -35.522  20.246   2.150  0.00  0.00    +0.206 C 
ATOM     35  C   UNL     1     -34.236  19.601   1.677  0.00  0.00    +0.051 C 
ENDBRANCH  33  34
ENDBRANCH  32  33
ENDBRANCH  25  27
ENDBRANCH   5  25
TORSDOF 10
ENDMDL
MODEL 2
REMARK VINA RESULT:      -6.4      4.724      7.324
REMARK  Name = 56832738
REMARK  10 active torsions:
REMARK  status: ('A' for Active; 'I' for Inactive)
REMARK    1  A    between atoms: C_2  and  C_11
REMARK    2  A    between atoms: C_5  and  C_25
REMARK    3  A    between atoms: C_10  and  C_22
REMARK    4  A    between atoms: C_12  and  O_16
REMARK    5  A    between atoms: C_13  and  O_18
REMARK    6  A    between atoms: C_14  and  O_20
REMARK    7  A    between atoms: C_22  and  O_23
REMARK    8  A    between atoms: C_25  and  C_27
REMARK    9  A    between atoms: C_32  and  O_33
REMARK   10  A    between atoms: O_33  and  C_34
REMARK                            x       y       z     vdW  Elec       q    Type
REMARK                         _______ _______ _______ _____ _____    ______ ____
ROOT
ATOM      1 CL   UNL     1     -30.837  23.899  -1.552  0.00  0.00    -0.083 Cl
ATOM      2  C   UNL     1     -34.294  23.988   1.351  0.00  0.00    +0.031 C 
ATOM      3  C   UNL     1     -34.104  22.868   0.543  0.00  0.00    -0.003 C 
ATOM      4  C   UNL     1     -33.418  25.070   1.261  0.00  0.00    +0.001 C 
ATOM      5  C   UNL     1     -33.039  22.829  -0.357  0.00  0.00    -0.007 C 
ATOM      6  C   UNL     1     -32.353  25.031   0.360  0.00  0.00    +0.011 C 
ATOM      7  C   UNL     1     -32.163  23.911  -0.449  0.00  0.00    +0.054 C 
ENDROOT
BRANCH   2  11
ATOM      8  O   UNL     1     -35.449  25.236   3.118  0.00  0.00    -0.326 OA
ATOM      9  O   UNL     1     -35.350  22.920   3.249  0.00  0.00    -0.326 OA
ATOM     10  C   UNL     1     -36.183  24.845   4.286  0.00  0.00    +0.176 C 
ATOM     11  C   UNL     1     -35.451  24.030   2.330  0.00  0.00    +0.235 C 
ATOM     12  C   UNL     1     -37.684  24.790   3.900  0.00  0.00    +0.169 C 
ATOM     13  C   UNL     1     -36.831  23.948   1.637  0.00  0.00    +0.196 C 
ATOM     14  C   UNL     1     -37.972  23.899   2.673  0.00  0.00    +0.172 C 
ATOM     15  C   UNL     1     -35.567  23.480   4.552  0.00  0.00    +0.177 C 
BRANCH  12  16
ATOM     16  O   UNL     1     -38.118  26.119   3.597  0.00  0.00    -0.379 OA
ATOM     17  H   UNL     1     -38.048  26.671   4.391  0.00  0.00    +0.211 HD
ENDBRANCH  12  16
BRANCH  13  18
ATOM     18  O   UNL     1     -37.017  25.089   0.800  0.00  0.00    -0.377 OA
ATOM     19  H   UNL     1     -37.309  24.800  -0.079  0.00  0.00    +0.211 HD
ENDBRANCH  13  18
BRANCH  14  20
ATOM     20  O   UNL     1     -38.132  22.546   3.101  0.00  0.00    -0.379 OA
ATOM     21  H   UNL     1     -38.767  22.511   3.833  0.00  0.00    +0.211 HD
ENDBRANCH  14  20
BRANCH  10  22
ATOM     22  C   UNL     1     -35.907  25.831   5.414  0.00  0.00    +0.169 C 
BRANCH  22  23
ATOM     23  O   UNL     1     -35.639  27.102   4.848  0.00  0.00    -0.379 OA
ATOM     24  H   UNL     1     -36.163  27.212   4.038  0.00  0.00    +0.211 HD
ENDBRANCH  22  23
ENDBRANCH  10  22
ENDBRANCH   2  11
BRANCH   5  25
ATOM     25  C   UNL     1     -32.871  21.611  -1.207  0.00  0.00    +0.054 C 
BRANCH  25  27
ATOM     26  F   UNL     1     -32.709  17.802   1.848  0.00  0.00    -0.201 F 
ATOM     27  C   UNL     1     -32.113  20.491  -0.526  0.00  0.00    -0.015 C 
ATOM     28  C   UNL     1     -32.771  19.643   0.366  0.00  0.00    +0.029 C 
ATOM     29  C   UNL     1     -30.756  20.307  -0.790  0.00  0.00    -0.001 C 
ATOM     30  C   UNL     1     -32.072  18.612   0.992  0.00  0.00    +0.174 C 
ATOM     31  C   UNL     1     -30.057  19.276  -0.164  0.00  0.00    +0.039 C 
ATOM     32  C   UNL     1     -30.715  18.429   0.728  0.00  0.00    +0.166 C 
BRANCH  32  33
ATOM     33  O   UNL     1     -30.031  17.423   1.339  0.00  0.00    -0.473 OA
BRANCH  33  34
ATOM     34  C   UNL     1     -28.661  17.256   0.975  0.00  0.00    +0.206 C 
ATOM     35  C   UNL     1     -27.794  17.530   2.186  0.00  0.00    +0.051 C 
ENDBRANCH  33  34
ENDBRANCH  32  33
ENDBRANCH  25  27
ENDBRANCH   5  25
TORSDOF 10
ENDMDL
MODEL 3
REMARK VINA RESULT:      -6.4      4.574      7.439
REMARK  Name = 56832738
REMARK  10 active torsions:
REMARK  status: ('A' for Active; 'I' for Inactive)
REMARK    1  A    between atoms: C_2  and  C_11
REMARK    2  A    between atoms: C_5  and  C_25
REMARK    3  A    between atoms: C_10  and  C_22
REMARK    4  A    between atoms: C_12  and  O_16
REMARK    5  A    between atoms: C_13  and  O_18
REMARK    6  A    between atoms: C_14  and  O_20
REMARK    7  A    between atoms: C_22  and  O_23
REMARK    8  A    between atoms: C_25  and  C_27
REMARK    9  A    between atoms: C_32  and  O_33
REMARK   10  A    between atoms: O_33  and  C_34
REMARK                            x       y       z     vdW  Elec       q    Type
REMARK                         _______ _______ _______ _____ _____    ______ ____
ROOT
ATOM      1 CL   UNL     1     -36.127  18.973  -0.831  0.00  0.00    -0.083 Cl
ATOM      2  C   UNL     1     -35.533  22.611   1.776  0.00  0.00    +0.031 C 
ATOM      3  C   UNL     1     -34.796  21.455   2.031  0.00  0.00    -0.003 C 
ATOM      4  C   UNL     1     -36.444  22.638   0.720  0.00  0.00    +0.001 C 
ATOM      5  C   UNL     1     -34.971  20.326   1.232  0.00  0.00    -0.007 C 
ATOM      6  C   UNL     1     -36.620  21.508  -0.079  0.00  0.00    +0.011 C 
ATOM      7  C   UNL     1     -35.882  20.352   0.176  0.00  0.00    +0.054 C 
ENDROOT
BRANCH   2  11
ATOM      8  O   UNL     1     -36.347  24.841   2.392  0.00  0.00    -0.326 OA
ATOM      9  O   UNL     1     -34.059  24.441   2.361  0.00  0.00    -0.326 OA
ATOM     10  C   UNL     1     -35.699  26.045   2.821  0.00  0.00    +0.176 C 
ATOM     11  C   UNL     1     -35.343  23.839   2.644  0.00  0.00    +0.235 C 
ATOM     12  C   UNL     1     -35.707  26.055   4.372  0.00  0.00    +0.169 C 
ATOM     13  C   UNL     1     -35.394  23.523   4.157  0.00  0.00    +0.196 C 
ATOM     14  C   UNL     1     -35.103  24.781   4.999  0.00  0.00    +0.172 C 
ATOM     15  C   UNL     1     -34.317  25.844   2.217  0.00  0.00    +0.177 C 
BRANCH  12  16
ATOM     16  O   UNL     1     -37.064  26.167   4.811  0.00  0.00    -0.379 OA
ATOM     17  H   UNL     1     -37.236  25.508   5.502  0.00  0.00    +0.211 HD
ENDBRANCH  12  16
BRANCH  13  18
ATOM     18  O   UNL     1     -36.687  23.027   4.501  0.00  0.00    -0.377 OA
ATOM     19  H   UNL     1     -36.602  22.360   5.200  0.00  0.00    +0.211 HD
ENDBRANCH  13  18
BRANCH  14  20
ATOM     20  O   UNL     1     -33.686  24.934   5.102  0.00  0.00    -0.379 OA
ATOM     21  H   UNL     1     -33.449  25.861   4.946  0.00  0.00    +0.211 HD
ENDBRANCH  14  20
BRANCH  10  22
ATOM     22  C   UNL     1     -36.418  27.250   2.227  0.00  0.00    +0.169 C 
BRANCH  22  23
ATOM     23  O   UNL     1     -37.812  27.000   2.250  0.00  0.00    -0.379 OA
ATOM     24  H   UNL     1     -37.985  26.181   2.741  0.00  0.00    +0.211 HD
ENDBRANCH  22  23
ENDBRANCH  10  22
ENDBRANCH   2  11
BRANCH   5  25
ATOM     25  C   UNL     1     -34.163  19.106   1.539  0.00  0.00    +0.054 C 
BRANCH  25  27
ATOM     26  F   UNL     1     -29.818  17.014   0.755  0.00  0.00    -0.201 F 
ATOM     27  C   UNL     1     -32.777  19.121   0.928  0.00  0.00    -0.015 C 
ATOM     28  C   UNL     1     -31.916  18.041   1.125  0.00  0.00    +0.029 C 
ATOM     29  C   UNL     1     -32.361  20.215   0.170  0.00  0.00    -0.001 C 
ATOM     30  C   UNL     1     -30.641  18.055   0.562  0.00  0.00    +0.174 C 
ATOM     31  C   UNL     1     -31.086  20.229  -0.393  0.00  0.00    +0.039 C 
ATOM     32  C   UNL     1     -30.225  19.149  -0.196  0.00  0.00    +0.166 C 
BRANCH  32  33
ATOM     33  O   UNL     1     -28.979  19.164  -0.746  0.00  0.00    -0.473 OA
BRANCH  33  34
ATOM     34  C   UNL     1     -28.121  20.243  -0.375  0.00  0.00    +0.206 C 
ATOM     35  C   UNL     1     -26.992  19.702   0.477  0.00  0.00    +0.051 C 
ENDBRANCH  33  34
ENDBRANCH  32  33
ENDBRANCH  25  27
ENDBRANCH   5  25
TORSDOF 10
ENDMDL
MODEL 4
REMARK VINA RESULT:      -6.3      4.544      7.445
REMARK  Name = 56832738
REMARK  10 active torsions:
REMARK  status: ('A' for Active; 'I' for Inactive)
REMARK    1  A    between atoms: C_2  and  C_11
REMARK    2  A    between atoms: C_5  and  C_25
REMARK    3  A    between atoms: C_10  and  C_22
REMARK    4  A    between atoms: C_12  and  O_16
REMARK    5  A    between atoms: C_13  and  O_18
REMARK    6  A    between atoms: C_14  and  O_20
REMARK    7  A    between atoms: C_22  and  O_23
REMARK    8  A    between atoms: C_25  and  C_27
REMARK    9  A    between atoms: C_32  and  O_33
REMARK   10  A    between atoms: O_33  and  C_34
REMARK                            x       y       z     vdW  Elec       q    Type
REMARK                         _______ _______ _______ _____ _____    ______ ____
ROOT
ATOM      1 CL   UNL     1     -36.134  19.032  -0.901  0.00  0.00    -0.083 Cl
ATOM      2  C   UNL     1     -35.537  22.635   1.753  0.00  0.00    +0.031 C 
ATOM      3  C   UNL     1     -34.820  21.467   2.010  0.00  0.00    -0.003 C 
ATOM      4  C   UNL     1     -36.429  22.686   0.682  0.00  0.00    +0.001 C 
ATOM      5  C   UNL     1     -34.997  20.348   1.196  0.00  0.00    -0.007 C 
ATOM      6  C   UNL     1     -36.605  21.567  -0.131  0.00  0.00    +0.011 C 
ATOM      7  C   UNL     1     -35.889  20.397   0.125  0.00  0.00    +0.054 C 
ENDROOT
BRANCH   2  11
ATOM      8  O   UNL     1     -36.350  24.857   2.400  0.00  0.00    -0.326 OA
ATOM      9  O   UNL     1     -34.062  24.457   2.360  0.00  0.00    -0.326 OA
ATOM     10  C   UNL     1     -35.701  26.055   2.844  0.00  0.00    +0.176 C 
ATOM     11  C   UNL     1     -35.345  23.851   2.637  0.00  0.00    +0.235 C 
ATOM     12  C   UNL     1     -35.706  26.045   4.395  0.00  0.00    +0.169 C 
ATOM     13  C   UNL     1     -35.393  23.515   4.146  0.00  0.00    +0.196 C 
ATOM     14  C   UNL     1     -35.101  24.762   5.004  0.00  0.00    +0.172 C 
ATOM     15  C   UNL     1     -34.321  25.862   2.235  0.00  0.00    +0.177 C 
BRANCH  12  16
ATOM     16  O   UNL     1     -37.063  26.150   4.839  0.00  0.00    -0.379 OA
ATOM     17  H   UNL     1     -37.624  26.433   4.100  0.00  0.00    +0.211 HD
ENDBRANCH  12  16
BRANCH  13  18
ATOM     18  O   UNL     1     -36.686  23.015   4.486  0.00  0.00    -0.377 OA
ATOM     19  H   UNL     1     -36.931  22.307   3.869  0.00  0.00    +0.211 HD
ENDBRANCH  13  18
BRANCH  14  20
ATOM     20  O   UNL     1     -33.684  24.914   5.107  0.00  0.00    -0.379 OA
ATOM     21  H   UNL     1     -33.264  24.040   5.096  0.00  0.00    +0.211 HD
ENDBRANCH  14  20
BRANCH  10  22
ATOM     22  C   UNL     1     -36.421  27.268   2.268  0.00  0.00    +0.169 C 
BRANCH  22  23
ATOM     23  O   UNL     1     -37.812  27.000   2.250  0.00  0.00    -0.379 OA
ATOM     24  H   UNL     1     -38.108  26.770   3.145  0.00  0.00    +0.211 HD
ENDBRANCH  22  23
ENDBRANCH  10  22
ENDBRANCH   2  11
BRANCH   5  25
ATOM     25  C   UNL     1     -34.211  19.114   1.505  0.00  0.00    +0.054 C 
BRANCH  25  27
ATOM     26  F   UNL     1     -30.651  21.280  -1.045  0.00  0.00    -0.201 F 
ATOM     27  C   UNL     1     -32.812  19.118   0.924  0.00  0.00    -0.015 C 
ATOM     28  C   UNL     1     -32.364  20.218   0.192  0.00  0.00    +0.029 C 
ATOM     29  C   UNL     1     -31.973  18.022   1.119  0.00  0.00    -0.001 C 
ATOM     30  C   UNL     1     -31.076  20.221  -0.343  0.00  0.00    +0.174 C 
ATOM     31  C   UNL     1     -30.686  18.025   0.585  0.00  0.00    +0.039 C 
ATOM     32  C   UNL     1     -30.237  19.124  -0.147  0.00  0.00    +0.166 C 
BRANCH  32  33
ATOM     33  O   UNL     1     -28.980  19.126  -0.669  0.00  0.00    -0.473 OA
BRANCH  33  34
ATOM     34  C   UNL     1     -27.893  19.149   0.257  0.00  0.00    +0.206 C 
ATOM     35  C   UNL     1     -27.056  20.385   0.001  0.00  0.00    +0.051 C 
ENDBRANCH  33  34
ENDBRANCH  32  33
ENDBRANCH  25  27
ENDBRANCH   5  25
TORSDOF 10
ENDMDL
MODEL 5
REMARK VINA RESULT:      -6.3      4.219      6.777
REMARK  Name = 56832738
REMARK  10 active torsions:
REMARK  status: ('A' for Active; 'I' for Inactive)
REMARK    1  A    between atoms: C_2  and  C_11
REMARK    2  A    between atoms: C_5  and  C_25
REMARK    3  A    between atoms: C_10  and  C_22
REMARK    4  A    between atoms: C_12  and  O_16
REMARK    5  A    between atoms: C_13  and  O_18
REMARK    6  A    between atoms: C_14  and  O_20
REMARK    7  A    between atoms: C_22  and  O_23
REMARK    8  A    between atoms: C_25  and  C_27
REMARK    9  A    between atoms: C_32  and  O_33
REMARK   10  A    between atoms: O_33  and  C_34
REMARK                            x       y       z     vdW  Elec       q    Type
REMARK                         _______ _______ _______ _____ _____    ______ ____
ROOT
ATOM      1 CL   UNL     1     -30.571  24.005  -1.809  0.00  0.00    -0.083 Cl
ATOM      2  C   UNL     1     -33.725  24.902   1.295  0.00  0.00    +0.031 C 
ATOM      3  C   UNL     1     -33.816  23.732   0.542  0.00  0.00    -0.003 C 
ATOM      4  C   UNL     1     -32.665  25.784   1.088  0.00  0.00    +0.001 C 
ATOM      5  C   UNL     1     -32.847  23.444  -0.419  0.00  0.00    -0.007 C 
ATOM      6  C   UNL     1     -31.696  25.497   0.127  0.00  0.00    +0.011 C 
ATOM      7  C   UNL     1     -31.786  24.326  -0.627  0.00  0.00    +0.054 C 
ENDROOT
BRANCH   2  11
ATOM      8  O   UNL     1     -35.621  24.078   2.615  0.00  0.00    -0.326 OA
ATOM      9  O   UNL     1     -35.636  26.275   1.863  0.00  0.00    -0.326 OA
ATOM     10  C   UNL     1     -36.814  24.692   3.120  0.00  0.00    +0.176 C 
ATOM     11  C   UNL     1     -34.778  25.214   2.339  0.00  0.00    +0.235 C 
ATOM     12  C   UNL     1     -36.525  25.158   4.570  0.00  0.00    +0.169 C 
ATOM     13  C   UNL     1     -34.174  25.664   3.690  0.00  0.00    +0.196 C 
ATOM     14  C   UNL     1     -35.278  26.061   4.690  0.00  0.00    +0.172 C 
ATOM     15  C   UNL     1     -36.975  25.835   2.129  0.00  0.00    +0.177 C 
BRANCH  12  16
ATOM     16  O   UNL     1     -36.313  23.997   5.380  0.00  0.00    -0.379 OA
ATOM     17  H   UNL     1     -37.126  23.469   5.407  0.00  0.00    +0.211 HD
ENDBRANCH  12  16
BRANCH  13  18
ATOM     18  O   UNL     1     -33.405  24.600   4.251  0.00  0.00    -0.377 OA
ATOM     19  H   UNL     1     -32.560  24.530   3.781  0.00  0.00    +0.211 HD
ENDBRANCH  13  18
BRANCH  14  20
ATOM     20  O   UNL     1     -35.652  27.415   4.432  0.00  0.00    -0.379 OA
ATOM     21  H   UNL     1     -34.863  27.928   4.197  0.00  0.00    +0.211 HD
ENDBRANCH  14  20
BRANCH  10  22
ATOM     22  C   UNL     1     -37.967  23.699   3.046  0.00  0.00    +0.169 C 
BRANCH  22  23
ATOM     23  O   UNL     1     -37.475  22.411   3.372  0.00  0.00    -0.379 OA
ATOM     24  H   UNL     1     -37.087  22.003   2.581  0.00  0.00    +0.211 HD
ENDBRANCH  22  23
ENDBRANCH  10  22
ENDBRANCH   2  11
BRANCH   5  25
ATOM     25  C   UNL     1     -32.981  22.181  -1.207  0.00  0.00    +0.054 C 
BRANCH  25  27
ATOM     26  F   UNL     1     -33.200  18.405   1.885  0.00  0.00    -0.201 F 
ATOM     27  C   UNL     1     -32.349  20.976  -0.541  0.00  0.00    -0.015 C 
ATOM     28  C   UNL     1     -33.077  20.228   0.384  0.00  0.00    +0.029 C 
ATOM     29  C   UNL     1     -31.039  20.614  -0.853  0.00  0.00    -0.001 C 
ATOM     30  C   UNL     1     -32.495  19.119   0.997  0.00  0.00    +0.174 C 
ATOM     31  C   UNL     1     -30.457  19.505  -0.241  0.00  0.00    +0.039 C 
ATOM     32  C   UNL     1     -31.185  18.758   0.685  0.00  0.00    +0.166 C 
BRANCH  32  33
ATOM     33  O   UNL     1     -30.615  17.675   1.283  0.00  0.00    -0.473 OA
BRANCH  33  34
ATOM     34  C   UNL     1     -29.375  17.216   0.746  0.00  0.00    +0.206 C 
ATOM     35  C   UNL     1     -28.275  17.481   1.752  0.00  0.00    +0.051 C 
ENDBRANCH  33  34
ENDBRANCH  32  33
ENDBRANCH  25  27
ENDBRANCH   5  25
TORSDOF 10
ENDMDL
MODEL 6
REMARK VINA RESULT:      -6.3      4.606      7.233
REMARK  Name = 56832738
REMARK  10 active torsions:
REMARK  status: ('A' for Active; 'I' for Inactive)
REMARK    1  A    between atoms: C_2  and  C_11
REMARK    2  A    between atoms: C_5  and  C_25
REMARK    3  A    between atoms: C_10  and  C_22
REMARK    4  A    between atoms: C_12  and  O_16
REMARK    5  A    between atoms: C_13  and  O_18
REMARK    6  A    between atoms: C_14  and  O_20
REMARK    7  A    between atoms: C_22  and  O_23
REMARK    8  A    between atoms: C_25  and  C_27
REMARK    9  A    between atoms: C_32  and  O_33
REMARK   10  A    between atoms: O_33  and  C_34
REMARK                            x       y       z     vdW  Elec       q    Type
REMARK                         _______ _______ _______ _____ _____    ______ ____
ROOT
ATOM      1 CL   UNL     1     -34.519  20.926  -2.523  0.00  0.00    -0.083 Cl
ATOM      2  C   UNL     1     -35.739  23.099   1.242  0.00  0.00    +0.031 C 
ATOM      3  C   UNL     1     -34.385  22.930   0.954  0.00  0.00    -0.003 C 
ATOM      4  C   UNL     1     -36.705  22.600   0.368  0.00  0.00    +0.001 C 
ATOM      5  C   UNL     1     -33.997  22.261  -0.207  0.00  0.00    -0.007 C 
ATOM      6  C   UNL     1     -36.317  21.930  -0.792  0.00  0.00    +0.011 C 
ATOM      7  C   UNL     1     -34.962  21.761  -1.080  0.00  0.00    +0.054 C 
ENDROOT
BRANCH   2  11
ATOM      8  O   UNL     1     -35.047  24.466   3.157  0.00  0.00    -0.326 OA
ATOM      9  O   UNL     1     -36.723  22.884   3.443  0.00  0.00    -0.326 OA
ATOM     10  C   UNL     1     -35.500  24.567   4.513  0.00  0.00    +0.176 C 
ATOM     11  C   UNL     1     -36.161  23.827   2.503  0.00  0.00    +0.235 C 
ATOM     12  C   UNL     1     -36.535  25.720   4.577  0.00  0.00    +0.169 C 
ATOM     13  C   UNL     1     -37.219  24.923   2.241  0.00  0.00    +0.196 C 
ATOM     14  C   UNL     1     -37.687  25.572   3.560  0.00  0.00    +0.172 C 
ATOM     15  C   UNL     1     -36.108  23.186   4.703  0.00  0.00    +0.177 C 
BRANCH  12  16
ATOM     16  O   UNL     1     -35.855  26.949   4.302  0.00  0.00    -0.379 OA
ATOM     17  H   UNL     1     -35.031  26.984   4.813  0.00  0.00    +0.211 HD
ENDBRANCH  12  16
BRANCH  13  18
ATOM     18  O   UNL     1     -36.664  25.936   1.402  0.00  0.00    -0.377 OA
ATOM     19  H   UNL     1     -35.946  25.558   0.871  0.00  0.00    +0.211 HD
ENDBRANCH  13  18
BRANCH  14  20
ATOM     20  O   UNL     1     -38.710  24.751   4.124  0.00  0.00    -0.379 OA
ATOM     21  H   UNL     1     -39.561  24.965   3.711  0.00  0.00    +0.211 HD
ENDBRANCH  14  20
BRANCH  10  22
ATOM     22  C   UNL     1     -34.308  24.803   5.432  0.00  0.00    +0.169 C 
BRANCH  22  23
ATOM     23  O   UNL     1     -33.312  25.505   4.707  0.00  0.00    -0.379 OA
ATOM     24  H   UNL     1     -33.627  26.401   4.511  0.00  0.00    +0.211 HD
ENDBRANCH  22  23
ENDBRANCH  10  22
ENDBRANCH   2  11
BRANCH   5  25
ATOM     25  C   UNL     1     -32.536  22.099  -0.478  0.00  0.00    +0.054 C 
BRANCH  25  27
ATOM     26  F   UNL     1     -32.939  17.837   1.876  0.00  0.00    -0.201 F 
ATOM     27  C   UNL     1     -31.991  20.736  -0.104  0.00  0.00    -0.015 C 
ATOM     28  C   UNL     1     -32.728  19.895   0.730  0.00  0.00    +0.029 C 
ATOM     29  C   UNL     1     -30.752  20.323  -0.593  0.00  0.00    -0.001 C 
ATOM     30  C   UNL     1     -32.226  18.641   1.074  0.00  0.00    +0.174 C 
ATOM     31  C   UNL     1     -30.251  19.068  -0.250  0.00  0.00    +0.039 C 
ATOM     32  C   UNL     1     -30.987  18.227   0.585  0.00  0.00    +0.166 C 
BRANCH  32  33
ATOM     33  O   UNL     1     -30.496  17.003   0.920  0.00  0.00    -0.473 OA
BRANCH  33  34
ATOM     34  C   UNL     1     -30.287  16.074  -0.143  0.00  0.00    +0.206 C 
ATOM     35  C   UNL     1     -31.577  15.327  -0.404  0.00  0.00    +0.051 C 
ENDBRANCH  33  34
ENDBRANCH  32  33
ENDBRANCH  25  27
ENDBRANCH   5  25
TORSDOF 10
ENDMDL
MODEL 7
REMARK VINA RESULT:      -6.2      4.685      7.830
REMARK  Name = 56832738
REMARK  10 active torsions:
REMARK  status: ('A' for Active; 'I' for Inactive)
REMARK    1  A    between atoms: C_2  and  C_11
REMARK    2  A    between atoms: C_5  and  C_25
REMARK    3  A    between atoms: C_10  and  C_22
REMARK    4  A    between atoms: C_12  and  O_16
REMARK    5  A    between atoms: C_13  and  O_18
REMARK    6  A    between atoms: C_14  and  O_20
REMARK    7  A    between atoms: C_22  and  O_23
REMARK    8  A    between atoms: C_25  and  C_27
REMARK    9  A    between atoms: C_32  and  O_33
REMARK   10  A    between atoms: O_33  and  C_34
REMARK                            x       y       z     vdW  Elec       q    Type
REMARK                         _______ _______ _______ _____ _____    ______ ____
ROOT
ATOM      1 CL   UNL     1     -35.769  18.079  -0.354  0.00  0.00    -0.083 Cl
ATOM      2  C   UNL     1     -36.240  21.892   2.017  0.00  0.00    +0.031 C 
ATOM      3  C   UNL     1     -35.090  21.119   2.180  0.00  0.00    -0.003 C 
ATOM      4  C   UNL     1     -37.232  21.487   1.125  0.00  0.00    +0.001 C 
ATOM      5  C   UNL     1     -34.935  19.940   1.452  0.00  0.00    -0.007 C 
ATOM      6  C   UNL     1     -37.076  20.307   0.397  0.00  0.00    +0.011 C 
ATOM      7  C   UNL     1     -35.927  19.533   0.561  0.00  0.00    +0.054 C 
ENDROOT
BRANCH   2  11
ATOM      8  O   UNL     1     -35.184  23.929   2.883  0.00  0.00    -0.326 OA
ATOM      9  O   UNL     1     -36.802  22.862   4.162  0.00  0.00    -0.326 OA
ATOM     10  C   UNL     1     -35.376  24.715   4.067  0.00  0.00    +0.176 C 
ATOM     11  C   UNL     1     -36.409  23.175   2.807  0.00  0.00    +0.235 C 
ATOM     12  C   UNL     1     -36.363  25.858   3.716  0.00  0.00    +0.169 C 
ATOM     13  C   UNL     1     -37.480  24.116   2.208  0.00  0.00    +0.196 C 
ATOM     14  C   UNL     1     -37.685  25.361   3.093  0.00  0.00    +0.172 C 
ATOM     15  C   UNL     1     -35.960  23.665   5.001  0.00  0.00    +0.177 C 
BRANCH  12  16
ATOM     16  O   UNL     1     -35.726  26.726   2.774  0.00  0.00    -0.379 OA
ATOM     17  H   UNL     1     -36.395  27.275   2.335  0.00  0.00    +0.211 HD
ENDBRANCH  12  16
BRANCH  13  18
ATOM     18  O   UNL     1     -37.075  24.538   0.906  0.00  0.00    -0.377 OA
ATOM     19  H   UNL     1     -36.206  24.968   0.962  0.00  0.00    +0.211 HD
ENDBRANCH  13  18
BRANCH  14  20
ATOM     20  O   UNL     1     -38.599  25.023   4.138  0.00  0.00    -0.379 OA
ATOM     21  H   UNL     1     -39.140  24.267   3.862  0.00  0.00    +0.211 HD
ENDBRANCH  14  20
BRANCH  10  22
ATOM     22  C   UNL     1     -34.030  25.236   4.556  0.00  0.00    +0.169 C 
BRANCH  22  23
ATOM     23  O   UNL     1     -34.247  26.433   5.282  0.00  0.00    -0.379 OA
ATOM     24  H   UNL     1     -35.200  26.603   5.347  0.00  0.00    +0.211 HD
ENDBRANCH  22  23
ENDBRANCH  10  22
ENDBRANCH   2  11
BRANCH   5  25
ATOM     25  C   UNL     1     -33.689  19.138   1.657  0.00  0.00    +0.054 C 
BRANCH  25  27
ATOM     26  F   UNL     1     -29.247  18.377  -0.228  0.00  0.00    -0.201 F 
ATOM     27  C   UNL     1     -32.537  19.561   0.769  0.00  0.00    -0.015 C 
ATOM     28  C   UNL     1     -31.399  18.761   0.675  0.00  0.00    +0.029 C 
ATOM     29  C   UNL     1     -32.615  20.751   0.047  0.00  0.00    -0.001 C 
ATOM     30  C   UNL     1     -30.339  19.150  -0.142  0.00  0.00    +0.174 C 
ATOM     31  C   UNL     1     -31.555  21.141  -0.771  0.00  0.00    +0.039 C 
ATOM     32  C   UNL     1     -30.416  20.341  -0.865  0.00  0.00    +0.166 C 
BRANCH  32  33
ATOM     33  O   UNL     1     -29.381  20.723  -1.663  0.00  0.00    -0.473 OA
BRANCH  33  34
ATOM     34  C   UNL     1     -28.576  21.809  -1.205  0.00  0.00    +0.206 C 
ATOM     35  C   UNL     1     -27.434  21.259  -0.377  0.00  0.00    +0.051 C 
ENDBRANCH  33  34
ENDBRANCH  32  33
ENDBRANCH  25  27
ENDBRANCH   5  25
TORSDOF 10
ENDMDL
MODEL 8
REMARK VINA RESULT:      -6.2      2.968      8.715
REMARK  Name = 56832738
REMARK  10 active torsions:
REMARK  status: ('A' for Active; 'I' for Inactive)
REMARK    1  A    between atoms: C_2  and  C_11
REMARK    2  A    between atoms: C_5  and  C_25
REMARK    3  A    between atoms: C_10  and  C_22
REMARK    4  A    between atoms: C_12  and  O_16
REMARK    5  A    between atoms: C_13  and  O_18
REMARK    6  A    between atoms: C_14  and  O_20
REMARK    7  A    between atoms: C_22  and  O_23
REMARK    8  A    between atoms: C_25  and  C_27
REMARK    9  A    between atoms: C_32  and  O_33
REMARK   10  A    between atoms: O_33  and  C_34
REMARK                            x       y       z     vdW  Elec       q    Type
REMARK                         _______ _______ _______ _____ _____    ______ ____
ROOT
ATOM      1 CL   UNL     1     -38.248  24.253   3.346  0.00  0.00    -0.083 Cl
ATOM      2  C   UNL     1     -35.991  20.986   1.197  0.00  0.00    +0.031 C 
ATOM      3  C   UNL     1     -35.568  21.397   2.461  0.00  0.00    -0.003 C 
ATOM      4  C   UNL     1     -37.106  21.582   0.607  0.00  0.00    +0.001 C 
ATOM      5  C   UNL     1     -36.258  22.405   3.134  0.00  0.00    -0.007 C 
ATOM      6  C   UNL     1     -37.796  22.590   1.280  0.00  0.00    +0.011 C 
ATOM      7  C   UNL     1     -37.372  23.002   2.544  0.00  0.00    +0.054 C 
ENDROOT
BRANCH   2  11
ATOM      8  O   UNL     1     -34.440  19.093   1.359  0.00  0.00    -0.326 OA
ATOM      9  O   UNL     1     -34.345  20.478  -0.503  0.00  0.00    -0.326 OA
ATOM     10  C   UNL     1     -33.436  18.561   0.485  0.00  0.00    +0.176 C 
ATOM     11  C   UNL     1     -35.242  19.890   0.465  0.00  0.00    +0.235 C 
ATOM     12  C   UNL     1     -34.093  17.432  -0.350  0.00  0.00    +0.169 C 
ATOM     13  C   UNL     1     -36.179  18.916  -0.286  0.00  0.00    +0.196 C 
ATOM     14  C   UNL     1     -35.372  17.877  -1.091  0.00  0.00    +0.172 C 
ATOM     15  C   UNL     1     -33.092  19.802  -0.325  0.00  0.00    +0.177 C 
BRANCH  12  16
ATOM     16  O   UNL     1     -34.441  16.364   0.536  0.00  0.00    -0.379 OA
ATOM     17  H   UNL     1     -34.741  16.731   1.383  0.00  0.00    +0.211 HD
ENDBRANCH  12  16
BRANCH  13  18
ATOM     18  O   UNL     1     -37.010  18.230   0.649  0.00  0.00    -0.377 OA
ATOM     19  H   UNL     1     -37.058  17.291   0.410  0.00  0.00    +0.211 HD
ENDBRANCH  13  18
BRANCH  14  20
ATOM     20  O   UNL     1     -35.012  18.461  -2.343  0.00  0.00    -0.379 OA
ATOM     21  H   UNL     1     -35.477  18.002  -3.060  0.00  0.00    +0.211 HD
ENDBRANCH  14  20
BRANCH  10  22
ATOM     22  C   UNL     1     -32.255  18.065   1.309  0.00  0.00    +0.169 C 
BRANCH  22  23
ATOM     23  O   UNL     1     -31.729  16.904   0.690  0.00  0.00    -0.379 OA
ATOM     24  H   UNL     1     -32.411  16.499   0.130  0.00  0.00    +0.211 HD
ENDBRANCH  22  23
ENDBRANCH  10  22
ENDBRANCH   2  11
BRANCH   5  25
ATOM     25  C   UNL     1     -35.771  22.818   4.485  0.00  0.00    +0.054 C 
BRANCH  25  27
ATOM     26  F   UNL     1     -33.803  26.595   6.877  0.00  0.00    -0.201 F 
ATOM     27  C   UNL     1     -35.042  24.145   4.494  0.00  0.00    -0.015 C 
ATOM     28  C   UNL     1     -34.751  24.774   5.704  0.00  0.00    +0.029 C 
ATOM     29  C   UNL     1     -34.663  24.739   3.290  0.00  0.00    -0.001 C 
ATOM     30  C   UNL     1     -34.080  25.996   5.711  0.00  0.00    +0.174 C 
ATOM     31  C   UNL     1     -33.992  25.961   3.297  0.00  0.00    +0.039 C 
ATOM     32  C   UNL     1     -33.701  26.590   4.507  0.00  0.00    +0.166 C 
BRANCH  32  33
ATOM     33  O   UNL     1     -33.046  27.784   4.513  0.00  0.00    -0.473 OA
BRANCH  33  34
ATOM     34  C   UNL     1     -32.183  28.055   3.409  0.00  0.00    +0.206 C 
ATOM     35  C   UNL     1     -30.799  28.373   3.933  0.00  0.00    +0.051 C 
ENDBRANCH  33  34
ENDBRANCH  32  33
ENDBRANCH  25  27
ENDBRANCH   5  25
TORSDOF 10
ENDMDL
MODEL 9
REMARK VINA RESULT:      -6.1      4.726      7.374
REMARK  Name = 56832738
REMARK  10 active torsions:
REMARK  status: ('A' for Active; 'I' for Inactive)
REMARK    1  A    between atoms: C_2  and  C_11
REMARK    2  A    between atoms: C_5  and  C_25
REMARK    3  A    between atoms: C_10  and  C_22
REMARK    4  A    between atoms: C_12  and  O_16
REMARK    5  A    between atoms: C_13  and  O_18
REMARK    6  A    between atoms: C_14  and  O_20
REMARK    7  A    between atoms: C_22  and  O_23
REMARK    8  A    between atoms: C_25  and  C_27
REMARK    9  A    between atoms: C_32  and  O_33
REMARK   10  A    between atoms: O_33  and  C_34
REMARK                            x       y       z     vdW  Elec       q    Type
REMARK                         _______ _______ _______ _____ _____    ______ ____
ROOT
ATOM      1 CL   UNL     1     -34.547  20.737  -2.410  0.00  0.00    -0.083 Cl
ATOM      2  C   UNL     1     -35.710  23.061   1.282  0.00  0.00    +0.031 C 
ATOM      3  C   UNL     1     -34.361  22.870   0.988  0.00  0.00    -0.003 C 
ATOM      4  C   UNL     1     -36.690  22.538   0.438  0.00  0.00    +0.001 C 
ATOM      5  C   UNL     1     -33.990  22.153  -0.150  0.00  0.00    -0.007 C 
ATOM      6  C   UNL     1     -36.319  21.822  -0.700  0.00  0.00    +0.011 C 
ATOM      7  C   UNL     1     -34.969  21.630  -0.995  0.00  0.00    +0.054 C 
ENDROOT
BRANCH   2  11
ATOM      8  O   UNL     1     -34.988  24.493   3.138  0.00  0.00    -0.326 OA
ATOM      9  O   UNL     1     -36.676  22.939   3.499  0.00  0.00    -0.326 OA
ATOM     10  C   UNL     1     -35.427  24.650   4.493  0.00  0.00    +0.176 C 
ATOM     11  C   UNL     1     -36.114  23.840   2.518  0.00  0.00    +0.235 C 
ATOM     12  C   UNL     1     -36.451  25.814   4.523  0.00  0.00    +0.169 C 
ATOM     13  C   UNL     1     -37.164  24.936   2.226  0.00  0.00    +0.196 C 
ATOM     14  C   UNL     1     -37.613  25.638   3.523  0.00  0.00    +0.172 C 
ATOM     15  C   UNL     1     -36.046  23.282   4.741  0.00  0.00    +0.177 C 
BRANCH  12  16
ATOM     16  O   UNL     1     -35.762  27.025   4.196  0.00  0.00    -0.379 OA
ATOM     17  H   UNL     1     -35.713  27.592   4.981  0.00  0.00    +0.211 HD
ENDBRANCH  12  16
BRANCH  13  18
ATOM     18  O   UNL     1     -36.608  25.911   1.344  0.00  0.00    -0.377 OA
ATOM     19  H   UNL     1     -36.992  26.781   1.540  0.00  0.00    +0.211 HD
ENDBRANCH  13  18
BRANCH  14  20
ATOM     20  O   UNL     1     -38.639  24.849   4.128  0.00  0.00    -0.379 OA
ATOM     21  H   UNL     1     -38.281  24.395   4.906  0.00  0.00    +0.211 HD
ENDBRANCH  14  20
BRANCH  10  22
ATOM     22  C   UNL     1     -34.223  24.908   5.391  0.00  0.00    +0.169 C 
BRANCH  22  23
ATOM     23  O   UNL     1     -33.203  25.512   4.615  0.00  0.00    -0.379 OA
ATOM     24  H   UNL     1     -33.120  26.447   4.862  0.00  0.00    +0.211 HD
ENDBRANCH  22  23
ENDBRANCH  10  22
ENDBRANCH   2  11
BRANCH   5  25
ATOM     25  C   UNL     1     -32.533  21.968  -0.429  0.00  0.00    +0.054 C 
BRANCH  25  27
ATOM     26  F   UNL     1     -29.026  18.569  -0.509  0.00  0.00    -0.201 F 
ATOM     27  C   UNL     1     -32.007  20.599  -0.052  0.00  0.00    -0.015 C 
ATOM     28  C   UNL     1     -30.734  20.204  -0.461  0.00  0.00    +0.029 C 
ATOM     29  C   UNL     1     -32.798  19.733   0.703  0.00  0.00    -0.001 C 
ATOM     30  C   UNL     1     -30.250  18.943  -0.113  0.00  0.00    +0.174 C 
ATOM     31  C   UNL     1     -32.314  18.473   1.051  0.00  0.00    +0.039 C 
ATOM     32  C   UNL     1     -31.041  18.077   0.642  0.00  0.00    +0.166 C 
BRANCH  32  33
ATOM     33  O   UNL     1     -30.570  16.845   0.982  0.00  0.00    -0.473 OA
BRANCH  33  34
ATOM     34  C   UNL     1     -30.397  15.903  -0.076  0.00  0.00    +0.206 C 
ATOM     35  C   UNL     1     -31.702  15.167  -0.297  0.00  0.00    +0.051 C 
ENDBRANCH  33  34
ENDBRANCH  32  33
ENDBRANCH  25  27
ENDBRANCH   5  25
TORSDOF 10
ENDMDL
