MODEL 1
REMARK VINA RESULT:      -6.6      0.000      0.000
REMARK  Name = 57391548
REMARK  10 active torsions:
REMARK  status: ('A' for Active; 'I' for Inactive)
REMARK    1  A    between atoms: C_2  and  O_7
REMARK    2  A    between atoms: C_3  and  O_9
REMARK    3  A    between atoms: C_4  and  O_11
REMARK    4  A    between atoms: C_5  and  C_27
REMARK    5  A    between atoms: C_6  and  O_13
REMARK    6  A    between atoms: O_13  and  C_14
REMARK    7  A    between atoms: C_17  and  C_22
REMARK    8  A    between atoms: C_18  and  O_20
REMARK    9  A    between atoms: C_22  and  C_23
REMARK   10  A    between atoms: C_27  and  O_28
REMARK                            x       y       z     vdW  Elec       q    Type
REMARK                         _______ _______ _______ _____ _____    ______ ____
ROOT
ATOM      1  O   UNL     1     -33.817  27.067   5.023  0.00  0.00    -0.316 OA
ATOM      2  C   UNL     1     -33.307  28.547   2.615  0.00  0.00    +0.173 C 
ATOM      3  C   UNL     1     -32.715  28.949   3.967  0.00  0.00    +0.169 C 
ATOM      4  C   UNL     1     -34.556  27.684   2.794  0.00  0.00    +0.210 C 
ATOM      5  C   UNL     1     -32.559  27.727   4.876  0.00  0.00    +0.177 C 
ATOM      6  C   UNL     1     -34.311  26.550   3.789  0.00  0.00    +0.318 C 
ENDROOT
BRANCH   2   7
ATOM      7  O   UNL     1     -33.651  29.742   1.912  0.00  0.00    -0.379 OA
ATOM      8  H   UNL     1     -34.216  29.521   1.155  0.00  0.00    +0.211 HD
ENDBRANCH   2   7
BRANCH   3   9
ATOM      9  O   UNL     1     -31.438  29.549   3.761  0.00  0.00    -0.379 OA
ATOM     10  H   UNL     1     -30.987  29.650   4.614  0.00  0.00    +0.211 HD
ENDBRANCH   3   9
BRANCH   4  11
ATOM     11  O   UNL     1     -34.917  27.107   1.539  0.00  0.00    -0.377 OA
ATOM     12  H   UNL     1     -35.213  27.806   0.935  0.00  0.00    +0.211 HD
ENDBRANCH   4  11
BRANCH   6  13
ATOM     13  O   UNL     1     -35.553  25.882   4.009  0.00  0.00    -0.451 OA
BRANCH  13  14
ATOM     14  C   UNL     1     -35.482  24.572   4.400  0.00  0.00    +0.141 C 
ATOM     15  C   UNL     1     -35.593  23.554   3.452  0.00  0.00    +0.036 C 
ATOM     16  C   UNL     1     -35.299  24.255   5.746  0.00  0.00    +0.040 C 
ATOM     17  C   UNL     1     -35.521  22.220   3.851  0.00  0.00    +0.019 C 
ATOM     18  C   UNL     1     -35.338  21.903   5.197  0.00  0.00    +0.130 C 
ATOM     19  C   UNL     1     -35.227  22.921   6.145  0.00  0.00    +0.039 C 
BRANCH  18  20
ATOM     20  O   UNL     1     -35.265  20.604   5.603  0.00  0.00    -0.506 OA
ATOM     21  H   UNL     1     -34.944  20.399   6.460  0.00  0.00    +0.292 HD
ENDBRANCH  18  20
BRANCH  17  22
ATOM     22  C   UNL     1     -35.641  21.144   2.823  0.00  0.00    +0.055 C 
BRANCH  22  23
ATOM     23  C   UNL     1     -34.821  21.418   1.588  0.00  0.00    -0.030 C 
ATOM     24  C   UNL     1     -33.957  20.593   0.964  0.00  0.00    -0.048 C 
ATOM     25  C   UNL     1     -33.705  19.209   1.500  0.00  0.00    +0.026 C 
ATOM     26  C   UNL     1     -33.169  20.933  -0.269  0.00  0.00    +0.026 C 
ENDBRANCH  22  23
ENDBRANCH  17  22
ENDBRANCH  13  14
ENDBRANCH   6  13
BRANCH   5  27
ATOM     27  C   UNL     1     -32.079  28.119   6.270  0.00  0.00    +0.169 C 
BRANCH  27  28
ATOM     28  O   UNL     1     -32.193  26.992   7.119  0.00  0.00    -0.379 OA
ATOM     29  H   UNL     1     -32.443  27.282   8.010  0.00  0.00    +0.211 HD
ENDBRANCH  27  28
ENDBRANCH   5  27
TORSDOF 10
ENDMDL
MODEL 2
REMARK VINA RESULT:      -6.4      2.785      7.470
REMARK  Name = 57391548
REMARK  10 active torsions:
REMARK  status: ('A' for Active; 'I' for Inactive)
REMARK    1  A    between atoms: C_2  and  O_7
REMARK    2  A    between atoms: C_3  and  O_9
REMARK    3  A    between atoms: C_4  and  O_11
REMARK    4  A    between atoms: C_5  and  C_27
REMARK    5  A    between atoms: C_6  and  O_13
REMARK    6  A    between atoms: O_13  and  C_14
REMARK    7  A    between atoms: C_17  and  C_22
REMARK    8  A    between atoms: C_18  and  O_20
REMARK    9  A    between atoms: C_22  and  C_23
REMARK   10  A    between atoms: C_27  and  O_28
REMARK                            x       y       z     vdW  Elec       q    Type
REMARK                         _______ _______ _______ _____ _____    ______ ____
ROOT
ATOM      1  O   UNL     1     -36.742  23.352   2.355  0.00  0.00    -0.316 OA
ATOM      2  C   UNL     1     -39.608  23.359   2.538  0.00  0.00    +0.173 C 
ATOM      3  C   UNL     1     -38.825  22.179   1.960  0.00  0.00    +0.169 C 
ATOM      4  C   UNL     1     -38.791  24.650   2.474  0.00  0.00    +0.210 C 
ATOM      5  C   UNL     1     -37.420  22.112   2.563  0.00  0.00    +0.177 C 
ATOM      6  C   UNL     1     -37.379  24.441   3.019  0.00  0.00    +0.318 C 
ENDROOT
BRANCH   2   7
ATOM      7  O   UNL     1     -40.804  23.513   1.773  0.00  0.00    -0.379 OA
ATOM      8  H   UNL     1     -41.435  24.060   2.265  0.00  0.00    +0.211 HD
ENDBRANCH   2   7
BRANCH   3   9
ATOM      9  O   UNL     1     -39.519  20.968   2.247  0.00  0.00    -0.379 OA
ATOM     10  H   UNL     1     -40.390  21.175   2.624  0.00  0.00    +0.211 HD
ENDBRANCH   3   9
BRANCH   4  11
ATOM     11  O   UNL     1     -39.430  25.654   3.260  0.00  0.00    -0.377 OA
ATOM     12  H   UNL     1     -38.962  25.750   4.105  0.00  0.00    +0.211 HD
ENDBRANCH   4  11
BRANCH   6  13
ATOM     13  O   UNL     1     -36.640  25.642   2.795  0.00  0.00    -0.451 OA
BRANCH  13  14
ATOM     14  C   UNL     1     -35.662  25.938   3.705  0.00  0.00    +0.141 C 
ATOM     15  C   UNL     1     -34.531  26.653   3.306  0.00  0.00    +0.036 C 
ATOM     16  C   UNL     1     -35.795  25.526   5.031  0.00  0.00    +0.040 C 
ATOM     17  C   UNL     1     -33.535  26.954   4.235  0.00  0.00    +0.019 C 
ATOM     18  C   UNL     1     -33.668  26.543   5.560  0.00  0.00    +0.130 C 
ATOM     19  C   UNL     1     -34.799  25.828   5.959  0.00  0.00    +0.039 C 
BRANCH  18  20
ATOM     20  O   UNL     1     -32.705  26.830   6.480  0.00  0.00    -0.506 OA
ATOM     21  H   UNL     1     -32.872  26.693   7.392  0.00  0.00    +0.292 HD
ENDBRANCH  18  20
BRANCH  17  22
ATOM     22  C   UNL     1     -32.332  27.720   3.791  0.00  0.00    +0.055 C 
BRANCH  22  23
ATOM     23  C   UNL     1     -32.676  29.072   3.218  0.00  0.00    -0.030 C 
ATOM     24  C   UNL     1     -32.617  30.272   3.829  0.00  0.00    -0.048 C 
ATOM     25  C   UNL     1     -32.176  30.374   5.265  0.00  0.00    +0.026 C 
ATOM     26  C   UNL     1     -32.976  31.586   3.195  0.00  0.00    +0.026 C 
ENDBRANCH  22  23
ENDBRANCH  17  22
ENDBRANCH  13  14
ENDBRANCH   6  13
BRANCH   5  27
ATOM     27  C   UNL     1     -36.581  21.015   1.916  0.00  0.00    +0.169 C 
BRANCH  27  28
ATOM     28  O   UNL     1     -36.760  19.818   2.651  0.00  0.00    -0.379 OA
ATOM     29  H   UNL     1     -36.054  19.191   2.425  0.00  0.00    +0.211 HD
ENDBRANCH  27  28
ENDBRANCH   5  27
TORSDOF 10
ENDMDL
MODEL 3
REMARK VINA RESULT:      -6.3      2.831      4.836
REMARK  Name = 57391548
REMARK  10 active torsions:
REMARK  status: ('A' for Active; 'I' for Inactive)
REMARK    1  A    between atoms: C_2  and  O_7
REMARK    2  A    between atoms: C_3  and  O_9
REMARK    3  A    between atoms: C_4  and  O_11
REMARK    4  A    between atoms: C_5  and  C_27
REMARK    5  A    between atoms: C_6  and  O_13
REMARK    6  A    between atoms: O_13  and  C_14
REMARK    7  A    between atoms: C_17  and  C_22
REMARK    8  A    between atoms: C_18  and  O_20
REMARK    9  A    between atoms: C_22  and  C_23
REMARK   10  A    between atoms: C_27  and  O_28
REMARK                            x       y       z     vdW  Elec       q    Type
REMARK                         _______ _______ _______ _____ _____    ______ ____
ROOT
ATOM      1  O   UNL     1     -36.759  22.860   4.547  0.00  0.00    -0.316 OA
ATOM      2  C   UNL     1     -35.893  25.586   4.281  0.00  0.00    +0.173 C 
ATOM      3  C   UNL     1     -35.453  24.694   5.443  0.00  0.00    +0.169 C 
ATOM      4  C   UNL     1     -37.192  25.077   3.655  0.00  0.00    +0.210 C 
ATOM      5  C   UNL     1     -35.464  23.220   5.031  0.00  0.00    +0.177 C 
ATOM      6  C   UNL     1     -37.121  23.578   3.369  0.00  0.00    +0.318 C 
ENDROOT
BRANCH   2   7
ATOM      7  O   UNL     1     -36.094  26.905   4.788  0.00  0.00    -0.379 OA
ATOM      8  H   UNL     1     -35.266  27.407   4.725  0.00  0.00    +0.211 HD
ENDBRANCH   2   7
BRANCH   3   9
ATOM      9  O   UNL     1     -34.135  25.061   5.844  0.00  0.00    -0.379 OA
ATOM     10  H   UNL     1     -33.779  24.384   6.441  0.00  0.00    +0.211 HD
ENDBRANCH   3   9
BRANCH   4  11
ATOM     11  O   UNL     1     -37.421  25.758   2.421  0.00  0.00    -0.377 OA
ATOM     12  H   UNL     1     -38.371  25.924   2.316  0.00  0.00    +0.211 HD
ENDBRANCH   4  11
BRANCH   6  13
ATOM     13  O   UNL     1     -38.409  23.154   2.923  0.00  0.00    -0.451 OA
BRANCH  13  14
ATOM     14  C   UNL     1     -38.435  22.179   1.963  0.00  0.00    +0.141 C 
ATOM     15  C   UNL     1     -37.330  21.345   1.786  0.00  0.00    +0.036 C 
ATOM     16  C   UNL     1     -39.565  22.019   1.162  0.00  0.00    +0.040 C 
ATOM     17  C   UNL     1     -37.356  20.352   0.808  0.00  0.00    +0.019 C 
ATOM     18  C   UNL     1     -38.487  20.191   0.007  0.00  0.00    +0.130 C 
ATOM     19  C   UNL     1     -39.592  21.025   0.183  0.00  0.00    +0.039 C 
BRANCH  18  20
ATOM     20  O   UNL     1     -38.529  19.225  -0.953  0.00  0.00    -0.506 OA
ATOM     21  H   UNL     1     -37.938  19.259  -1.679  0.00  0.00    +0.292 HD
ENDBRANCH  18  20
BRANCH  17  22
ATOM     22  C   UNL     1     -36.166  19.469   0.633  0.00  0.00    +0.055 C 
BRANCH  22  23
ATOM     23  C   UNL     1     -34.928  20.227   0.222  0.00  0.00    -0.030 C 
ATOM     24  C   UNL     1     -33.646  19.960   0.540  0.00  0.00    -0.048 C 
ATOM     25  C   UNL     1     -33.310  18.784   1.420  0.00  0.00    +0.026 C 
ATOM     26  C   UNL     1     -32.457  20.761   0.094  0.00  0.00    +0.026 C 
ENDBRANCH  22  23
ENDBRANCH  17  22
ENDBRANCH  13  14
ENDBRANCH   6  13
BRANCH   5  27
ATOM     27  C   UNL     1     -35.142  22.303   6.207  0.00  0.00    +0.169 C 
BRANCH  27  28
ATOM     28  O   UNL     1     -35.310  20.961   5.790  0.00  0.00    -0.379 OA
ATOM     29  H   UNL     1     -35.839  20.938   4.977  0.00  0.00    +0.211 HD
ENDBRANCH  27  28
ENDBRANCH   5  27
TORSDOF 10
ENDMDL
MODEL 4
REMARK VINA RESULT:      -6.3      3.322      5.178
REMARK  Name = 57391548
REMARK  10 active torsions:
REMARK  status: ('A' for Active; 'I' for Inactive)
REMARK    1  A    between atoms: C_2  and  O_7
REMARK    2  A    between atoms: C_3  and  O_9
REMARK    3  A    between atoms: C_4  and  O_11
REMARK    4  A    between atoms: C_5  and  C_27
REMARK    5  A    between atoms: C_6  and  O_13
REMARK    6  A    between atoms: O_13  and  C_14
REMARK    7  A    between atoms: C_17  and  C_22
REMARK    8  A    between atoms: C_18  and  O_20
REMARK    9  A    between atoms: C_22  and  C_23
REMARK   10  A    between atoms: C_27  and  O_28
REMARK                            x       y       z     vdW  Elec       q    Type
REMARK                         _______ _______ _______ _____ _____    ______ ____
ROOT
ATOM      1  O   UNL     1     -36.556  22.502   4.086  0.00  0.00    -0.316 OA
ATOM      2  C   UNL     1     -37.162  25.231   3.428  0.00  0.00    +0.173 C 
ATOM      3  C   UNL     1     -36.598  24.821   4.789  0.00  0.00    +0.169 C 
ATOM      4  C   UNL     1     -37.846  24.053   2.734  0.00  0.00    +0.210 C 
ATOM      5  C   UNL     1     -35.768  23.541   4.669  0.00  0.00    +0.177 C 
ATOM      6  C   UNL     1     -36.962  22.806   2.753  0.00  0.00    +0.318 C 
ENDROOT
BRANCH   2   7
ATOM      7  O   UNL     1     -38.112  26.276   3.640  0.00  0.00    -0.379 OA
ATOM      8  H   UNL     1     -38.904  26.106   3.107  0.00  0.00    +0.211 HD
ENDBRANCH   2   7
BRANCH   3   9
ATOM      9  O   UNL     1     -35.776  25.870   5.293  0.00  0.00    -0.379 OA
ATOM     10  H   UNL     1     -34.888  25.799   4.909  0.00  0.00    +0.211 HD
ENDBRANCH   3   9
BRANCH   4  11
ATOM     11  O   UNL     1     -38.111  24.393   1.374  0.00  0.00    -0.377 OA
ATOM     12  H   UNL     1     -38.245  25.351   1.300  0.00  0.00    +0.211 HD
ENDBRANCH   4  11
BRANCH   6  13
ATOM     13  O   UNL     1     -37.721  21.721   2.220  0.00  0.00    -0.451 OA
BRANCH  13  14
ATOM     14  C   UNL     1     -37.033  20.801   1.476  0.00  0.00    +0.141 C 
ATOM     15  C   UNL     1     -35.722  20.468   1.817  0.00  0.00    +0.036 C 
ATOM     16  C   UNL     1     -37.644  20.196   0.378  0.00  0.00    +0.040 C 
ATOM     17  C   UNL     1     -35.022  19.530   1.058  0.00  0.00    +0.019 C 
ATOM     18  C   UNL     1     -35.632  18.925  -0.039  0.00  0.00    +0.130 C 
ATOM     19  C   UNL     1     -36.944  19.257  -0.380  0.00  0.00    +0.039 C 
BRANCH  18  20
ATOM     20  O   UNL     1     -34.963  18.006  -0.791  0.00  0.00    -0.506 OA
ATOM     21  H   UNL     1     -34.826  18.158  -1.705  0.00  0.00    +0.292 HD
ENDBRANCH  18  20
BRANCH  17  22
ATOM     22  C   UNL     1     -33.619  19.186   1.437  0.00  0.00    +0.055 C 
BRANCH  22  23
ATOM     23  C   UNL     1     -32.592  19.909   0.603  0.00  0.00    -0.030 C 
ATOM     24  C   UNL     1     -31.369  19.479   0.234  0.00  0.00    -0.048 C 
ATOM     25  C   UNL     1     -30.875  18.125   0.671  0.00  0.00    +0.026 C 
ATOM     26  C   UNL     1     -30.392  20.255  -0.602  0.00  0.00    +0.026 C 
ENDBRANCH  22  23
ENDBRANCH  17  22
ENDBRANCH  13  14
ENDBRANCH   6  13
BRANCH   5  27
ATOM     27  C   UNL     1     -35.292  23.047   6.032  0.00  0.00    +0.169 C 
BRANCH  27  28
ATOM     28  O   UNL     1     -36.058  21.912   6.392  0.00  0.00    -0.379 OA
ATOM     29  H   UNL     1     -36.316  21.429   5.591  0.00  0.00    +0.211 HD
ENDBRANCH  27  28
ENDBRANCH   5  27
TORSDOF 10
ENDMDL
MODEL 5
REMARK VINA RESULT:      -6.2      1.893      3.622
REMARK  Name = 57391548
REMARK  10 active torsions:
REMARK  status: ('A' for Active; 'I' for Inactive)
REMARK    1  A    between atoms: C_2  and  O_7
REMARK    2  A    between atoms: C_3  and  O_9
REMARK    3  A    between atoms: C_4  and  O_11
REMARK    4  A    between atoms: C_5  and  C_27
REMARK    5  A    between atoms: C_6  and  O_13
REMARK    6  A    between atoms: O_13  and  C_14
REMARK    7  A    between atoms: C_17  and  C_22
REMARK    8  A    between atoms: C_18  and  O_20
REMARK    9  A    between atoms: C_22  and  C_23
REMARK   10  A    between atoms: C_27  and  O_28
REMARK                            x       y       z     vdW  Elec       q    Type
REMARK                         _______ _______ _______ _____ _____    ______ ____
ROOT
ATOM      1  O   UNL     1     -32.313  28.321   3.911  0.00  0.00    -0.316 OA
ATOM      2  C   UNL     1     -31.762  29.298   6.555  0.00  0.00    +0.173 C 
ATOM      3  C   UNL     1     -31.321  30.044   5.295  0.00  0.00    +0.169 C 
ATOM      4  C   UNL     1     -31.997  27.815   6.265  0.00  0.00    +0.210 C 
ATOM      5  C   UNL     1     -32.254  29.732   4.124  0.00  0.00    +0.177 C 
ATOM      6  C   UNL     1     -32.867  27.622   5.024  0.00  0.00    +0.318 C 
ENDROOT
BRANCH   2   7
ATOM      7  O   UNL     1     -30.730  29.434   7.533  0.00  0.00    -0.379 OA
ATOM      8  H   UNL     1     -29.893  29.108   7.168  0.00  0.00    +0.211 HD
ENDBRANCH   2   7
BRANCH   3   9
ATOM      9  O   UNL     1     -31.338  31.447   5.550  0.00  0.00    -0.379 OA
ATOM     10  H   UNL     1     -31.895  31.889   4.889  0.00  0.00    +0.211 HD
ENDBRANCH   3   9
BRANCH   4  11
ATOM     11  O   UNL     1     -32.663  27.215   7.376  0.00  0.00    -0.377 OA
ATOM     12  H   UNL     1     -32.876  27.897   8.031  0.00  0.00    +0.211 HD
ENDBRANCH   4  11
BRANCH   6  13
ATOM     13  O   UNL     1     -32.921  26.225   4.738  0.00  0.00    -0.451 OA
BRANCH  13  14
ATOM     14  C   UNL     1     -34.164  25.690   4.531  0.00  0.00    +0.141 C 
ATOM     15  C   UNL     1     -34.398  24.342   4.803  0.00  0.00    +0.036 C 
ATOM     16  C   UNL     1     -35.197  26.493   4.047  0.00  0.00    +0.040 C 
ATOM     17  C   UNL     1     -35.664  23.798   4.592  0.00  0.00    +0.019 C 
ATOM     18  C   UNL     1     -36.697  24.600   4.109  0.00  0.00    +0.130 C 
ATOM     19  C   UNL     1     -36.463  25.949   3.836  0.00  0.00    +0.039 C 
BRANCH  18  20
ATOM     20  O   UNL     1     -37.940  24.085   3.898  0.00  0.00    -0.506 OA
ATOM     21  H   UNL     1     -38.086  23.487   3.191  0.00  0.00    +0.292 HD
ENDBRANCH  18  20
BRANCH  17  22
ATOM     22  C   UNL     1     -35.896  22.353   4.890  0.00  0.00    +0.055 C 
BRANCH  22  23
ATOM     23  C   UNL     1     -35.134  21.434   3.968  0.00  0.00    -0.030 C 
ATOM     24  C   UNL     1     -35.519  20.954   2.769  0.00  0.00    -0.048 C 
ATOM     25  C   UNL     1     -36.866  21.316   2.201  0.00  0.00    +0.026 C 
ATOM     26  C   UNL     1     -34.705  20.038   1.900  0.00  0.00    +0.026 C 
ENDBRANCH  22  23
ENDBRANCH  17  22
ENDBRANCH  13  14
ENDBRANCH   6  13
BRANCH   5  27
ATOM     27  C   UNL     1     -31.767  30.372   2.827  0.00  0.00    +0.169 C 
BRANCH  27  28
ATOM     28  O   UNL     1     -32.158  31.733   2.823  0.00  0.00    -0.379 OA
ATOM     29  H   UNL     1     -31.984  32.117   1.949  0.00  0.00    +0.211 HD
ENDBRANCH  27  28
ENDBRANCH   5  27
TORSDOF 10
ENDMDL
MODEL 6
REMARK VINA RESULT:      -6.2      3.176      4.842
REMARK  Name = 57391548
REMARK  10 active torsions:
REMARK  status: ('A' for Active; 'I' for Inactive)
REMARK    1  A    between atoms: C_2  and  O_7
REMARK    2  A    between atoms: C_3  and  O_9
REMARK    3  A    between atoms: C_4  and  O_11
REMARK    4  A    between atoms: C_5  and  C_27
REMARK    5  A    between atoms: C_6  and  O_13
REMARK    6  A    between atoms: O_13  and  C_14
REMARK    7  A    between atoms: C_17  and  C_22
REMARK    8  A    between atoms: C_18  and  O_20
REMARK    9  A    between atoms: C_22  and  C_23
REMARK   10  A    between atoms: C_27  and  O_28
REMARK                            x       y       z     vdW  Elec       q    Type
REMARK                         _______ _______ _______ _____ _____    ______ ____
ROOT
ATOM      1  O   UNL     1     -36.736  26.453   1.509  0.00  0.00    -0.316 OA
ATOM      2  C   UNL     1     -39.581  26.162   1.769  0.00  0.00    +0.173 C 
ATOM      3  C   UNL     1     -38.940  27.021   0.678  0.00  0.00    +0.169 C 
ATOM      4  C   UNL     1     -38.630  25.967   2.949  0.00  0.00    +0.210 C 
ATOM      5  C   UNL     1     -37.542  26.504   0.331  0.00  0.00    +0.177 C 
ATOM      6  C   UNL     1     -37.240  25.538   2.478  0.00  0.00    +0.318 C 
ENDROOT
BRANCH   2   7
ATOM      7  O   UNL     1     -40.764  26.827   2.216  0.00  0.00    -0.379 OA
ATOM      8  H   UNL     1     -40.585  27.775   2.312  0.00  0.00    +0.211 HD
ENDBRANCH   2   7
BRANCH   3   9
ATOM      9  O   UNL     1     -39.758  26.986  -0.490  0.00  0.00    -0.379 OA
ATOM     10  H   UNL     1     -40.059  26.077  -0.647  0.00  0.00    +0.211 HD
ENDBRANCH   3   9
BRANCH   4  11
ATOM     11  O   UNL     1     -39.144  24.951   3.809  0.00  0.00    -0.377 OA
ATOM     12  H   UNL     1     -38.865  25.129   4.722  0.00  0.00    +0.211 HD
ENDBRANCH   4  11
BRANCH   6  13
ATOM     13  O   UNL     1     -36.378  25.515   3.616  0.00  0.00    -0.451 OA
BRANCH  13  14
ATOM     14  C   UNL     1     -36.031  24.282   4.097  0.00  0.00    +0.141 C 
ATOM     15  C   UNL     1     -35.952  23.192   3.229  0.00  0.00    +0.036 C 
ATOM     16  C   UNL     1     -35.757  24.115   5.454  0.00  0.00    +0.040 C 
ATOM     17  C   UNL     1     -35.598  21.935   3.720  0.00  0.00    +0.019 C 
ATOM     18  C   UNL     1     -35.324  21.768   5.077  0.00  0.00    +0.130 C 
ATOM     19  C   UNL     1     -35.403  22.858   5.944  0.00  0.00    +0.039 C 
BRANCH  18  20
ATOM     20  O   UNL     1     -34.976  20.548   5.573  0.00  0.00    -0.506 OA
ATOM     21  H   UNL     1     -34.975  20.401   6.498  0.00  0.00    +0.292 HD
ENDBRANCH  18  20
BRANCH  17  22
ATOM     22  C   UNL     1     -35.519  20.780   2.777  0.00  0.00    +0.055 C 
BRANCH  22  23
ATOM     23  C   UNL     1     -34.696  21.080   1.550  0.00  0.00    -0.030 C 
ATOM     24  C   UNL     1     -33.787  20.291   0.945  0.00  0.00    -0.048 C 
ATOM     25  C   UNL     1     -33.480  18.924   1.497  0.00  0.00    +0.026 C 
ATOM     26  C   UNL     1     -33.000  20.655  -0.282  0.00  0.00    +0.026 C 
ENDBRANCH  22  23
ENDBRANCH  17  22
ENDBRANCH  13  14
ENDBRANCH   6  13
BRANCH   5  27
ATOM     27  C   UNL     1     -36.837  27.413  -0.671  0.00  0.00    +0.169 C 
BRANCH  27  28
ATOM     28  O   UNL     1     -37.390  27.184  -1.954  0.00  0.00    -0.379 OA
ATOM     29  H   UNL     1     -36.679  26.981  -2.582  0.00  0.00    +0.211 HD
ENDBRANCH  27  28
ENDBRANCH   5  27
TORSDOF 10
ENDMDL
MODEL 7
REMARK VINA RESULT:      -6.1      4.035      6.302
REMARK  Name = 57391548
REMARK  10 active torsions:
REMARK  status: ('A' for Active; 'I' for Inactive)
REMARK    1  A    between atoms: C_2  and  O_7
REMARK    2  A    between atoms: C_3  and  O_9
REMARK    3  A    between atoms: C_4  and  O_11
REMARK    4  A    between atoms: C_5  and  C_27
REMARK    5  A    between atoms: C_6  and  O_13
REMARK    6  A    between atoms: O_13  and  C_14
REMARK    7  A    between atoms: C_17  and  C_22
REMARK    8  A    between atoms: C_18  and  O_20
REMARK    9  A    between atoms: C_22  and  C_23
REMARK   10  A    between atoms: C_27  and  O_28
REMARK                            x       y       z     vdW  Elec       q    Type
REMARK                         _______ _______ _______ _____ _____    ______ ____
ROOT
ATOM      1  O   UNL     1     -38.895  23.610   1.452  0.00  0.00    -0.316 OA
ATOM      2  C   UNL     1     -41.022  25.473   1.959  0.00  0.00    +0.173 C 
ATOM      3  C   UNL     1     -41.109  24.405   0.868  0.00  0.00    +0.169 C 
ATOM      4  C   UNL     1     -39.569  25.776   2.322  0.00  0.00    +0.210 C 
ATOM      5  C   UNL     1     -40.242  23.194   1.223  0.00  0.00    +0.177 C 
ATOM      6  C   UNL     1     -38.778  24.491   2.568  0.00  0.00    +0.318 C 
ENDROOT
BRANCH   2   7
ATOM      7  O   UNL     1     -41.647  26.659   1.466  0.00  0.00    -0.379 OA
ATOM      8  H   UNL     1     -41.002  27.383   1.455  0.00  0.00    +0.211 HD
ENDBRANCH   2   7
BRANCH   3   9
ATOM      9  O   UNL     1     -42.464  23.988   0.724  0.00  0.00    -0.379 OA
ATOM     10  H   UNL     1     -42.518  23.288   0.054  0.00  0.00    +0.211 HD
ENDBRANCH   3   9
BRANCH   4  11
ATOM     11  O   UNL     1     -39.532  26.558   3.515  0.00  0.00    -0.377 OA
ATOM     12  H   UNL     1     -40.234  27.228   3.484  0.00  0.00    +0.211 HD
ENDBRANCH   4  11
BRANCH   6  13
ATOM     13  O   UNL     1     -37.409  24.848   2.759  0.00  0.00    -0.451 OA
BRANCH  13  14
ATOM     14  C   UNL     1     -36.674  24.036   3.580  0.00  0.00    +0.141 C 
ATOM     15  C   UNL     1     -36.276  22.773   3.138  0.00  0.00    +0.036 C 
ATOM     16  C   UNL     1     -36.321  24.472   4.857  0.00  0.00    +0.040 C 
ATOM     17  C   UNL     1     -35.527  21.947   3.975  0.00  0.00    +0.019 C 
ATOM     18  C   UNL     1     -35.174  22.382   5.252  0.00  0.00    +0.130 C 
ATOM     19  C   UNL     1     -35.571  23.645   5.693  0.00  0.00    +0.039 C 
BRANCH  18  20
ATOM     20  O   UNL     1     -34.442  21.588   6.082  0.00  0.00    -0.506 OA
ATOM     21  H   UNL     1     -34.575  20.660   6.080  0.00  0.00    +0.292 HD
ENDBRANCH  18  20
BRANCH  17  22
ATOM     22  C   UNL     1     -35.111  20.599   3.486  0.00  0.00    +0.055 C 
BRANCH  22  23
ATOM     23  C   UNL     1     -35.483  20.357   2.045  0.00  0.00    -0.030 C 
ATOM     24  C   UNL     1     -34.798  19.663   1.115  0.00  0.00    -0.048 C 
ATOM     25  C   UNL     1     -33.479  19.024   1.462  0.00  0.00    +0.026 C 
ATOM     26  C   UNL     1     -35.229  19.461  -0.309  0.00  0.00    +0.026 C 
ENDBRANCH  22  23
ENDBRANCH  17  22
ENDBRANCH  13  14
ENDBRANCH   6  13
BRANCH   5  27
ATOM     27  C   UNL     1     -40.220  22.166   0.096  0.00  0.00    +0.169 C 
BRANCH  27  28
ATOM     28  O   UNL     1     -41.105  21.113   0.430  0.00  0.00    -0.379 OA
ATOM     29  H   UNL     1     -40.870  20.320  -0.078  0.00  0.00    +0.211 HD
ENDBRANCH  27  28
ENDBRANCH   5  27
TORSDOF 10
ENDMDL
MODEL 8
REMARK VINA RESULT:      -6.1      2.132      3.914
REMARK  Name = 57391548
REMARK  10 active torsions:
REMARK  status: ('A' for Active; 'I' for Inactive)
REMARK    1  A    between atoms: C_2  and  O_7
REMARK    2  A    between atoms: C_3  and  O_9
REMARK    3  A    between atoms: C_4  and  O_11
REMARK    4  A    between atoms: C_5  and  C_27
REMARK    5  A    between atoms: C_6  and  O_13
REMARK    6  A    between atoms: O_13  and  C_14
REMARK    7  A    between atoms: C_17  and  C_22
REMARK    8  A    between atoms: C_18  and  O_20
REMARK    9  A    between atoms: C_22  and  C_23
REMARK   10  A    between atoms: C_27  and  O_28
REMARK                            x       y       z     vdW  Elec       q    Type
REMARK                         _______ _______ _______ _____ _____    ______ ____
ROOT
ATOM      1  O   UNL     1     -35.732  23.945   3.553  0.00  0.00    -0.316 OA
ATOM      2  C   UNL     1     -34.804  26.661   3.643  0.00  0.00    +0.173 C 
ATOM      3  C   UNL     1     -35.187  25.883   4.902  0.00  0.00    +0.169 C 
ATOM      4  C   UNL     1     -35.469  26.066   2.401  0.00  0.00    +0.210 C 
ATOM      5  C   UNL     1     -34.989  24.380   4.693  0.00  0.00    +0.177 C 
ATOM      6  C   UNL     1     -35.283  24.550   2.343  0.00  0.00    +0.318 C 
ENDROOT
BRANCH   2   7
ATOM      7  O   UNL     1     -35.234  28.013   3.811  0.00  0.00    -0.379 OA
ATOM      8  H   UNL     1     -35.182  28.477   2.961  0.00  0.00    +0.211 HD
ENDBRANCH   2   7
BRANCH   3   9
ATOM      9  O   UNL     1     -34.375  26.319   5.989  0.00  0.00    -0.379 OA
ATOM     10  H   UNL     1     -34.674  25.891   6.808  0.00  0.00    +0.211 HD
ENDBRANCH   3   9
BRANCH   4  11
ATOM     11  O   UNL     1     -34.881  26.634   1.231  0.00  0.00    -0.377 OA
ATOM     12  H   UNL     1     -34.717  25.934   0.580  0.00  0.00    +0.211 HD
ENDBRANCH   4  11
BRANCH   6  13
ATOM     13  O   UNL     1     -36.046  24.055   1.244  0.00  0.00    -0.451 OA
BRANCH  13  14
ATOM     14  C   UNL     1     -36.232  22.701   1.188  0.00  0.00    +0.141 C 
ATOM     15  C   UNL     1     -35.143  21.840   1.334  0.00  0.00    +0.036 C 
ATOM     16  C   UNL     1     -37.510  22.180   0.986  0.00  0.00    +0.040 C 
ATOM     17  C   UNL     1     -35.334  20.460   1.277  0.00  0.00    +0.019 C 
ATOM     18  C   UNL     1     -36.612  19.939   1.076  0.00  0.00    +0.130 C 
ATOM     19  C   UNL     1     -37.701  20.800   0.930  0.00  0.00    +0.039 C 
BRANCH  18  20
ATOM     20  O   UNL     1     -36.815  18.593   1.018  0.00  0.00    -0.506 OA
ATOM     21  H   UNL     1     -36.090  18.006   1.104  0.00  0.00    +0.292 HD
ENDBRANCH  18  20
BRANCH  17  22
ATOM     22  C   UNL     1     -34.157  19.554   1.435  0.00  0.00    +0.055 C 
BRANCH  22  23
ATOM     23  C   UNL     1     -32.956  20.009   0.645  0.00  0.00    -0.030 C 
ATOM     24  C   UNL     1     -31.786  19.366   0.467  0.00  0.00    -0.048 C 
ATOM     25  C   UNL     1     -31.552  18.023   1.107  0.00  0.00    +0.026 C 
ATOM     26  C   UNL     1     -30.626  19.881  -0.336  0.00  0.00    +0.026 C 
ENDBRANCH  22  23
ENDBRANCH  17  22
ENDBRANCH  13  14
ENDBRANCH   6  13
BRANCH   5  27
ATOM     27  C   UNL     1     -35.474  23.574   5.894  0.00  0.00    +0.169 C 
BRANCH  27  28
ATOM     28  O   UNL     1     -36.203  22.456   5.421  0.00  0.00    -0.379 OA
ATOM     29  H   UNL     1     -37.017  22.759   4.988  0.00  0.00    +0.211 HD
ENDBRANCH  27  28
ENDBRANCH   5  27
TORSDOF 10
ENDMDL
MODEL 9
REMARK VINA RESULT:      -6.1      2.574      4.514
REMARK  Name = 57391548
REMARK  10 active torsions:
REMARK  status: ('A' for Active; 'I' for Inactive)
REMARK    1  A    between atoms: C_2  and  O_7
REMARK    2  A    between atoms: C_3  and  O_9
REMARK    3  A    between atoms: C_4  and  O_11
REMARK    4  A    between atoms: C_5  and  C_27
REMARK    5  A    between atoms: C_6  and  O_13
REMARK    6  A    between atoms: O_13  and  C_14
REMARK    7  A    between atoms: C_17  and  C_22
REMARK    8  A    between atoms: C_18  and  O_20
REMARK    9  A    between atoms: C_22  and  C_23
REMARK   10  A    between atoms: C_27  and  O_28
REMARK                            x       y       z     vdW  Elec       q    Type
REMARK                         _______ _______ _______ _____ _____    ______ ____
ROOT
ATOM      1  O   UNL     1     -35.290  23.695   3.949  0.00  0.00    -0.316 OA
ATOM      2  C   UNL     1     -37.221  25.662   3.139  0.00  0.00    +0.173 C 
ATOM      3  C   UNL     1     -36.029  26.001   4.036  0.00  0.00    +0.169 C 
ATOM      4  C   UNL     1     -37.551  24.170   3.201  0.00  0.00    +0.210 C 
ATOM      5  C   UNL     1     -34.862  25.046   3.773  0.00  0.00    +0.177 C 
ATOM      6  C   UNL     1     -36.298  23.315   3.014  0.00  0.00    +0.318 C 
ENDROOT
BRANCH   2   7
ATOM      7  O   UNL     1     -38.344  26.417   3.594  0.00  0.00    -0.379 OA
ATOM      8  H   UNL     1     -38.680  26.033   4.418  0.00  0.00    +0.211 HD
ENDBRANCH   2   7
BRANCH   3   9
ATOM      9  O   UNL     1     -35.611  27.339   3.776  0.00  0.00    -0.379 OA
ATOM     10  H   UNL     1     -35.198  27.384   2.898  0.00  0.00    +0.211 HD
ENDBRANCH   3   9
BRANCH   4  11
ATOM     11  O   UNL     1     -38.472  23.846   2.160  0.00  0.00    -0.377 OA
ATOM     12  H   UNL     1     -38.744  22.919   2.246  0.00  0.00    +0.211 HD
ENDBRANCH   4  11
BRANCH   6  13
ATOM     13  O   UNL     1     -36.662  21.951   3.225  0.00  0.00    -0.451 OA
BRANCH  13  14
ATOM     14  C   UNL     1     -36.307  21.064   2.245  0.00  0.00    +0.141 C 
ATOM     15  C   UNL     1     -35.033  20.494   2.250  0.00  0.00    +0.036 C 
ATOM     16  C   UNL     1     -37.217  20.730   1.244  0.00  0.00    +0.040 C 
ATOM     17  C   UNL     1     -34.671  19.590   1.251  0.00  0.00    +0.019 C 
ATOM     18  C   UNL     1     -35.582  19.255   0.249  0.00  0.00    +0.130 C 
ATOM     19  C   UNL     1     -36.855  19.826   0.245  0.00  0.00    +0.039 C 
BRANCH  18  20
ATOM     20  O   UNL     1     -35.244  18.374  -0.733  0.00  0.00    -0.506 OA
ATOM     21  H   UNL     1     -35.911  17.996  -1.273  0.00  0.00    +0.292 HD
ENDBRANCH  18  20
BRANCH  17  22
ATOM     22  C   UNL     1     -33.304  18.989   1.272  0.00  0.00    +0.055 C 
BRANCH  22  23
ATOM     23  C   UNL     1     -32.298  19.793   0.487  0.00  0.00    -0.030 C 
ATOM     24  C   UNL     1     -31.040  19.449   0.150  0.00  0.00    -0.048 C 
ATOM     25  C   UNL     1     -30.476  18.118   0.575  0.00  0.00    +0.026 C 
ATOM     26  C   UNL     1     -30.088  20.303  -0.637  0.00  0.00    +0.026 C 
ENDBRANCH  22  23
ENDBRANCH  17  22
ENDBRANCH  13  14
ENDBRANCH   6  13
BRANCH   5  27
ATOM     27  C   UNL     1     -33.705  25.291   4.737  0.00  0.00    +0.169 C 
BRANCH  27  28
ATOM     28  O   UNL     1     -32.896  26.329   4.215  0.00  0.00    -0.379 OA
ATOM     29  H   UNL     1     -33.415  27.148   4.163  0.00  0.00    +0.211 HD
ENDBRANCH  27  28
ENDBRANCH   5  27
TORSDOF 10
ENDMDL
