MODEL 1
REMARK VINA RESULT:      -5.6      0.000      0.000
REMARK  Name = 193107
REMARK  8 active torsions:
REMARK  status: ('A' for Active; 'I' for Inactive)
REMARK    1  A    between atoms: C_1  and  C_2
REMARK    2  A    between atoms: C_1  and  O_12
REMARK    3  A    between atoms: C_1  and  CA_14
REMARK    4  A    between atoms: C_5  and  O_8
REMARK    5  A    between atoms: C_7  and  O_10
REMARK    6  A    between atoms: CA_14  and  N_15
REMARK    7  A    between atoms: CA_14  and  C_20
REMARK    8  A    between atoms: C_20  and  O_21
REMARK                            x       y       z     vdW  Elec       q    Type
REMARK                         _______ _______ _______ _____ _____    ______ ____
ROOT
ATOM      1  C   UNL     1     -35.820  25.981   4.147  0.00  0.00    +0.123 C 
ENDROOT
BRANCH   1   2
ATOM      2  C   UNL     1     -35.646  24.523   4.526  0.00  0.00    +0.006 C 
ATOM      3  C   UNL     1     -35.779  23.554   3.550  0.00  0.00    +0.038 C 
ATOM      4  C   UNL     1     -35.359  24.200   5.839  0.00  0.00    +0.001 C 
ATOM      5  C   UNL     1     -35.620  22.213   3.899  0.00  0.00    +0.172 C 
ATOM      6  C   UNL     1     -35.199  22.859   6.188  0.00  0.00    +0.040 C 
ATOM      7  C   UNL     1     -35.331  21.865   5.218  0.00  0.00    +0.168 C 
BRANCH   5   8
ATOM      8  O   UNL     1     -35.750  21.251   2.942  0.00  0.00    -0.468 OA
ATOM      9  C   UNL     1     -36.845  21.380   2.037  0.00  0.00    +0.253 C 
ENDBRANCH   5   8
BRANCH   7  10
ATOM     10  O   UNL     1     -35.173  20.560   5.572  0.00  0.00    -0.503 OA
ATOM     11  H   UNL     1     -34.750  20.341   6.380  0.00  0.00    +0.292 HD
ENDBRANCH   7  10
ENDBRANCH   1   2
BRANCH   1  12
ATOM     12  O   UNL     1     -36.440  26.733   5.193  0.00  0.00    -0.382 OA
ATOM     13  H   UNL     1     -37.396  26.780   5.034  0.00  0.00    +0.211 HD
ENDBRANCH   1  12
BRANCH   1  14
ATOM     14  CA  UNL     1     -34.500  26.652   3.722  0.00  0.00    +0.067 C 
BRANCH  14  15
ATOM     15  N   UNL     1     -33.817  27.209   4.894  0.00  0.00    +0.391 N 
ATOM     16  H1  UNL     1     -34.048  28.198   4.986  0.00  0.00    -0.088 HD
ATOM     17  H2  UNL     1     -32.809  27.104   4.782  0.00  0.00    -0.088 HD
ATOM     18  H3  UNL     1     -34.119  26.710   5.732  0.00  0.00    -0.088 HD
ENDBRANCH  14  15
BRANCH  14  20
ATOM     19  OXT UNL     1     -34.385  27.807   1.575  0.00  0.00    -0.253 OA
ATOM     20  C   UNL     1     -34.717  27.805   2.754  0.00  0.00    +0.296 C 
BRANCH  20  21
ATOM     21  O   UNL     1     -35.352  28.855   3.338  0.00  0.00    -0.482 OA
ATOM     22  H   UNL     1     -35.007  29.234   4.123  0.00  0.00    +0.295 HD
ENDBRANCH  20  21
ENDBRANCH  14  20
ENDBRANCH   1  14
TORSDOF 8
ENDMDL
MODEL 2
REMARK VINA RESULT:      -5.3      2.329      5.468
REMARK  Name = 193107
REMARK  8 active torsions:
REMARK  status: ('A' for Active; 'I' for Inactive)
REMARK    1  A    between atoms: C_1  and  C_2
REMARK    2  A    between atoms: C_1  and  O_12
REMARK    3  A    between atoms: C_1  and  CA_14
REMARK    4  A    between atoms: C_5  and  O_8
REMARK    5  A    between atoms: C_7  and  O_10
REMARK    6  A    between atoms: CA_14  and  N_15
REMARK    7  A    between atoms: CA_14  and  C_20
REMARK    8  A    between atoms: C_20  and  O_21
REMARK                            x       y       z     vdW  Elec       q    Type
REMARK                         _______ _______ _______ _____ _____    ______ ____
ROOT
ATOM      1  C   UNL     1     -35.346  22.459   4.399  0.00  0.00    +0.123 C 
ENDROOT
BRANCH   1   2
ATOM      2  C   UNL     1     -34.858  23.894   4.462  0.00  0.00    +0.006 C 
ATOM      3  C   UNL     1     -34.333  24.475   3.323  0.00  0.00    +0.038 C 
ATOM      4  C   UNL     1     -34.950  24.583   5.656  0.00  0.00    +0.001 C 
ATOM      5  C   UNL     1     -33.883  25.794   3.381  0.00  0.00    +0.172 C 
ATOM      6  C   UNL     1     -34.501  25.903   5.714  0.00  0.00    +0.040 C 
ATOM      7  C   UNL     1     -33.966  26.508   4.576  0.00  0.00    +0.168 C 
BRANCH   5   8
ATOM      8  O   UNL     1     -33.364  26.375   2.263  0.00  0.00    -0.468 OA
ATOM      9  C   UNL     1     -32.016  26.048   1.929  0.00  0.00    +0.253 C 
ENDBRANCH   5   8
BRANCH   7  10
ATOM     10  O   UNL     1     -33.532  27.796   4.646  0.00  0.00    -0.503 OA
ATOM     11  H   UNL     1     -32.786  28.012   5.172  0.00  0.00    +0.292 HD
ENDBRANCH   7  10
ENDBRANCH   1   2
BRANCH   1  12
ATOM     12  O   UNL     1     -36.228  22.149   5.481  0.00  0.00    -0.382 OA
ATOM     13  H   UNL     1     -36.805  21.412   5.226  0.00  0.00    +0.211 HD
ENDBRANCH   1  12
BRANCH   1  14
ATOM     14  CA  UNL     1     -36.012  22.110   3.055  0.00  0.00    +0.067 C 
BRANCH  14  15
ATOM     15  N   UNL     1     -37.467  22.256   3.160  0.00  0.00    +0.391 N 
ATOM     16  H1  UNL     1     -37.820  21.641   3.893  0.00  0.00    -0.088 HD
ATOM     17  H2  UNL     1     -37.899  22.007   2.271  0.00  0.00    -0.088 HD
ATOM     18  H3  UNL     1     -37.696  23.224   3.388  0.00  0.00    -0.088 HD
ENDBRANCH  14  15
BRANCH  14  20
ATOM     19  OXT UNL     1     -34.674  20.248   2.221  0.00  0.00    -0.253 OA
ATOM     20  C   UNL     1     -35.747  20.675   2.628  0.00  0.00    +0.296 C 
BRANCH  20  21
ATOM     21  O   UNL     1     -36.844  19.885   2.766  0.00  0.00    -0.482 OA
ATOM     22  H   UNL     1     -37.572  19.989   2.185  0.00  0.00    +0.295 HD
ENDBRANCH  20  21
ENDBRANCH  14  20
ENDBRANCH   1  14
TORSDOF 8
ENDMDL
MODEL 3
REMARK VINA RESULT:      -5.2      2.808      5.529
REMARK  Name = 193107
REMARK  8 active torsions:
REMARK  status: ('A' for Active; 'I' for Inactive)
REMARK    1  A    between atoms: C_1  and  C_2
REMARK    2  A    between atoms: C_1  and  O_12
REMARK    3  A    between atoms: C_1  and  CA_14
REMARK    4  A    between atoms: C_5  and  O_8
REMARK    5  A    between atoms: C_7  and  O_10
REMARK    6  A    between atoms: CA_14  and  N_15
REMARK    7  A    between atoms: CA_14  and  C_20
REMARK    8  A    between atoms: C_20  and  O_21
REMARK                            x       y       z     vdW  Elec       q    Type
REMARK                         _______ _______ _______ _____ _____    ______ ____
ROOT
ATOM      1  C   UNL     1     -35.531  21.640   3.078  0.00  0.00    +0.123 C 
ENDROOT
BRANCH   1   2
ATOM      2  C   UNL     1     -35.809  22.979   3.735  0.00  0.00    +0.006 C 
ATOM      3  C   UNL     1     -36.742  23.825   3.166  0.00  0.00    +0.038 C 
ATOM      4  C   UNL     1     -35.121  23.318   4.885  0.00  0.00    +0.001 C 
ATOM      5  C   UNL     1     -36.996  25.057   3.770  0.00  0.00    +0.172 C 
ATOM      6  C   UNL     1     -35.377  24.549   5.489  0.00  0.00    +0.040 C 
ATOM      7  C   UNL     1     -36.314  25.419   4.931  0.00  0.00    +0.168 C 
BRANCH   5   8
ATOM      8  O   UNL     1     -37.915  25.898   3.216  0.00  0.00    -0.468 OA
ATOM      9  C   UNL     1     -39.224  25.376   3.000  0.00  0.00    +0.253 C 
ENDBRANCH   5   8
BRANCH   7  10
ATOM     10  O   UNL     1     -36.553  26.618   5.530  0.00  0.00    -0.503 OA
ATOM     11  H   UNL     1     -35.874  27.043   6.018  0.00  0.00    +0.292 HD
ENDBRANCH   7  10
ENDBRANCH   1   2
BRANCH   1  12
ATOM     12  O   UNL     1     -35.570  20.566   4.021  0.00  0.00    -0.382 OA
ATOM     13  H   UNL     1     -35.085  19.805   3.664  0.00  0.00    +0.211 HD
ENDBRANCH   1  12
BRANCH   1  14
ATOM     14  CA  UNL     1     -36.475  21.343   1.898  0.00  0.00    +0.067 C 
BRANCH  14  15
ATOM     15  N   UNL     1     -37.652  20.604   2.367  0.00  0.00    +0.391 N 
ATOM     16  H1  UNL     1     -37.584  19.631   2.070  0.00  0.00    -0.088 HD
ATOM     17  H2  UNL     1     -38.495  21.021   1.972  0.00  0.00    -0.088 HD
ATOM     18  H3  UNL     1     -37.697  20.647   3.385  0.00  0.00    -0.088 HD
ENDBRANCH  14  15
BRANCH  14  20
ATOM     19  OXT UNL     1     -35.612  20.840  -0.328  0.00  0.00    -0.253 OA
ATOM     20  C   UNL     1     -35.819  20.487   0.826  0.00  0.00    +0.296 C 
BRANCH  20  21
ATOM     21  O   UNL     1     -35.456  19.264   1.295  0.00  0.00    -0.482 OA
ATOM     22  H   UNL     1     -34.598  19.134   1.648  0.00  0.00    +0.295 HD
ENDBRANCH  20  21
ENDBRANCH  14  20
ENDBRANCH   1  14
TORSDOF 8
ENDMDL
MODEL 4
REMARK VINA RESULT:      -5.1      2.418      2.731
REMARK  Name = 193107
REMARK  8 active torsions:
REMARK  status: ('A' for Active; 'I' for Inactive)
REMARK    1  A    between atoms: C_1  and  C_2
REMARK    2  A    between atoms: C_1  and  O_12
REMARK    3  A    between atoms: C_1  and  CA_14
REMARK    4  A    between atoms: C_5  and  O_8
REMARK    5  A    between atoms: C_7  and  O_10
REMARK    6  A    between atoms: CA_14  and  N_15
REMARK    7  A    between atoms: CA_14  and  C_20
REMARK    8  A    between atoms: C_20  and  O_21
REMARK                            x       y       z     vdW  Elec       q    Type
REMARK                         _______ _______ _______ _____ _____    ______ ____
ROOT
ATOM      1  C   UNL     1     -36.183  25.393   3.179  0.00  0.00    +0.123 C 
ENDROOT
BRANCH   1   2
ATOM      2  C   UNL     1     -35.896  24.091   3.899  0.00  0.00    +0.006 C 
ATOM      3  C   UNL     1     -35.881  22.913   3.177  0.00  0.00    +0.038 C 
ATOM      4  C   UNL     1     -35.657  24.114   5.261  0.00  0.00    +0.001 C 
ATOM      5  C   UNL     1     -35.617  21.714   3.840  0.00  0.00    +0.172 C 
ATOM      6  C   UNL     1     -35.393  22.916   5.923  0.00  0.00    +0.040 C 
ATOM      7  C   UNL     1     -35.374  21.715   5.213  0.00  0.00    +0.168 C 
BRANCH   5   8
ATOM      8  O   UNL     1     -35.600  20.548   3.135  0.00  0.00    -0.468 OA
ATOM      9  C   UNL     1     -36.410  20.486   1.963  0.00  0.00    +0.253 C 
ENDBRANCH   5   8
BRANCH   7  10
ATOM     10  O   UNL     1     -35.115  20.552   5.872  0.00  0.00    -0.503 OA
ATOM     11  H   UNL     1     -35.815  19.962   6.076  0.00  0.00    +0.292 HD
ENDBRANCH   7  10
ENDBRANCH   1   2
BRANCH   1  12
ATOM     12  O   UNL     1     -35.821  25.329   1.797  0.00  0.00    -0.382 OA
ATOM     13  H   UNL     1     -34.887  25.080   1.719  0.00  0.00    +0.211 HD
ENDBRANCH   1  12
BRANCH   1  14
ATOM     14  CA  UNL     1     -37.648  25.848   3.322  0.00  0.00    +0.067 C 
BRANCH  14  15
ATOM     15  N   UNL     1     -38.456  24.771   3.902  0.00  0.00    +0.391 N 
ATOM     16  H1  UNL     1     -39.445  24.970   3.757  0.00  0.00    -0.088 HD
ATOM     17  H2  UNL     1     -38.266  24.705   4.902  0.00  0.00    -0.088 HD
ATOM     18  H3  UNL     1     -38.217  23.887   3.453  0.00  0.00    -0.088 HD
ENDBRANCH  14  15
BRANCH  14  20
ATOM     19  OXT UNL     1     -38.240  27.302   1.454  0.00  0.00    -0.253 OA
ATOM     20  C   UNL     1     -38.284  26.200   1.986  0.00  0.00    +0.296 C 
BRANCH  20  21
ATOM     21  O   UNL     1     -38.905  25.135   1.415  0.00  0.00    -0.482 OA
ATOM     22  H   UNL     1     -38.941  24.316   1.868  0.00  0.00    +0.295 HD
ENDBRANCH  20  21
ENDBRANCH  14  20
ENDBRANCH   1  14
TORSDOF 8
ENDMDL
MODEL 5
REMARK VINA RESULT:      -5.1      2.433      5.764
REMARK  Name = 193107
REMARK  8 active torsions:
REMARK  status: ('A' for Active; 'I' for Inactive)
REMARK    1  A    between atoms: C_1  and  C_2
REMARK    2  A    between atoms: C_1  and  O_12
REMARK    3  A    between atoms: C_1  and  CA_14
REMARK    4  A    between atoms: C_5  and  O_8
REMARK    5  A    between atoms: C_7  and  O_10
REMARK    6  A    between atoms: CA_14  and  N_15
REMARK    7  A    between atoms: CA_14  and  C_20
REMARK    8  A    between atoms: C_20  and  O_21
REMARK                            x       y       z     vdW  Elec       q    Type
REMARK                         _______ _______ _______ _____ _____    ______ ____
ROOT
ATOM      1  C   UNL     1     -36.364  24.443   4.780  0.00  0.00    +0.123 C 
ENDROOT
BRANCH   1   2
ATOM      2  C   UNL     1     -35.402  25.552   4.400  0.00  0.00    +0.006 C 
ATOM      3  C   UNL     1     -34.325  25.818   5.223  0.00  0.00    +0.038 C 
ATOM      4  C   UNL     1     -35.629  26.271   3.241  0.00  0.00    +0.001 C 
ATOM      5  C   UNL     1     -33.441  26.839   4.875  0.00  0.00    +0.172 C 
ATOM      6  C   UNL     1     -34.745  27.291   2.892  0.00  0.00    +0.040 C 
ATOM      7  C   UNL     1     -33.651  27.577   3.710  0.00  0.00    +0.168 C 
BRANCH   5   8
ATOM      8  O   UNL     1     -32.375  27.108   5.681  0.00  0.00    -0.468 OA
ATOM      9  C   UNL     1     -32.636  27.246   7.076  0.00  0.00    +0.253 C 
ENDBRANCH   5   8
BRANCH   7  10
ATOM     10  O   UNL     1     -32.796  28.575   3.358  0.00  0.00    -0.503 OA
ATOM     11  H   UNL     1     -33.114  29.321   2.887  0.00  0.00    +0.292 HD
ENDBRANCH   7  10
ENDBRANCH   1   2
BRANCH   1  12
ATOM     12  O   UNL     1     -37.719  24.784   4.473  0.00  0.00    -0.382 OA
ATOM     13  H   UNL     1     -38.181  24.000   4.136  0.00  0.00    +0.211 HD
ENDBRANCH   1  12
BRANCH   1  14
ATOM     14  CA  UNL     1     -36.001  23.089   4.142  0.00  0.00    +0.067 C 
BRANCH  14  15
ATOM     15  N   UNL     1     -37.158  22.542   3.426  0.00  0.00    +0.391 N 
ATOM     16  H1  UNL     1     -36.877  22.260   2.488  0.00  0.00    -0.088 HD
ATOM     17  H2  UNL     1     -37.886  23.254   3.363  0.00  0.00    -0.088 HD
ATOM     18  H3  UNL     1     -37.519  21.732   3.932  0.00  0.00    -0.088 HD
ENDBRANCH  14  15
BRANCH  14  20
ATOM     19  OXT UNL     1     -35.052  20.979   4.918  0.00  0.00    -0.253 OA
ATOM     20  C   UNL     1     -35.592  22.048   5.173  0.00  0.00    +0.296 C 
BRANCH  20  21
ATOM     21  O   UNL     1     -35.875  22.442   6.442  0.00  0.00    -0.482 OA
ATOM     22  H   UNL     1     -36.743  22.719   6.664  0.00  0.00    +0.295 HD
ENDBRANCH  20  21
ENDBRANCH  14  20
ENDBRANCH   1  14
TORSDOF 8
ENDMDL
MODEL 6
REMARK VINA RESULT:      -5.0      2.424      3.332
REMARK  Name = 193107
REMARK  8 active torsions:
REMARK  status: ('A' for Active; 'I' for Inactive)
REMARK    1  A    between atoms: C_1  and  C_2
REMARK    2  A    between atoms: C_1  and  O_12
REMARK    3  A    between atoms: C_1  and  CA_14
REMARK    4  A    between atoms: C_5  and  O_8
REMARK    5  A    between atoms: C_7  and  O_10
REMARK    6  A    between atoms: CA_14  and  N_15
REMARK    7  A    between atoms: CA_14  and  C_20
REMARK    8  A    between atoms: C_20  and  O_21
REMARK                            x       y       z     vdW  Elec       q    Type
REMARK                         _______ _______ _______ _____ _____    ______ ____
ROOT
ATOM      1  C   UNL     1     -36.699  24.368   3.630  0.00  0.00    +0.123 C 
ENDROOT
BRANCH   1   2
ATOM      2  C   UNL     1     -36.686  22.978   3.022  0.00  0.00    +0.006 C 
ATOM      3  C   UNL     1     -37.777  22.558   2.285  0.00  0.00    +0.038 C 
ATOM      4  C   UNL     1     -35.584  22.168   3.221  0.00  0.00    +0.001 C 
ATOM      5  C   UNL     1     -37.766  21.279   1.727  0.00  0.00    +0.172 C 
ATOM      6  C   UNL     1     -35.573  20.890   2.662  0.00  0.00    +0.040 C 
ATOM      7  C   UNL     1     -36.664  20.445   1.916  0.00  0.00    +0.168 C 
BRANCH   5   8
ATOM      8  O   UNL     1     -38.837  20.856   0.998  0.00  0.00    -0.468 OA
ATOM      9  C   UNL     1     -39.896  21.791   0.800  0.00  0.00    +0.253 C 
ENDBRANCH   5   8
BRANCH   7  10
ATOM     10  O   UNL     1     -36.640  19.196   1.375  0.00  0.00    -0.503 OA
ATOM     11  H   UNL     1     -37.188  18.522   1.728  0.00  0.00    +0.292 HD
ENDBRANCH   7  10
ENDBRANCH   1   2
BRANCH   1  12
ATOM     12  O   UNL     1     -37.966  24.681   4.216  0.00  0.00    -0.382 OA
ATOM     13  H   UNL     1     -37.860  24.789   5.174  0.00  0.00    +0.211 HD
ENDBRANCH   1  12
BRANCH   1  14
ATOM     14  CA  UNL     1     -35.572  24.585   4.656  0.00  0.00    +0.067 C 
BRANCH  14  15
ATOM     15  N   UNL     1     -35.863  23.845   5.889  0.00  0.00    +0.391 N 
ATOM     16  H1  UNL     1     -35.083  23.225   6.107  0.00  0.00    -0.088 HD
ATOM     17  H2  UNL     1     -36.710  23.292   5.761  0.00  0.00    -0.088 HD
ATOM     18  H3  UNL     1     -36.000  24.503   6.656  0.00  0.00    -0.088 HD
ENDBRANCH  14  15
BRANCH  14  20
ATOM     19  OXT UNL     1     -34.366  26.678   5.001  0.00  0.00    -0.253 OA
ATOM     20  C   UNL     1     -35.413  26.045   5.050  0.00  0.00    +0.296 C 
BRANCH  20  21
ATOM     21  O   UNL     1     -36.586  26.600   5.453  0.00  0.00    -0.482 OA
ATOM     22  H   UNL     1     -37.237  26.069   5.868  0.00  0.00    +0.295 HD
ENDBRANCH  20  21
ENDBRANCH  14  20
ENDBRANCH   1  14
TORSDOF 8
ENDMDL
MODEL 7
REMARK VINA RESULT:      -4.9      4.044      5.970
REMARK  Name = 193107
REMARK  8 active torsions:
REMARK  status: ('A' for Active; 'I' for Inactive)
REMARK    1  A    between atoms: C_1  and  C_2
REMARK    2  A    between atoms: C_1  and  O_12
REMARK    3  A    between atoms: C_1  and  CA_14
REMARK    4  A    between atoms: C_5  and  O_8
REMARK    5  A    between atoms: C_7  and  O_10
REMARK    6  A    between atoms: CA_14  and  N_15
REMARK    7  A    between atoms: CA_14  and  C_20
REMARK    8  A    between atoms: C_20  and  O_21
REMARK                            x       y       z     vdW  Elec       q    Type
REMARK                         _______ _______ _______ _____ _____    ______ ____
ROOT
ATOM      1  C   UNL     1     -35.916  20.968   2.130  0.00  0.00    +0.123 C 
ENDROOT
BRANCH   1   2
ATOM      2  C   UNL     1     -34.601  20.596   1.473  0.00  0.00    +0.006 C 
ATOM      3  C   UNL     1     -34.069  19.341   1.697  0.00  0.00    +0.038 C 
ATOM      4  C   UNL     1     -33.967  21.524   0.668  0.00  0.00    +0.001 C 
ATOM      5  C   UNL     1     -32.859  18.999   1.093  0.00  0.00    +0.172 C 
ATOM      6  C   UNL     1     -32.757  21.182   0.064  0.00  0.00    +0.040 C 
ATOM      7  C   UNL     1     -32.202  19.920   0.277  0.00  0.00    +0.168 C 
BRANCH   5   8
ATOM      8  O   UNL     1     -32.328  17.763   1.308  0.00  0.00    -0.468 OA
ATOM      9  C   UNL     1     -32.688  16.734   0.388  0.00  0.00    +0.253 C 
ENDBRANCH   5   8
BRANCH   7  10
ATOM     10  O   UNL     1     -31.020  19.600  -0.319  0.00  0.00    -0.503 OA
ATOM     11  H   UNL     1     -30.271  19.396   0.207  0.00  0.00    +0.292 HD
ENDBRANCH   7  10
ENDBRANCH   1   2
BRANCH   1  12
ATOM     12  O   UNL     1     -36.605  19.818   2.629  0.00  0.00    -0.382 OA
ATOM     13  H   UNL     1     -37.513  19.812   2.288  0.00  0.00    +0.211 HD
ENDBRANCH   1  12
BRANCH   1  14
ATOM     14  CA  UNL     1     -35.754  22.016   3.247  0.00  0.00    +0.067 C 
BRANCH  14  15
ATOM     15  N   UNL     1     -35.486  21.351   4.527  0.00  0.00    +0.391 N 
ATOM     16  H1  UNL     1     -36.266  21.509   5.164  0.00  0.00    -0.088 HD
ATOM     17  H2  UNL     1     -34.632  21.731   4.934  0.00  0.00    -0.088 HD
ATOM     18  H3  UNL     1     -35.370  20.349   4.372  0.00  0.00    -0.088 HD
ENDBRANCH  14  15
BRANCH  14  20
ATOM     19  OXT UNL     1     -37.042  23.945   4.005  0.00  0.00    -0.253 OA
ATOM     20  C   UNL     1     -37.006  22.856   3.446  0.00  0.00    +0.296 C 
BRANCH  20  21
ATOM     21  O   UNL     1     -38.109  22.272   2.907  0.00  0.00    -0.482 OA
ATOM     22  H   UNL     1     -38.764  21.903   3.466  0.00  0.00    +0.295 HD
ENDBRANCH  20  21
ENDBRANCH  14  20
ENDBRANCH   1  14
TORSDOF 8
ENDMDL
MODEL 8
REMARK VINA RESULT:      -4.9      1.595      2.784
REMARK  Name = 193107
REMARK  8 active torsions:
REMARK  status: ('A' for Active; 'I' for Inactive)
REMARK    1  A    between atoms: C_1  and  C_2
REMARK    2  A    between atoms: C_1  and  O_12
REMARK    3  A    between atoms: C_1  and  CA_14
REMARK    4  A    between atoms: C_5  and  O_8
REMARK    5  A    between atoms: C_7  and  O_10
REMARK    6  A    between atoms: CA_14  and  N_15
REMARK    7  A    between atoms: CA_14  and  C_20
REMARK    8  A    between atoms: C_20  and  O_21
REMARK                            x       y       z     vdW  Elec       q    Type
REMARK                         _______ _______ _______ _____ _____    ______ ____
ROOT
ATOM      1  C   UNL     1     -35.725  25.469   3.012  0.00  0.00    +0.123 C 
ENDROOT
BRANCH   1   2
ATOM      2  C   UNL     1     -35.953  23.974   2.894  0.00  0.00    +0.006 C 
ATOM      3  C   UNL     1     -35.454  23.139   3.875  0.00  0.00    +0.038 C 
ATOM      4  C   UNL     1     -36.654  23.486   1.807  0.00  0.00    +0.001 C 
ATOM      5  C   UNL     1     -35.663  21.764   3.766  0.00  0.00    +0.172 C 
ATOM      6  C   UNL     1     -36.863  22.111   1.698  0.00  0.00    +0.040 C 
ATOM      7  C   UNL     1     -36.367  21.250   2.677  0.00  0.00    +0.168 C 
BRANCH   5   8
ATOM      8  O   UNL     1     -35.175  20.934   4.730  0.00  0.00    -0.468 OA
ATOM      9  C   UNL     1     -35.048  21.470   6.045  0.00  0.00    +0.253 C 
ENDBRANCH   5   8
BRANCH   7  10
ATOM     10  O   UNL     1     -36.578  19.910   2.560  0.00  0.00    -0.503 OA
ATOM     11  H   UNL     1     -36.400  19.477   1.747  0.00  0.00    +0.292 HD
ENDBRANCH   7  10
ENDBRANCH   1   2
BRANCH   1  12
ATOM     12  O   UNL     1     -36.885  26.216   2.638  0.00  0.00    -0.382 OA
ATOM     13  H   UNL     1     -37.240  26.674   3.416  0.00  0.00    +0.211 HD
ENDBRANCH   1  12
BRANCH   1  14
ATOM     14  CA  UNL     1     -35.249  25.895   4.414  0.00  0.00    +0.067 C 
BRANCH  14  15
ATOM     15  N   UNL     1     -36.352  26.516   5.153  0.00  0.00    +0.391 N 
ATOM     16  H1  UNL     1     -36.104  26.588   6.140  0.00  0.00    -0.088 HD
ATOM     17  H2  UNL     1     -37.191  25.944   5.055  0.00  0.00    -0.088 HD
ATOM     18  H3  UNL     1     -36.531  27.448   4.779  0.00  0.00    -0.088 HD
ENDBRANCH  14  15
BRANCH  14  20
ATOM     19  OXT UNL     1     -33.015  26.770   4.857  0.00  0.00    -0.253 OA
ATOM     20  C   UNL     1     -34.126  26.919   4.363  0.00  0.00    +0.296 C 
BRANCH  20  21
ATOM     21  O   UNL     1     -34.479  28.038   3.678  0.00  0.00    -0.482 OA
ATOM     22  H   UNL     1     -34.585  28.004   2.748  0.00  0.00    +0.295 HD
ENDBRANCH  20  21
ENDBRANCH  14  20
ENDBRANCH   1  14
TORSDOF 8
ENDMDL
MODEL 9
REMARK VINA RESULT:      -4.9      3.293      6.129
REMARK  Name = 193107
REMARK  8 active torsions:
REMARK  status: ('A' for Active; 'I' for Inactive)
REMARK    1  A    between atoms: C_1  and  C_2
REMARK    2  A    between atoms: C_1  and  O_12
REMARK    3  A    between atoms: C_1  and  CA_14
REMARK    4  A    between atoms: C_5  and  O_8
REMARK    5  A    between atoms: C_7  and  O_10
REMARK    6  A    between atoms: CA_14  and  N_15
REMARK    7  A    between atoms: CA_14  and  C_20
REMARK    8  A    between atoms: C_20  and  O_21
REMARK                            x       y       z     vdW  Elec       q    Type
REMARK                         _______ _______ _______ _____ _____    ______ ____
ROOT
ATOM      1  C   UNL     1     -37.529  21.683   1.850  0.00  0.00    +0.123 C 
ENDROOT
BRANCH   1   2
ATOM      2  C   UNL     1     -37.279  22.870   2.761  0.00  0.00    +0.006 C 
ATOM      3  C   UNL     1     -36.395  22.732   3.814  0.00  0.00    +0.038 C 
ATOM      4  C   UNL     1     -37.942  24.057   2.515  0.00  0.00    +0.001 C 
ATOM      5  C   UNL     1     -36.166  23.823   4.654  0.00  0.00    +0.172 C 
ATOM      6  C   UNL     1     -37.712  25.148   3.354  0.00  0.00    +0.040 C 
ATOM      7  C   UNL     1     -36.825  25.030   4.424  0.00  0.00    +0.168 C 
BRANCH   5   8
ATOM      8  O   UNL     1     -35.296  23.696   5.695  0.00  0.00    -0.468 OA
ATOM      9  C   UNL     1     -35.254  22.433   6.355  0.00  0.00    +0.253 C 
ENDBRANCH   5   8
BRANCH   7  10
ATOM     10  O   UNL     1     -36.610  26.103   5.235  0.00  0.00    -0.503 OA
ATOM     11  H   UNL     1     -37.335  26.537   5.641  0.00  0.00    +0.292 HD
ENDBRANCH   7  10
ENDBRANCH   1   2
BRANCH   1  12
ATOM     12  O   UNL     1     -37.203  20.445   2.486  0.00  0.00    -0.382 OA
ATOM     13  H   UNL     1     -36.404  20.559   3.024  0.00  0.00    +0.211 HD
ENDBRANCH   1  12
BRANCH   1  14
ATOM     14  CA  UNL     1     -38.970  21.637   1.306  0.00  0.00    +0.067 C 
BRANCH  14  15
ATOM     15  N   UNL     1     -39.887  21.165   2.349  0.00  0.00    +0.391 N 
ATOM     16  H1  UNL     1     -39.532  21.439   3.265  0.00  0.00    -0.088 HD
ATOM     17  H2  UNL     1     -39.959  20.149   2.303  0.00  0.00    -0.088 HD
ATOM     18  H3  UNL     1     -40.808  21.578   2.203  0.00  0.00    -0.088 HD
ENDBRANCH  14  15
BRANCH  14  20
ATOM     19  OXT UNL     1     -40.182  20.240  -0.286  0.00  0.00    -0.253 OA
ATOM     20  C   UNL     1     -39.119  20.686   0.129  0.00  0.00    +0.296 C 
BRANCH  20  21
ATOM     21  O   UNL     1     -37.925  20.387  -0.447  0.00  0.00    -0.482 OA
ATOM     22  H   UNL     1     -37.189  20.164   0.089  0.00  0.00    +0.295 HD
ENDBRANCH  20  21
ENDBRANCH  14  20
ENDBRANCH   1  14
TORSDOF 8
ENDMDL
