MODEL 1
REMARK VINA RESULT:      -6.4      0.000      0.000
REMARK  Name = 5393
REMARK  12 active torsions:
REMARK  status: ('A' for Active; 'I' for Inactive)
REMARK    1  A    between atoms: N_3  and  C_31
REMARK    2  A    between atoms: C_4  and  N_14
REMARK    3  A    between atoms: C_5  and  C_10
REMARK    4  A    between atoms: N_14  and  C_17
REMARK    5  A    between atoms: C_17  and  C_19
REMARK    6  A    between atoms: C_17  and  C_23
REMARK    7  A    between atoms: C_19  and  O_20
REMARK    8  A    between atoms: O_20  and  C_21
REMARK    9  A    between atoms: C_23  and  C_24
REMARK   10  A    between atoms: C_24  and  C_25
REMARK   11  A    between atoms: C_31  and  C_33
REMARK   12  A    between atoms: C_33  and  O_34
REMARK                            x       y       z     vdW  Elec       q    Type
REMARK                         _______ _______ _______ _____ _____    ______ ____
ROOT
ATOM      1  S   UNL     1     -34.901  29.042   2.069  0.00  0.00    -0.136 S 
ATOM      2  O   UNL     1     -33.031  26.332   5.440  0.00  0.00    -0.277 OA
ATOM      3  N   UNL     1     -32.518  28.412   4.569  0.00  0.00    -0.270 N 
ATOM      4  C   UNL     1     -33.715  26.747   3.164  0.00  0.00    +0.029 C 
ATOM      5  C   UNL     1     -33.841  30.024   3.205  0.00  0.00    +0.095 C 
ATOM      6  C   UNL     1     -35.048  27.478   2.992  0.00  0.00    +0.046 C 
ATOM      7  C   UNL     1     -32.478  29.359   3.450  0.00  0.00    +0.110 C 
ATOM      8  C   UNL     1     -33.055  27.125   4.493  0.00  0.00    +0.207 C 
ENDROOT
BRANCH   5  10
ATOM      9  S   UNL     1     -32.188  32.246   2.818  0.00  0.00    -0.090 S 
ATOM     10  C   UNL     1     -33.684  31.432   2.644  0.00  0.00    +0.019 C 
ATOM     11  C   UNL     1     -34.616  32.198   1.979  0.00  0.00    +0.004 C 
ATOM     12  C   UNL     1     -34.095  33.470   1.607  0.00  0.00    +0.007 C 
ATOM     13  C   UNL     1     -32.784  33.628   2.003  0.00  0.00    +0.035 C 
ENDBRANCH   5  10
BRANCH   4  14
ATOM     14  N   UNL     1     -33.972  25.300   3.212  0.00  0.00    +0.400 N 
ATOM     15  H   UNL     1     -33.727  24.946   4.137  0.00  0.00    -0.083 HD
ATOM     16  H   UNL     1     -33.409  24.841   2.498  0.00  0.00    -0.083 HD
BRANCH  14  17
ATOM     17  C   UNL     1     -35.375  25.025   2.953  0.00  0.00    +0.041 C 
BRANCH  17  19
ATOM     18  O   UNL     1     -37.115  24.354   4.529  0.00  0.00    -0.252 OA
ATOM     19  C   UNL     1     -35.941  24.335   4.182  0.00  0.00    +0.297 C 
BRANCH  19  20
ATOM     20  O   UNL     1     -34.932  23.681   4.835  0.00  0.00    -0.450 OA
BRANCH  20  21
ATOM     21  C   UNL     1     -35.314  22.986   6.025  0.00  0.00    +0.208 C 
ATOM     22  C   UNL     1     -35.149  21.497   5.801  0.00  0.00    +0.051 C 
ENDBRANCH  20  21
ENDBRANCH  19  20
ENDBRANCH  17  19
BRANCH  17  23
ATOM     23  C   UNL     1     -35.559  24.122   1.723  0.00  0.00    -0.006 C 
BRANCH  23  24
ATOM     24  C   UNL     1     -35.935  22.666   2.030  0.00  0.00    +0.025 C 
BRANCH  24  25
ATOM     25  C   UNL     1     -34.922  21.661   1.540  0.00  0.00    -0.022 C 
ATOM     26  C   UNL     1     -34.902  20.373   2.075  0.00  0.00    -0.004 C 
ATOM     27  C   UNL     1     -34.006  22.019   0.551  0.00  0.00    -0.004 C 
ATOM     28  C   UNL     1     -33.967  19.443   1.622  0.00  0.00    -0.000 C 
ATOM     29  C   UNL     1     -33.069  21.090   0.098  0.00  0.00    -0.000 C 
ATOM     30  C   UNL     1     -33.050  19.801   0.633  0.00  0.00    -0.000 C 
ENDBRANCH  24  25
ENDBRANCH  23  24
ENDBRANCH  17  23
ENDBRANCH  14  17
ENDBRANCH   4  14
BRANCH   3  31
ATOM     31  C   UNL     1     -31.976  28.894   5.835  0.00  0.00    +0.204 C 
BRANCH  31  33
ATOM     32  O   UNL     1     -29.603  29.191   5.566  0.00  0.00    -0.248 OA
ATOM     33  C   UNL     1     -30.526  28.533   6.028  0.00  0.00    +0.334 C 
BRANCH  33  34
ATOM     34  O   UNL     1     -30.340  27.409   6.759  0.00  0.00    -0.479 OA
ATOM     35  H   UNL     1     -30.901  27.227   7.489  0.00  0.00    +0.295 HD
ENDBRANCH  33  34
ENDBRANCH  31  33
ENDBRANCH   3  31
TORSDOF 12
ENDMDL
MODEL 2
REMARK VINA RESULT:      -6.2      2.930      4.819
REMARK  Name = 5393
REMARK  12 active torsions:
REMARK  status: ('A' for Active; 'I' for Inactive)
REMARK    1  A    between atoms: N_3  and  C_31
REMARK    2  A    between atoms: C_4  and  N_14
REMARK    3  A    between atoms: C_5  and  C_10
REMARK    4  A    between atoms: N_14  and  C_17
REMARK    5  A    between atoms: C_17  and  C_19
REMARK    6  A    between atoms: C_17  and  C_23
REMARK    7  A    between atoms: C_19  and  O_20
REMARK    8  A    between atoms: O_20  and  C_21
REMARK    9  A    between atoms: C_23  and  C_24
REMARK   10  A    between atoms: C_24  and  C_25
REMARK   11  A    between atoms: C_31  and  C_33
REMARK   12  A    between atoms: C_33  and  O_34
REMARK                            x       y       z     vdW  Elec       q    Type
REMARK                         _______ _______ _______ _____ _____    ______ ____
ROOT
ATOM      1  S   UNL     1     -37.735  25.965   1.766  0.00  0.00    -0.136 S 
ATOM      2  O   UNL     1     -36.140  22.635   4.694  0.00  0.00    -0.277 OA
ATOM      3  N   UNL     1     -35.209  24.519   3.729  0.00  0.00    -0.270 N 
ATOM      4  C   UNL     1     -37.100  23.363   2.604  0.00  0.00    +0.029 C 
ATOM      5  C   UNL     1     -36.229  26.525   2.660  0.00  0.00    +0.095 C 
ATOM      6  C   UNL     1     -38.160  24.462   2.705  0.00  0.00    +0.046 C 
ATOM      7  C   UNL     1     -35.108  25.476   2.623  0.00  0.00    +0.110 C 
ATOM      8  C   UNL     1     -36.111  23.454   3.769  0.00  0.00    +0.207 C 
ENDROOT
BRANCH   5  10
ATOM      9  S   UNL     1     -34.279  28.528   2.577  0.00  0.00    -0.090 S 
ATOM     10  C   UNL     1     -35.772  27.855   2.074  0.00  0.00    +0.019 C 
ATOM     11  C   UNL     1     -36.410  28.648   1.146  0.00  0.00    +0.004 C 
ATOM     12  C   UNL     1     -35.665  29.824   0.845  0.00  0.00    +0.007 C 
ATOM     13  C   UNL     1     -34.485  29.885   1.554  0.00  0.00    +0.035 C 
ENDBRANCH   5  10
BRANCH   4  14
ATOM     14  N   UNL     1     -37.764  22.056   2.708  0.00  0.00    +0.400 N 
ATOM     15  H   UNL     1     -38.707  22.186   3.074  0.00  0.00    -0.083 HD
ATOM     16  H   UNL     1     -37.223  21.460   3.334  0.00  0.00    -0.083 HD
BRANCH  14  17
ATOM     17  C   UNL     1     -37.841  21.420   1.404  0.00  0.00    +0.041 C 
BRANCH  17  19
ATOM     18  O   UNL     1     -40.227  21.299   1.909  0.00  0.00    -0.252 OA
ATOM     19  C   UNL     1     -39.288  21.015   1.177  0.00  0.00    +0.297 C 
BRANCH  19  20
ATOM     20  O   UNL     1     -39.374  20.290   0.020  0.00  0.00    -0.450 OA
BRANCH  20  21
ATOM     21  C   UNL     1     -40.390  20.709  -0.897  0.00  0.00    +0.208 C 
ATOM     22  C   UNL     1     -40.780  19.536  -1.770  0.00  0.00    +0.051 C 
ENDBRANCH  20  21
ENDBRANCH  19  20
ENDBRANCH  17  19
BRANCH  17  23
ATOM     23  C   UNL     1     -36.938  20.179   1.322  0.00  0.00    -0.006 C 
BRANCH  23  24
ATOM     24  C   UNL     1     -35.688  20.218   2.213  0.00  0.00    +0.025 C 
BRANCH  24  25
ATOM     25  C   UNL     1     -34.392  20.180   1.443  0.00  0.00    -0.022 C 
ATOM     26  C   UNL     1     -34.018  21.268   0.653  0.00  0.00    -0.004 C 
ATOM     27  C   UNL     1     -33.567  19.058   1.520  0.00  0.00    -0.004 C 
ATOM     28  C   UNL     1     -32.819  21.233  -0.058  0.00  0.00    -0.000 C 
ATOM     29  C   UNL     1     -32.368  19.023   0.808  0.00  0.00    -0.000 C 
ATOM     30  C   UNL     1     -31.994  20.111   0.019  0.00  0.00    -0.000 C 
ENDBRANCH  24  25
ENDBRANCH  23  24
ENDBRANCH  17  23
ENDBRANCH  14  17
ENDBRANCH   4  14
BRANCH   3  31
ATOM     31  C   UNL     1     -34.312  24.747   4.857  0.00  0.00    +0.204 C 
BRANCH  31  33
ATOM     32  O   UNL     1     -33.766  26.878   5.835  0.00  0.00    -0.248 OA
ATOM     33  C   UNL     1     -34.612  26.024   5.598  0.00  0.00    +0.334 C 
BRANCH  33  34
ATOM     34  O   UNL     1     -35.906  26.137   5.980  0.00  0.00    -0.479 OA
ATOM     35  H   UNL     1     -36.152  25.936   6.863  0.00  0.00    +0.295 HD
ENDBRANCH  33  34
ENDBRANCH  31  33
ENDBRANCH   3  31
TORSDOF 12
ENDMDL
MODEL 3
REMARK VINA RESULT:      -6.2      3.470      8.644
REMARK  Name = 5393
REMARK  12 active torsions:
REMARK  status: ('A' for Active; 'I' for Inactive)
REMARK    1  A    between atoms: N_3  and  C_31
REMARK    2  A    between atoms: C_4  and  N_14
REMARK    3  A    between atoms: C_5  and  C_10
REMARK    4  A    between atoms: N_14  and  C_17
REMARK    5  A    between atoms: C_17  and  C_19
REMARK    6  A    between atoms: C_17  and  C_23
REMARK    7  A    between atoms: C_19  and  O_20
REMARK    8  A    between atoms: O_20  and  C_21
REMARK    9  A    between atoms: C_23  and  C_24
REMARK   10  A    between atoms: C_24  and  C_25
REMARK   11  A    between atoms: C_31  and  C_33
REMARK   12  A    between atoms: C_33  and  O_34
REMARK                            x       y       z     vdW  Elec       q    Type
REMARK                         _______ _______ _______ _____ _____    ______ ____
ROOT
ATOM      1  S   UNL     1     -34.394  25.919   4.209  0.00  0.00    -0.136 S 
ATOM      2  O   UNL     1     -37.465  27.893   1.230  0.00  0.00    -0.277 OA
ATOM      3  N   UNL     1     -37.055  25.727   1.926  0.00  0.00    -0.270 N 
ATOM      4  C   UNL     1     -35.224  27.408   1.980  0.00  0.00    +0.029 C 
ATOM      5  C   UNL     1     -35.824  24.809   3.888  0.00  0.00    +0.095 C 
ATOM      6  C   UNL     1     -34.997  27.481   3.492  0.00  0.00    +0.046 C 
ATOM      7  C   UNL     1     -36.137  24.682   2.390  0.00  0.00    +0.110 C 
ATOM      8  C   UNL     1     -36.679  27.046   1.666  0.00  0.00    +0.207 C 
ENDROOT
BRANCH   5  10
ATOM      9  S   UNL     1     -35.561  22.046   3.538  0.00  0.00    -0.090 S 
ATOM     10  C   UNL     1     -35.547  23.450   4.519  0.00  0.00    +0.019 C 
ATOM     11  C   UNL     1     -35.271  23.157   5.837  0.00  0.00    +0.004 C 
ATOM     12  C   UNL     1     -35.068  21.762   6.043  0.00  0.00    +0.007 C 
ATOM     13  C   UNL     1     -35.198  21.042   4.876  0.00  0.00    +0.035 C 
ENDBRANCH   5  10
BRANCH   4  14
ATOM     14  N   UNL     1     -34.980  28.736   1.401  0.00  0.00    +0.400 N 
ATOM     15  H   UNL     1     -35.867  29.139   1.097  0.00  0.00    -0.083 HD
ATOM     16  H   UNL     1     -34.348  28.639   0.607  0.00  0.00    -0.083 HD
BRANCH  14  17
ATOM     17  C   UNL     1     -34.369  29.615   2.384  0.00  0.00    +0.041 C 
BRANCH  17  19
ATOM     18  O   UNL     1     -35.531  31.203   3.829  0.00  0.00    -0.252 OA
ATOM     19  C   UNL     1     -35.383  30.694   2.726  0.00  0.00    +0.297 C 
BRANCH  19  20
ATOM     20  O   UNL     1     -36.096  31.012   1.603  0.00  0.00    -0.450 OA
BRANCH  20  21
ATOM     21  C   UNL     1     -36.478  32.385   1.481  0.00  0.00    +0.208 C 
ATOM     22  C   UNL     1     -37.971  32.503   1.698  0.00  0.00    +0.051 C 
ENDBRANCH  20  21
ENDBRANCH  19  20
ENDBRANCH  17  19
BRANCH  17  23
ATOM     23  C   UNL     1     -33.085  30.265   1.845  0.00  0.00    -0.006 C 
BRANCH  23  24
ATOM     24  C   UNL     1     -31.777  29.709   2.424  0.00  0.00    +0.025 C 
BRANCH  24  25
ATOM     25  C   UNL     1     -31.756  29.650   3.931  0.00  0.00    -0.022 C 
ATOM     26  C   UNL     1     -31.949  30.813   4.677  0.00  0.00    -0.004 C 
ATOM     27  C   UNL     1     -31.544  28.433   4.579  0.00  0.00    -0.004 C 
ATOM     28  C   UNL     1     -31.931  30.759   6.070  0.00  0.00    -0.000 C 
ATOM     29  C   UNL     1     -31.524  28.379   5.973  0.00  0.00    -0.000 C 
ATOM     30  C   UNL     1     -31.718  29.542   6.719  0.00  0.00    -0.000 C 
ENDBRANCH  24  25
ENDBRANCH  23  24
ENDBRANCH  17  23
ENDBRANCH  14  17
ENDBRANCH   4  14
BRANCH   3  31
ATOM     31  C   UNL     1     -38.449  25.330   1.766  0.00  0.00    +0.204 C 
BRANCH  31  33
ATOM     32  O   UNL     1     -39.553  24.442   3.712  0.00  0.00    -0.248 OA
ATOM     33  C   UNL     1     -39.236  25.420   3.048  0.00  0.00    +0.334 C 
BRANCH  33  34
ATOM     34  O   UNL     1     -39.563  26.688   3.394  0.00  0.00    -0.479 OA
ATOM     35  H   UNL     1     -39.674  27.341   2.730  0.00  0.00    +0.295 HD
ENDBRANCH  33  34
ENDBRANCH  31  33
ENDBRANCH   3  31
TORSDOF 12
ENDMDL
MODEL 4
REMARK VINA RESULT:      -6.1      4.694      7.829
REMARK  Name = 5393
REMARK  12 active torsions:
REMARK  status: ('A' for Active; 'I' for Inactive)
REMARK    1  A    between atoms: N_3  and  C_31
REMARK    2  A    between atoms: C_4  and  N_14
REMARK    3  A    between atoms: C_5  and  C_10
REMARK    4  A    between atoms: N_14  and  C_17
REMARK    5  A    between atoms: C_17  and  C_19
REMARK    6  A    between atoms: C_17  and  C_23
REMARK    7  A    between atoms: C_19  and  O_20
REMARK    8  A    between atoms: O_20  and  C_21
REMARK    9  A    between atoms: C_23  and  C_24
REMARK   10  A    between atoms: C_24  and  C_25
REMARK   11  A    between atoms: C_31  and  C_33
REMARK   12  A    between atoms: C_33  and  O_34
REMARK                            x       y       z     vdW  Elec       q    Type
REMARK                         _______ _______ _______ _____ _____    ______ ____
ROOT
ATOM      1  S   UNL     1     -38.959  25.873   2.900  0.00  0.00    -0.136 S 
ATOM      2  O   UNL     1     -37.415  22.347   0.182  0.00  0.00    -0.277 OA
ATOM      3  N   UNL     1     -39.507  23.141   0.763  0.00  0.00    -0.270 N 
ATOM      4  C   UNL     1     -37.580  23.505   2.291  0.00  0.00    +0.029 C 
ATOM      5  C   UNL     1     -40.259  25.311   1.729  0.00  0.00    +0.095 C 
ATOM      6  C   UNL     1     -37.492  25.031   2.222  0.00  0.00    +0.046 C 
ATOM      7  C   UNL     1     -40.414  23.783   1.720  0.00  0.00    +0.110 C 
ATOM      8  C   UNL     1     -38.144  22.934   0.987  0.00  0.00    +0.207 C 
ENDROOT
BRANCH   5  10
ATOM      9  S   UNL     1     -41.781  26.676   3.639  0.00  0.00    -0.090 S 
ATOM     10  C   UNL     1     -41.571  26.004   2.077  0.00  0.00    +0.019 C 
ATOM     11  C   UNL     1     -42.682  26.185   1.283  0.00  0.00    +0.004 C 
ATOM     12  C   UNL     1     -43.719  26.884   1.964  0.00  0.00    +0.007 C 
ATOM     13  C   UNL     1     -43.361  27.211   3.255  0.00  0.00    +0.035 C 
ENDBRANCH   5  10
BRANCH   4  14
ATOM     14  N   UNL     1     -36.224  22.960   2.445  0.00  0.00    +0.400 N 
ATOM     15  H   UNL     1     -35.574  23.724   2.636  0.00  0.00    -0.083 HD
ATOM     16  H   UNL     1     -35.961  22.482   1.584  0.00  0.00    -0.083 HD
BRANCH  14  17
ATOM     17  C   UNL     1     -36.180  22.010   3.543  0.00  0.00    +0.041 C 
BRANCH  17  19
ATOM     18  O   UNL     1     -36.005  22.457   5.937  0.00  0.00    -0.252 OA
ATOM     19  C   UNL     1     -35.732  22.764   4.784  0.00  0.00    +0.297 C 
BRANCH  19  20
ATOM     20  O   UNL     1     -34.966  23.833   4.407  0.00  0.00    -0.450 OA
BRANCH  20  21
ATOM     21  C   UNL     1     -34.710  24.800   5.429  0.00  0.00    +0.208 C 
ATOM     22  C   UNL     1     -35.810  25.841   5.411  0.00  0.00    +0.051 C 
ENDBRANCH  20  21
ENDBRANCH  19  20
ENDBRANCH  17  19
BRANCH  17  23
ATOM     23  C   UNL     1     -35.203  20.857   3.258  0.00  0.00    -0.006 C 
BRANCH  23  24
ATOM     24  C   UNL     1     -35.272  20.275   1.840  0.00  0.00    +0.025 C 
BRANCH  24  25
ATOM     25  C   UNL     1     -33.922  19.973   1.240  0.00  0.00    -0.022 C 
ATOM     26  C   UNL     1     -33.302  20.909   0.411  0.00  0.00    -0.004 C 
ATOM     27  C   UNL     1     -33.292  18.759   1.514  0.00  0.00    -0.004 C 
ATOM     28  C   UNL     1     -32.053  20.630  -0.143  0.00  0.00    -0.000 C 
ATOM     29  C   UNL     1     -32.043  18.480   0.960  0.00  0.00    -0.000 C 
ATOM     30  C   UNL     1     -31.423  19.416   0.131  0.00  0.00    -0.000 C 
ENDBRANCH  24  25
ENDBRANCH  23  24
ENDBRANCH  17  23
ENDBRANCH  14  17
ENDBRANCH   4  14
BRANCH   3  31
ATOM     31  C   UNL     1     -40.099  22.733  -0.506  0.00  0.00    +0.204 C 
BRANCH  31  33
ATOM     32  O   UNL     1     -42.407  22.084  -0.720  0.00  0.00    -0.248 OA
ATOM     33  C   UNL     1     -41.278  21.810  -0.334  0.00  0.00    +0.334 C 
BRANCH  33  34
ATOM     34  O   UNL     1     -40.970  20.650   0.293  0.00  0.00    -0.479 OA
ATOM     35  H   UNL     1     -40.322  20.079  -0.072  0.00  0.00    +0.295 HD
ENDBRANCH  33  34
ENDBRANCH  31  33
ENDBRANCH   3  31
TORSDOF 12
ENDMDL
MODEL 5
REMARK VINA RESULT:      -6.1      3.626      5.435
REMARK  Name = 5393
REMARK  12 active torsions:
REMARK  status: ('A' for Active; 'I' for Inactive)
REMARK    1  A    between atoms: N_3  and  C_31
REMARK    2  A    between atoms: C_4  and  N_14
REMARK    3  A    between atoms: C_5  and  C_10
REMARK    4  A    between atoms: N_14  and  C_17
REMARK    5  A    between atoms: C_17  and  C_19
REMARK    6  A    between atoms: C_17  and  C_23
REMARK    7  A    between atoms: C_19  and  O_20
REMARK    8  A    between atoms: O_20  and  C_21
REMARK    9  A    between atoms: C_23  and  C_24
REMARK   10  A    between atoms: C_24  and  C_25
REMARK   11  A    between atoms: C_31  and  C_33
REMARK   12  A    between atoms: C_33  and  O_34
REMARK                            x       y       z     vdW  Elec       q    Type
REMARK                         _______ _______ _______ _____ _____    ______ ____
ROOT
ATOM      1  S   UNL     1     -34.328  26.836   2.408  0.00  0.00    -0.136 S 
ATOM      2  O   UNL     1     -37.004  22.963   2.610  0.00  0.00    -0.277 OA
ATOM      3  N   UNL     1     -35.389  23.883   3.985  0.00  0.00    -0.270 N 
ATOM      4  C   UNL     1     -35.360  24.372   1.548  0.00  0.00    +0.029 C 
ATOM      5  C   UNL     1     -34.422  26.176   4.121  0.00  0.00    +0.095 C 
ATOM      6  C   UNL     1     -35.643  25.875   1.591  0.00  0.00    +0.046 C 
ATOM      7  C   UNL     1     -34.162  24.663   4.177  0.00  0.00    +0.110 C 
ATOM      8  C   UNL     1     -35.997  23.664   2.747  0.00  0.00    +0.207 C 
ENDROOT
BRANCH   5  10
ATOM      9  S   UNL     1     -32.430  28.131   4.299  0.00  0.00    -0.090 S 
ATOM     10  C   UNL     1     -33.445  26.944   5.002  0.00  0.00    +0.019 C 
ATOM     11  C   UNL     1     -33.239  26.826   6.359  0.00  0.00    +0.004 C 
ATOM     12  C   UNL     1     -32.234  27.721   6.827  0.00  0.00    +0.007 C 
ATOM     13  C   UNL     1     -31.711  28.489   5.810  0.00  0.00    +0.035 C 
ENDBRANCH   5  10
BRANCH   4  14
ATOM     14  N   UNL     1     -35.982  23.809   0.340  0.00  0.00    +0.400 N 
ATOM     15  H   UNL     1     -36.517  24.538  -0.132  0.00  0.00    -0.083 HD
ATOM     16  H   UNL     1     -36.595  23.042   0.612  0.00  0.00    -0.083 HD
BRANCH  14  17
ATOM     17  C   UNL     1     -34.965  23.301  -0.564  0.00  0.00    +0.041 C 
BRANCH  17  19
ATOM     18  O   UNL     1     -35.119  21.853  -2.525  0.00  0.00    -0.252 OA
ATOM     19  C   UNL     1     -35.657  22.393  -1.567  0.00  0.00    +0.297 C 
BRANCH  19  20
ATOM     20  O   UNL     1     -36.975  22.267  -1.223  0.00  0.00    -0.450 OA
BRANCH  20  21
ATOM     21  C   UNL     1     -37.509  20.942  -1.297  0.00  0.00    +0.208 C 
ATOM     22  C   UNL     1     -37.917  20.497   0.092  0.00  0.00    +0.051 C 
ENDBRANCH  20  21
ENDBRANCH  19  20
ENDBRANCH  17  19
BRANCH  17  23
ATOM     23  C   UNL     1     -33.881  22.511   0.185  0.00  0.00    -0.006 C 
BRANCH  23  24
ATOM     24  C   UNL     1     -34.301  21.114   0.664  0.00  0.00    +0.025 C 
BRANCH  24  25
ATOM     25  C   UNL     1     -33.176  20.110   0.670  0.00  0.00    -0.022 C 
ATOM     26  C   UNL     1     -33.306  18.920   1.387  0.00  0.00    -0.004 C 
ATOM     27  C   UNL     1     -32.004  20.371  -0.041  0.00  0.00    -0.004 C 
ATOM     28  C   UNL     1     -32.266  17.992   1.392  0.00  0.00    -0.000 C 
ATOM     29  C   UNL     1     -30.963  19.442  -0.035  0.00  0.00    -0.000 C 
ATOM     30  C   UNL     1     -31.094  18.252   0.682  0.00  0.00    -0.000 C 
ENDBRANCH  24  25
ENDBRANCH  23  24
ENDBRANCH  17  23
ENDBRANCH  14  17
ENDBRANCH   4  14
BRANCH   3  31
ATOM     31  C   UNL     1     -36.000  23.342   5.194  0.00  0.00    +0.204 C 
BRANCH  31  33
ATOM     32  O   UNL     1     -34.841  21.841   6.676  0.00  0.00    -0.248 OA
ATOM     33  C   UNL     1     -35.411  22.018   5.607  0.00  0.00    +0.334 C 
BRANCH  33  34
ATOM     34  O   UNL     1     -35.569  21.043   4.681  0.00  0.00    -0.479 OA
ATOM     35  H   UNL     1     -34.817  20.662   4.270  0.00  0.00    +0.295 HD
ENDBRANCH  33  34
ENDBRANCH  31  33
ENDBRANCH   3  31
TORSDOF 12
ENDMDL
MODEL 6
REMARK VINA RESULT:      -6.0      4.949      7.119
REMARK  Name = 5393
REMARK  12 active torsions:
REMARK  status: ('A' for Active; 'I' for Inactive)
REMARK    1  A    between atoms: N_3  and  C_31
REMARK    2  A    between atoms: C_4  and  N_14
REMARK    3  A    between atoms: C_5  and  C_10
REMARK    4  A    between atoms: N_14  and  C_17
REMARK    5  A    between atoms: C_17  and  C_19
REMARK    6  A    between atoms: C_17  and  C_23
REMARK    7  A    between atoms: C_19  and  O_20
REMARK    8  A    between atoms: O_20  and  C_21
REMARK    9  A    between atoms: C_23  and  C_24
REMARK   10  A    between atoms: C_24  and  C_25
REMARK   11  A    between atoms: C_31  and  C_33
REMARK   12  A    between atoms: C_33  and  O_34
REMARK                            x       y       z     vdW  Elec       q    Type
REMARK                         _______ _______ _______ _____ _____    ______ ____
ROOT
ATOM      1  S   UNL     1     -38.558  22.506   0.554  0.00  0.00    -0.136 S 
ATOM      2  O   UNL     1     -35.356  20.486   3.359  0.00  0.00    -0.277 OA
ATOM      3  N   UNL     1     -35.677  22.630   2.556  0.00  0.00    -0.270 N 
ATOM      4  C   UNL     1     -36.543  20.689   1.269  0.00  0.00    +0.029 C 
ATOM      5  C   UNL     1     -37.660  23.759   1.555  0.00  0.00    +0.095 C 
ATOM      6  C   UNL     1     -38.044  20.966   1.379  0.00  0.00    +0.046 C 
ATOM      7  C   UNL     1     -36.138  23.554   1.515  0.00  0.00    +0.110 C 
ATOM      8  C   UNL     1     -35.797  21.241   2.487  0.00  0.00    +0.207 C 
ENDROOT
BRANCH   5  10
ATOM      9  S   UNL     1     -39.540  25.373   0.259  0.00  0.00    -0.090 S 
ATOM     10  C   UNL     1     -38.050  25.151   1.073  0.00  0.00    +0.019 C 
ATOM     11  C   UNL     1     -37.348  26.329   1.197  0.00  0.00    +0.004 C 
ATOM     12  C   UNL     1     -38.041  27.429   0.617  0.00  0.00    +0.007 C 
ATOM     13  C   UNL     1     -39.248  27.049   0.070  0.00  0.00    +0.035 C 
ENDBRANCH   5  10
BRANCH   4  14
ATOM     14  N   UNL     1     -36.330  19.234   1.261  0.00  0.00    +0.400 N 
ATOM     15  H   UNL     1     -37.235  18.762   1.286  0.00  0.00    -0.083 HD
ATOM     16  H   UNL     1     -35.776  18.977   2.077  0.00  0.00    -0.083 HD
BRANCH  14  17
ATOM     17  C   UNL     1     -35.615  18.832   0.062  0.00  0.00    +0.041 C 
BRANCH  17  19
ATOM     18  O   UNL     1     -36.460  17.791  -1.979  0.00  0.00    -0.252 OA
ATOM     19  C   UNL     1     -36.563  17.990  -0.775  0.00  0.00    +0.297 C 
BRANCH  19  20
ATOM     20  O   UNL     1     -37.544  17.481   0.032  0.00  0.00    -0.450 OA
BRANCH  20  21
ATOM     21  C   UNL     1     -37.695  16.059  -0.001  0.00  0.00    +0.208 C 
ATOM     22  C   UNL     1     -39.022  15.719  -0.644  0.00  0.00    +0.051 C 
ENDBRANCH  20  21
ENDBRANCH  19  20
ENDBRANCH  17  19
BRANCH  17  23
ATOM     23  C   UNL     1     -34.358  18.014   0.398  0.00  0.00    -0.006 C 
BRANCH  23  24
ATOM     24  C   UNL     1     -33.335  18.724   1.296  0.00  0.00    +0.025 C 
BRANCH  24  25
ATOM     25  C   UNL     1     -32.299  19.510   0.534  0.00  0.00    -0.022 C 
ATOM     26  C   UNL     1     -31.042  18.954   0.289  0.00  0.00    -0.004 C 
ATOM     27  C   UNL     1     -32.595  20.792   0.071  0.00  0.00    -0.004 C 
ATOM     28  C   UNL     1     -30.084  19.680  -0.417  0.00  0.00    -0.000 C 
ATOM     29  C   UNL     1     -31.636  21.519  -0.634  0.00  0.00    -0.000 C 
ATOM     30  C   UNL     1     -30.380  20.963  -0.878  0.00  0.00    -0.000 C 
ENDBRANCH  24  25
ENDBRANCH  23  24
ENDBRANCH  17  23
ENDBRANCH  14  17
ENDBRANCH   4  14
BRANCH   3  31
ATOM     31  C   UNL     1     -35.085  23.244   3.740  0.00  0.00    +0.204 C 
BRANCH  31  33
ATOM     32  O   UNL     1     -36.727  24.468   5.005  0.00  0.00    -0.248 OA
ATOM     33  C   UNL     1     -36.077  23.441   4.857  0.00  0.00    +0.334 C 
BRANCH  33  34
ATOM     34  O   UNL     1     -36.178  22.375   5.686  0.00  0.00    -0.479 OA
ATOM     35  H   UNL     1     -36.785  22.393   6.401  0.00  0.00    +0.295 HD
ENDBRANCH  33  34
ENDBRANCH  31  33
ENDBRANCH   3  31
TORSDOF 12
ENDMDL
MODEL 7
REMARK VINA RESULT:      -6.0      5.824     10.414
REMARK  Name = 5393
REMARK  12 active torsions:
REMARK  status: ('A' for Active; 'I' for Inactive)
REMARK    1  A    between atoms: N_3  and  C_31
REMARK    2  A    between atoms: C_4  and  N_14
REMARK    3  A    between atoms: C_5  and  C_10
REMARK    4  A    between atoms: N_14  and  C_17
REMARK    5  A    between atoms: C_17  and  C_19
REMARK    6  A    between atoms: C_17  and  C_23
REMARK    7  A    between atoms: C_19  and  O_20
REMARK    8  A    between atoms: O_20  and  C_21
REMARK    9  A    between atoms: C_23  and  C_24
REMARK   10  A    between atoms: C_24  and  C_25
REMARK   11  A    between atoms: C_31  and  C_33
REMARK   12  A    between atoms: C_33  and  O_34
REMARK                            x       y       z     vdW  Elec       q    Type
REMARK                         _______ _______ _______ _____ _____    ______ ____
ROOT
ATOM      1  S   UNL     1     -34.324  19.725   1.600  0.00  0.00    -0.136 S 
ATOM      2  O   UNL     1     -38.454  18.654  -0.401  0.00  0.00    -0.277 OA
ATOM      3  N   UNL     1     -36.254  18.091  -0.836  0.00  0.00    -0.270 N 
ATOM      4  C   UNL     1     -36.775  20.226   0.327  0.00  0.00    +0.029 C 
ATOM      5  C   UNL     1     -34.192  18.218   0.557  0.00  0.00    +0.095 C 
ATOM      6  C   UNL     1     -36.133  19.933   1.685  0.00  0.00    +0.046 C 
ATOM      7  C   UNL     1     -34.823  18.413  -0.830  0.00  0.00    +0.110 C 
ATOM      8  C   UNL     1     -37.252  18.932  -0.339  0.00  0.00    +0.207 C 
ENDROOT
BRANCH   5  10
ATOM      9  S   UNL     1     -32.317  16.276  -0.179  0.00  0.00    -0.090 S 
ATOM     10  C   UNL     1     -32.726  17.815   0.452  0.00  0.00    +0.019 C 
ATOM     11  C   UNL     1     -31.610  18.540   0.809  0.00  0.00    +0.004 C 
ATOM     12  C   UNL     1     -30.405  17.824   0.561  0.00  0.00    +0.007 C 
ATOM     13  C   UNL     1     -30.645  16.577   0.024  0.00  0.00    +0.035 C 
ENDBRANCH   5  10
BRANCH   4  14
ATOM     14  N   UNL     1     -37.965  21.062   0.537  0.00  0.00    +0.400 N 
ATOM     15  H   UNL     1     -38.757  20.464   0.779  0.00  0.00    -0.083 HD
ATOM     16  H   UNL     1     -38.163  21.577  -0.320  0.00  0.00    -0.083 HD
BRANCH  14  17
ATOM     17  C   UNL     1     -37.736  22.010   1.614  0.00  0.00    +0.041 C 
BRANCH  17  19
ATOM     18  O   UNL     1     -40.100  21.668   2.122  0.00  0.00    -0.252 OA
ATOM     19  C   UNL     1     -39.087  22.349   2.221  0.00  0.00    +0.297 C 
BRANCH  19  20
ATOM     20  O   UNL     1     -38.989  23.531   2.903  0.00  0.00    -0.450 OA
BRANCH  20  21
ATOM     21  C   UNL     1     -40.059  24.456   2.693  0.00  0.00    +0.208 C 
ATOM     22  C   UNL     1     -39.551  25.862   2.934  0.00  0.00    +0.051 C 
ENDBRANCH  20  21
ENDBRANCH  19  20
ENDBRANCH  17  19
BRANCH  17  23
ATOM     23  C   UNL     1     -37.061  23.294   1.106  0.00  0.00    -0.006 C 
BRANCH  23  24
ATOM     24  C   UNL     1     -35.648  23.550   1.649  0.00  0.00    +0.025 C 
BRANCH  24  25
ATOM     25  C   UNL     1     -35.628  24.144   3.035  0.00  0.00    -0.022 C 
ATOM     26  C   UNL     1     -35.861  25.508   3.213  0.00  0.00    -0.004 C 
ATOM     27  C   UNL     1     -35.377  23.330   4.140  0.00  0.00    -0.004 C 
ATOM     28  C   UNL     1     -35.844  26.057   4.495  0.00  0.00    -0.000 C 
ATOM     29  C   UNL     1     -35.358  23.879   5.422  0.00  0.00    -0.000 C 
ATOM     30  C   UNL     1     -35.592  25.243   5.599  0.00  0.00    -0.000 C 
ENDBRANCH  24  25
ENDBRANCH  23  24
ENDBRANCH  17  23
ENDBRANCH  14  17
ENDBRANCH   4  14
BRANCH   3  31
ATOM     31  C   UNL     1     -36.615  16.786  -1.379  0.00  0.00    +0.204 C 
BRANCH  31  33
ATOM     32  O   UNL     1     -35.720  14.773  -0.409  0.00  0.00    -0.248 OA
ATOM     33  C   UNL     1     -36.538  15.683  -0.356  0.00  0.00    +0.334 C 
BRANCH  33  34
ATOM     34  O   UNL     1     -37.463  15.790   0.627  0.00  0.00    -0.479 OA
ATOM     35  H   UNL     1     -38.294  16.186   0.447  0.00  0.00    +0.295 HD
ENDBRANCH  33  34
ENDBRANCH  31  33
ENDBRANCH   3  31
TORSDOF 12
ENDMDL
MODEL 8
REMARK VINA RESULT:      -6.0      1.168      1.651
REMARK  Name = 5393
REMARK  12 active torsions:
REMARK  status: ('A' for Active; 'I' for Inactive)
REMARK    1  A    between atoms: N_3  and  C_31
REMARK    2  A    between atoms: C_4  and  N_14
REMARK    3  A    between atoms: C_5  and  C_10
REMARK    4  A    between atoms: N_14  and  C_17
REMARK    5  A    between atoms: C_17  and  C_19
REMARK    6  A    between atoms: C_17  and  C_23
REMARK    7  A    between atoms: C_19  and  O_20
REMARK    8  A    between atoms: O_20  and  C_21
REMARK    9  A    between atoms: C_23  and  C_24
REMARK   10  A    between atoms: C_24  and  C_25
REMARK   11  A    between atoms: C_31  and  C_33
REMARK   12  A    between atoms: C_33  and  O_34
REMARK                            x       y       z     vdW  Elec       q    Type
REMARK                         _______ _______ _______ _____ _____    ______ ____
ROOT
ATOM      1  S   UNL     1     -35.540  29.202   2.048  0.00  0.00    -0.136 S 
ATOM      2  O   UNL     1     -32.591  26.356   4.374  0.00  0.00    -0.277 OA
ATOM      3  N   UNL     1     -32.411  28.475   3.466  0.00  0.00    -0.270 N 
ATOM      4  C   UNL     1     -34.059  26.867   2.530  0.00  0.00    +0.029 C 
ATOM      5  C   UNL     1     -34.125  30.138   2.757  0.00  0.00    +0.095 C 
ATOM      6  C   UNL     1     -35.354  27.598   2.891  0.00  0.00    +0.046 C 
ATOM      7  C   UNL     1     -32.775  29.471   2.453  0.00  0.00    +0.110 C 
ATOM      8  C   UNL     1     -32.953  27.190   3.538  0.00  0.00    +0.207 C 
ENDROOT
BRANCH   5  10
ATOM      9  S   UNL     1     -35.496  32.079   1.281  0.00  0.00    -0.090 S 
ATOM     10  C   UNL     1     -34.170  31.571   2.239  0.00  0.00    +0.019 C 
ATOM     11  C   UNL     1     -33.254  32.581   2.432  0.00  0.00    +0.004 C 
ATOM     12  C   UNL     1     -33.646  33.789   1.786  0.00  0.00    +0.007 C 
ATOM     13  C   UNL     1     -34.847  33.655   1.123  0.00  0.00    +0.035 C 
ENDBRANCH   5  10
BRANCH   4  14
ATOM     14  N   UNL     1     -34.297  25.419   2.606  0.00  0.00    +0.400 N 
ATOM     15  H   UNL     1     -33.938  25.066   3.494  0.00  0.00    -0.083 HD
ATOM     16  H   UNL     1     -33.820  24.964   1.828  0.00  0.00    -0.083 HD
BRANCH  14  17
ATOM     17  C   UNL     1     -35.718  25.132   2.518  0.00  0.00    +0.041 C 
BRANCH  17  19
ATOM     18  O   UNL     1     -37.288  24.523   4.287  0.00  0.00    -0.252 OA
ATOM     19  C   UNL     1     -36.146  24.526   3.844  0.00  0.00    +0.297 C 
BRANCH  19  20
ATOM     20  O   UNL     1     -35.055  23.977   4.459  0.00  0.00    -0.450 OA
BRANCH  20  21
ATOM     21  C   UNL     1     -35.295  23.405   5.749  0.00  0.00    +0.208 C 
ATOM     22  C   UNL     1     -35.261  21.896   5.634  0.00  0.00    +0.051 C 
ENDBRANCH  20  21
ENDBRANCH  19  20
ENDBRANCH  17  19
BRANCH  17  23
ATOM     23  C   UNL     1     -36.031  24.151   1.377  0.00  0.00    -0.006 C 
BRANCH  23  24
ATOM     24  C   UNL     1     -34.808  23.615   0.621  0.00  0.00    +0.025 C 
BRANCH  24  25
ATOM     25  C   UNL     1     -34.497  22.169   0.914  0.00  0.00    -0.022 C 
ATOM     26  C   UNL     1     -33.472  21.521   0.224  0.00  0.00    -0.004 C 
ATOM     27  C   UNL     1     -35.235  21.477   1.875  0.00  0.00    -0.004 C 
ATOM     28  C   UNL     1     -33.184  20.184   0.496  0.00  0.00    -0.000 C 
ATOM     29  C   UNL     1     -34.948  20.139   2.146  0.00  0.00    -0.000 C 
ATOM     30  C   UNL     1     -33.922  19.493   1.457  0.00  0.00    -0.000 C 
ENDBRANCH  24  25
ENDBRANCH  23  24
ENDBRANCH  17  23
ENDBRANCH  14  17
ENDBRANCH   4  14
BRANCH   3  31
ATOM     31  C   UNL     1     -31.437  28.903   4.464  0.00  0.00    +0.204 C 
BRANCH  31  33
ATOM     32  O   UNL     1     -32.209  28.607   6.725  0.00  0.00    -0.248 OA
ATOM     33  C   UNL     1     -32.075  29.344   5.756  0.00  0.00    +0.334 C 
BRANCH  33  34
ATOM     34  O   UNL     1     -32.489  30.633   5.743  0.00  0.00    -0.479 OA
ATOM     35  H   UNL     1     -31.884  31.322   5.938  0.00  0.00    +0.295 HD
ENDBRANCH  33  34
ENDBRANCH  31  33
ENDBRANCH   3  31
TORSDOF 12
ENDMDL
MODEL 9
REMARK VINA RESULT:      -5.9      4.594      6.756
REMARK  Name = 5393
REMARK  12 active torsions:
REMARK  status: ('A' for Active; 'I' for Inactive)
REMARK    1  A    between atoms: N_3  and  C_31
REMARK    2  A    between atoms: C_4  and  N_14
REMARK    3  A    between atoms: C_5  and  C_10
REMARK    4  A    between atoms: N_14  and  C_17
REMARK    5  A    between atoms: C_17  and  C_19
REMARK    6  A    between atoms: C_17  and  C_23
REMARK    7  A    between atoms: C_19  and  O_20
REMARK    8  A    between atoms: O_20  and  C_21
REMARK    9  A    between atoms: C_23  and  C_24
REMARK   10  A    between atoms: C_24  and  C_25
REMARK   11  A    between atoms: C_31  and  C_33
REMARK   12  A    between atoms: C_33  and  O_34
REMARK                            x       y       z     vdW  Elec       q    Type
REMARK                         _______ _______ _______ _____ _____    ______ ____
ROOT
ATOM      1  S   UNL     1     -35.894  24.213   1.208  0.00  0.00    -0.136 S 
ATOM      2  O   UNL     1     -40.151  22.511   2.299  0.00  0.00    -0.277 OA
ATOM      3  N   UNL     1     -38.906  24.326   3.009  0.00  0.00    -0.270 N 
ATOM      4  C   UNL     1     -37.754  22.315   2.111  0.00  0.00    +0.029 C 
ATOM      5  C   UNL     1     -36.938  25.490   2.020  0.00  0.00    +0.095 C 
ATOM      6  C   UNL     1     -37.133  22.925   0.852  0.00  0.00    +0.046 C 
ATOM      7  C   UNL     1     -37.617  24.963   3.294  0.00  0.00    +0.110 C 
ATOM      8  C   UNL     1     -39.050  23.041   2.483  0.00  0.00    +0.207 C 
ENDROOT
BRANCH   5  10
ATOM      9  S   UNL     1     -36.303  28.136   1.373  0.00  0.00    -0.090 S 
ATOM     10  C   UNL     1     -36.083  26.718   2.309  0.00  0.00    +0.019 C 
ATOM     11  C   UNL     1     -35.102  26.875   3.262  0.00  0.00    +0.004 C 
ATOM     12  C   UNL     1     -34.522  28.175   3.225  0.00  0.00    +0.007 C 
ATOM     13  C   UNL     1     -35.083  28.963   2.243  0.00  0.00    +0.035 C 
ENDBRANCH   5  10
BRANCH   4  14
ATOM     14  N   UNL     1     -38.113  20.917   1.830  0.00  0.00    +0.400 N 
ATOM     15  H   UNL     1     -39.090  20.873   1.540  0.00  0.00    -0.083 HD
ATOM     16  H   UNL     1     -37.972  20.364   2.675  0.00  0.00    -0.083 HD
BRANCH  14  17
ATOM     17  C   UNL     1     -37.275  20.380   0.772  0.00  0.00    +0.041 C 
BRANCH  17  19
ATOM     18  O   UNL     1     -39.314  19.824  -0.451  0.00  0.00    -0.252 OA
ATOM     19  C   UNL     1     -38.164  19.548  -0.138  0.00  0.00    +0.297 C 
BRANCH  19  20
ATOM     20  O   UNL     1     -37.469  18.448  -0.559  0.00  0.00    -0.450 OA
BRANCH  20  21
ATOM     21  C   UNL     1     -38.262  17.300  -0.876  0.00  0.00    +0.208 C 
ATOM     22  C   UNL     1     -37.778  16.124  -0.055  0.00  0.00    +0.051 C 
ENDBRANCH  20  21
ENDBRANCH  19  20
ENDBRANCH  17  19
BRANCH  17  23
ATOM     23  C   UNL     1     -36.144  19.503   1.332  0.00  0.00    -0.006 C 
BRANCH  23  24
ATOM     24  C   UNL     1     -34.913  20.267   1.839  0.00  0.00    +0.025 C 
BRANCH  24  25
ATOM     25  C   UNL     1     -33.614  19.795   1.235  0.00  0.00    -0.022 C 
ATOM     26  C   UNL     1     -33.131  18.519   1.528  0.00  0.00    -0.004 C 
ATOM     27  C   UNL     1     -32.895  20.634   0.383  0.00  0.00    -0.004 C 
ATOM     28  C   UNL     1     -31.930  18.083   0.969  0.00  0.00    -0.000 C 
ATOM     29  C   UNL     1     -31.693  20.197  -0.175  0.00  0.00    -0.000 C 
ATOM     30  C   UNL     1     -31.211  18.921   0.118  0.00  0.00    -0.000 C 
ENDBRANCH  24  25
ENDBRANCH  23  24
ENDBRANCH  17  23
ENDBRANCH  14  17
ENDBRANCH   4  14
BRANCH   3  31
ATOM     31  C   UNL     1     -40.092  25.131   3.281  0.00  0.00    +0.204 C 
BRANCH  31  33
ATOM     32  O   UNL     1     -40.205  26.941   1.698  0.00  0.00    -0.248 OA
ATOM     33  C   UNL     1     -40.611  25.843   2.058  0.00  0.00    +0.334 C 
BRANCH  33  34
ATOM     34  O   UNL     1     -41.572  25.156   1.398  0.00  0.00    -0.479 OA
ATOM     35  H   UNL     1     -42.001  25.542   0.659  0.00  0.00    +0.295 HD
ENDBRANCH  33  34
ENDBRANCH  31  33
ENDBRANCH   3  31
TORSDOF 12
ENDMDL
