MODEL 1
REMARK VINA RESULT:      -6.6      0.000      0.000
REMARK  Name = 192000
REMARK  3 active torsions:
REMARK  status: ('A' for Active; 'I' for Inactive)
REMARK    1  A    between atoms: C_2  and  C_9
REMARK    2  A    between atoms: C_4  and  C_19
REMARK    3  A    between atoms: C_5  and  N_18
REMARK                            x       y       z     vdW  Elec       q    Type
REMARK                         _______ _______ _______ _____ _____    ______ ____
ROOT
ATOM      1  O   UNL     1     -34.269  24.981   5.743  0.00  0.00    -0.424 OA
ATOM      2  C   UNL     1     -36.021  24.895   4.338  0.00  0.00    +0.074 C 
ATOM      3  C   UNL     1     -35.394  26.155   4.189  0.00  0.00    +0.069 C 
ATOM      4  C   UNL     1     -35.300  24.218   5.293  0.00  0.00    +0.192 C 
ATOM      5  C   UNL     1     -34.333  26.158   5.066  0.00  0.00    +0.290 C 
ENDROOT
BRANCH   2   9
ATOM      6  N   UNL     1     -37.093  23.065   3.306  0.00  0.00    -0.332 NA
ATOM      7  N   UNL     1     -39.311  23.255   2.383  0.00  0.00    -0.337 NA
ATOM      8  N   UNL     1     -38.134  21.227   2.284  0.00  0.00    -0.283 N 
ATOM      9  C   UNL     1     -37.172  24.362   3.668  0.00  0.00    +0.133 C 
ATOM     10  C   UNL     1     -38.272  25.160   3.425  0.00  0.00    +0.115 C 
ATOM     11  C   UNL     1     -39.322  24.546   2.773  0.00  0.00    +0.108 C 
ATOM     12  C   UNL     1     -38.182  22.583   2.677  0.00  0.00    +0.195 C 
ATOM     13  C   UNL     1     -40.555  25.328   2.467  0.00  0.00    +0.063 C 
ATOM     14  H   UNL     1     -37.332  20.688   2.472  0.00  0.00    +0.156 HD
ATOM     15  H   UNL     1     -38.902  20.822   1.819  0.00  0.00    +0.156 HD
ENDBRANCH   2   9
BRANCH   5  18
ATOM     16  O   UNL     1     -33.193  28.122   4.667  0.00  0.00    -0.123 OA
ATOM     17  O   UNL     1     -32.606  26.905   6.398  0.00  0.00    -0.123 OA
ATOM     18  N   UNL     1     -33.346  27.091   5.387  0.00  0.00    +0.093 N 
ENDBRANCH   5  18
BRANCH   4  19
ATOM     19  C   UNL     1     -35.432  22.932   5.867  0.00  0.00    -0.014 C 
ATOM     20  C   UNL     1     -35.545  21.823   6.361  0.00  0.00    -0.006 C 
ENDBRANCH   4  19
TORSDOF 3
ENDMDL
MODEL 2
REMARK VINA RESULT:      -6.5      1.013      1.923
REMARK  Name = 192000
REMARK  3 active torsions:
REMARK  status: ('A' for Active; 'I' for Inactive)
REMARK    1  A    between atoms: C_2  and  C_9
REMARK    2  A    between atoms: C_4  and  C_19
REMARK    3  A    between atoms: C_5  and  N_18
REMARK                            x       y       z     vdW  Elec       q    Type
REMARK                         _______ _______ _______ _____ _____    ______ ____
ROOT
ATOM      1  O   UNL     1     -34.113  24.963   5.824  0.00  0.00    -0.424 OA
ATOM      2  C   UNL     1     -35.914  24.960   4.480  0.00  0.00    +0.074 C 
ATOM      3  C   UNL     1     -35.297  26.231   4.393  0.00  0.00    +0.069 C 
ATOM      4  C   UNL     1     -35.157  24.225   5.362  0.00  0.00    +0.192 C 
ATOM      5  C   UNL     1     -34.205  26.182   5.229  0.00  0.00    +0.290 C 
ENDROOT
BRANCH   2   9
ATOM      6  N   UNL     1     -38.204  25.207   3.973  0.00  0.00    -0.332 NA
ATOM      7  N   UNL     1     -39.374  23.611   2.599  0.00  0.00    -0.337 NA
ATOM      8  N   UNL     1     -40.484  25.479   3.486  0.00  0.00    -0.283 N 
ATOM      9  C   UNL     1     -37.087  24.466   3.818  0.00  0.00    +0.133 C 
ATOM     10  C   UNL     1     -37.036  23.302   3.079  0.00  0.00    +0.115 C 
ATOM     11  C   UNL     1     -38.222  22.919   2.486  0.00  0.00    +0.108 C 
ATOM     12  C   UNL     1     -39.295  24.728   3.346  0.00  0.00    +0.195 C 
ATOM     13  C   UNL     1     -38.265  21.674   1.666  0.00  0.00    +0.063 C 
ATOM     14  H   UNL     1     -40.483  26.305   4.022  0.00  0.00    +0.156 HD
ATOM     15  H   UNL     1     -41.312  25.176   3.049  0.00  0.00    +0.156 HD
ENDBRANCH   2   9
BRANCH   5  18
ATOM     16  O   UNL     1     -32.995  28.105   4.840  0.00  0.00    -0.123 OA
ATOM     17  O   UNL     1     -32.527  26.918   6.627  0.00  0.00    -0.123 OA
ATOM     18  N   UNL     1     -33.211  27.097   5.576  0.00  0.00    +0.093 N 
ENDBRANCH   5  18
BRANCH   4  19
ATOM     19  C   UNL     1     -35.264  22.904   5.854  0.00  0.00    -0.014 C 
ATOM     20  C   UNL     1     -35.356  21.764   6.276  0.00  0.00    -0.006 C 
ENDBRANCH   4  19
TORSDOF 3
ENDMDL
MODEL 3
REMARK VINA RESULT:      -6.4      3.606      5.176
REMARK  Name = 192000
REMARK  3 active torsions:
REMARK  status: ('A' for Active; 'I' for Inactive)
REMARK    1  A    between atoms: C_2  and  C_9
REMARK    2  A    between atoms: C_4  and  C_19
REMARK    3  A    between atoms: C_5  and  N_18
REMARK                            x       y       z     vdW  Elec       q    Type
REMARK                         _______ _______ _______ _____ _____    ______ ____
ROOT
ATOM      1  O   UNL     1     -34.899  20.413   3.317  0.00  0.00    -0.424 OA
ATOM      2  C   UNL     1     -35.893  22.332   2.702  0.00  0.00    +0.074 C 
ATOM      3  C   UNL     1     -35.620  21.580   1.535  0.00  0.00    +0.069 C 
ATOM      4  C   UNL     1     -35.436  21.581   3.759  0.00  0.00    +0.192 C 
ATOM      5  C   UNL     1     -35.016  20.420   1.963  0.00  0.00    +0.290 C 
ENDROOT
BRANCH   2   9
ATOM      6  N   UNL     1     -37.794  23.613   3.258  0.00  0.00    -0.332 NA
ATOM      7  N   UNL     1     -37.784  26.018   3.118  0.00  0.00    -0.337 NA
ATOM      8  N   UNL     1     -39.702  24.860   3.816  0.00  0.00    -0.283 N 
ATOM      9  C   UNL     1     -36.513  23.620   2.835  0.00  0.00    +0.133 C 
ATOM     10  C   UNL     1     -35.810  24.769   2.538  0.00  0.00    +0.115 C 
ATOM     11  C   UNL     1     -36.504  25.951   2.700  0.00  0.00    +0.108 C 
ATOM     12  C   UNL     1     -38.360  24.829   3.375  0.00  0.00    +0.195 C 
ATOM     13  C   UNL     1     -35.827  27.247   2.404  0.00  0.00    +0.063 C 
ATOM     14  H   UNL     1     -40.173  24.019   4.018  0.00  0.00    +0.156 HD
ATOM     15  H   UNL     1     -40.166  25.721   3.919  0.00  0.00    +0.156 HD
ENDBRANCH   2   9
BRANCH   5  18
ATOM     16  O   UNL     1     -33.408  18.793   1.668  0.00  0.00    -0.123 OA
ATOM     17  O   UNL     1     -35.175  18.767   0.364  0.00  0.00    -0.123 OA
ATOM     18  N   UNL     1     -34.517  19.291   1.311  0.00  0.00    +0.093 N 
ENDBRANCH   5  18
BRANCH   4  19
ATOM     19  C   UNL     1     -35.423  21.794   5.157  0.00  0.00    -0.014 C 
ATOM     20  C   UNL     1     -35.412  21.977   6.362  0.00  0.00    -0.006 C 
ENDBRANCH   4  19
TORSDOF 3
ENDMDL
MODEL 4
REMARK VINA RESULT:      -6.3      2.438      4.339
REMARK  Name = 192000
REMARK  3 active torsions:
REMARK  status: ('A' for Active; 'I' for Inactive)
REMARK    1  A    between atoms: C_2  and  C_9
REMARK    2  A    between atoms: C_4  and  C_19
REMARK    3  A    between atoms: C_5  and  N_18
REMARK                            x       y       z     vdW  Elec       q    Type
REMARK                         _______ _______ _______ _____ _____    ______ ____
ROOT
ATOM      1  O   UNL     1     -32.128  28.012   4.589  0.00  0.00    -0.424 OA
ATOM      2  C   UNL     1     -33.601  26.451   5.252  0.00  0.00    +0.074 C 
ATOM      3  C   UNL     1     -33.027  27.037   6.405  0.00  0.00    +0.069 C 
ATOM      4  C   UNL     1     -33.023  27.077   4.173  0.00  0.00    +0.192 C 
ATOM      5  C   UNL     1     -32.137  27.981   5.947  0.00  0.00    +0.290 C 
ENDROOT
BRANCH   2   9
ATOM      6  N   UNL     1     -35.801  25.799   4.702  0.00  0.00    -0.332 NA
ATOM      7  N   UNL     1     -36.535  23.515   4.921  0.00  0.00    -0.337 NA
ATOM      8  N   UNL     1     -37.996  25.181   4.149  0.00  0.00    -0.283 N 
ATOM      9  C   UNL     1     -34.588  25.413   5.149  0.00  0.00    +0.133 C 
ATOM     10  C   UNL     1     -34.276  24.114   5.497  0.00  0.00    +0.115 C 
ATOM     11  C   UNL     1     -35.300  23.199   5.362  0.00  0.00    +0.108 C 
ATOM     12  C   UNL     1     -36.714  24.813   4.614  0.00  0.00    +0.195 C 
ATOM     13  C   UNL     1     -35.058  21.769   5.713  0.00  0.00    +0.063 C 
ATOM     14  H   UNL     1     -38.183  26.117   3.911  0.00  0.00    +0.156 HD
ATOM     15  H   UNL     1     -38.703  24.501   4.065  0.00  0.00    +0.156 HD
ENDBRANCH   2   9
BRANCH   5  18
ATOM     16  O   UNL     1     -30.040  28.879   6.287  0.00  0.00    -0.123 OA
ATOM     17  O   UNL     1     -31.727  29.699   7.429  0.00  0.00    -0.123 OA
ATOM     18  N   UNL     1     -31.274  28.881   6.575  0.00  0.00    +0.093 N 
ENDBRANCH   5  18
BRANCH   4  19
ATOM     19  C   UNL     1     -33.182  26.931   2.776  0.00  0.00    -0.014 C 
ATOM     20  C   UNL     1     -33.321  26.805   1.571  0.00  0.00    -0.006 C 
ENDBRANCH   4  19
TORSDOF 3
ENDMDL
MODEL 5
REMARK VINA RESULT:      -6.3      1.373      2.507
REMARK  Name = 192000
REMARK  3 active torsions:
REMARK  status: ('A' for Active; 'I' for Inactive)
REMARK    1  A    between atoms: C_2  and  C_9
REMARK    2  A    between atoms: C_4  and  C_19
REMARK    3  A    between atoms: C_5  and  N_18
REMARK                            x       y       z     vdW  Elec       q    Type
REMARK                         _______ _______ _______ _____ _____    ______ ____
ROOT
ATOM      1  O   UNL     1     -34.554  24.812   5.489  0.00  0.00    -0.424 OA
ATOM      2  C   UNL     1     -35.788  23.988   3.801  0.00  0.00    +0.074 C 
ATOM      3  C   UNL     1     -35.303  25.261   3.417  0.00  0.00    +0.069 C 
ATOM      4  C   UNL     1     -35.305  23.760   5.069  0.00  0.00    +0.192 C 
ATOM      5  C   UNL     1     -34.557  25.720   4.478  0.00  0.00    +0.290 C 
ENDROOT
BRANCH   2   9
ATOM      6  N   UNL     1     -37.924  23.389   3.002  0.00  0.00    -0.332 NA
ATOM      7  N   UNL     1     -38.277  21.381   1.718  0.00  0.00    -0.337 NA
ATOM      8  N   UNL     1     -40.062  22.818   2.221  0.00  0.00    -0.283 N 
ATOM      9  C   UNL     1     -36.616  23.068   3.075  0.00  0.00    +0.133 C 
ATOM     10  C   UNL     1     -36.071  21.936   2.504  0.00  0.00    +0.115 C 
ATOM     11  C   UNL     1     -36.958  21.122   1.831  0.00  0.00    +0.108 C 
ATOM     12  C   UNL     1     -38.687  22.514   2.318  0.00  0.00    +0.195 C 
ATOM     13  C   UNL     1     -36.462  19.875   1.179  0.00  0.00    +0.063 C 
ATOM     14  H   UNL     1     -40.417  23.634   2.642  0.00  0.00    +0.156 HD
ATOM     15  H   UNL     1     -40.667  22.214   1.733  0.00  0.00    +0.156 HD
ENDBRANCH   2   9
BRANCH   5  18
ATOM     16  O   UNL     1     -32.934  26.903   5.612  0.00  0.00    -0.123 OA
ATOM     17  O   UNL     1     -34.068  27.929   4.036  0.00  0.00    -0.123 OA
ATOM     18  N   UNL     1     -33.830  26.888   4.716  0.00  0.00    +0.093 N 
ENDBRANCH   5  18
BRANCH   4  19
ATOM     19  C   UNL     1     -35.443  22.680   5.971  0.00  0.00    -0.014 C 
ATOM     20  C   UNL     1     -35.562  21.750   6.750  0.00  0.00    -0.006 C 
ENDBRANCH   4  19
TORSDOF 3
ENDMDL
MODEL 6
REMARK VINA RESULT:      -6.2      1.118      1.261
REMARK  Name = 192000
REMARK  3 active torsions:
REMARK  status: ('A' for Active; 'I' for Inactive)
REMARK    1  A    between atoms: C_2  and  C_9
REMARK    2  A    between atoms: C_4  and  C_19
REMARK    3  A    between atoms: C_5  and  N_18
REMARK                            x       y       z     vdW  Elec       q    Type
REMARK                         _______ _______ _______ _____ _____    ______ ____
ROOT
ATOM      1  O   UNL     1     -34.423  24.851   5.497  0.00  0.00    -0.424 OA
ATOM      2  C   UNL     1     -35.814  24.161   3.873  0.00  0.00    +0.074 C 
ATOM      3  C   UNL     1     -35.296  25.426   3.506  0.00  0.00    +0.069 C 
ATOM      4  C   UNL     1     -35.253  23.855   5.090  0.00  0.00    +0.192 C 
ATOM      5  C   UNL     1     -34.454  25.802   4.527  0.00  0.00    +0.290 C 
ENDROOT
BRANCH   2   9
ATOM      6  N   UNL     1     -36.331  22.043   2.973  0.00  0.00    -0.332 NA
ATOM      7  N   UNL     1     -38.420  21.622   1.848  0.00  0.00    -0.337 NA
ATOM      8  N   UNL     1     -36.816  19.925   2.086  0.00  0.00    -0.283 N 
ATOM      9  C   UNL     1     -36.737  23.314   3.173  0.00  0.00    +0.133 C 
ATOM     10  C   UNL     1     -37.953  23.806   2.746  0.00  0.00    +0.115 C 
ATOM     11  C   UNL     1     -38.761  22.906   2.082  0.00  0.00    +0.108 C 
ATOM     12  C   UNL     1     -37.208  21.263   2.313  0.00  0.00    +0.195 C 
ATOM     13  C   UNL     1     -40.097  23.346   1.583  0.00  0.00    +0.063 C 
ATOM     14  H   UNL     1     -35.940  19.609   2.404  0.00  0.00    +0.156 HD
ATOM     15  H   UNL     1     -37.418  19.311   1.608  0.00  0.00    +0.156 HD
ENDBRANCH   2   9
BRANCH   5  18
ATOM     16  O   UNL     1     -33.822  27.972   4.069  0.00  0.00    -0.123 OA
ATOM     17  O   UNL     1     -32.764  26.888   5.659  0.00  0.00    -0.123 OA
ATOM     18  N   UNL     1     -33.654  26.923   4.759  0.00  0.00    +0.093 N 
ENDBRANCH   5  18
BRANCH   4  19
ATOM     19  C   UNL     1     -35.380  22.743   5.956  0.00  0.00    -0.014 C 
ATOM     20  C   UNL     1     -35.488  21.785   6.702  0.00  0.00    -0.006 C 
ENDBRANCH   4  19
TORSDOF 3
ENDMDL
MODEL 7
REMARK VINA RESULT:      -6.2      2.788      5.931
REMARK  Name = 192000
REMARK  3 active torsions:
REMARK  status: ('A' for Active; 'I' for Inactive)
REMARK    1  A    between atoms: C_2  and  C_9
REMARK    2  A    between atoms: C_4  and  C_19
REMARK    3  A    between atoms: C_5  and  N_18
REMARK                            x       y       z     vdW  Elec       q    Type
REMARK                         _______ _______ _______ _____ _____    ______ ____
ROOT
ATOM      1  O   UNL     1     -37.495  24.190   4.248  0.00  0.00    -0.424 OA
ATOM      2  C   UNL     1     -35.841  25.710   4.217  0.00  0.00    +0.074 C 
ATOM      3  C   UNL     1     -36.950  26.247   3.521  0.00  0.00    +0.069 C 
ATOM      4  C   UNL     1     -36.222  24.458   4.640  0.00  0.00    +0.192 C 
ATOM      5  C   UNL     1     -37.931  25.283   3.568  0.00  0.00    +0.290 C 
ENDROOT
BRANCH   2   9
ATOM      6  N   UNL     1     -34.233  26.463   5.770  0.00  0.00    -0.332 NA
ATOM      7  N   UNL     1     -32.125  27.390   5.059  0.00  0.00    -0.337 NA
ATOM      8  N   UNL     1     -32.653  27.206   7.338  0.00  0.00    -0.283 N 
ATOM      9  C   UNL     1     -34.553  26.290   4.471  0.00  0.00    +0.133 C 
ATOM     10  C   UNL     1     -33.723  26.637   3.423  0.00  0.00    +0.115 C 
ATOM     11  C   UNL     1     -32.510  27.188   3.782  0.00  0.00    +0.108 C 
ATOM     12  C   UNL     1     -33.022  27.010   5.989  0.00  0.00    +0.195 C 
ATOM     13  C   UNL     1     -31.545  27.594   2.719  0.00  0.00    +0.063 C 
ATOM     14  H   UNL     1     -33.271  26.947   8.059  0.00  0.00    +0.156 HD
ATOM     15  H   UNL     1     -31.779  27.603   7.556  0.00  0.00    +0.156 HD
ENDBRANCH   2   9
BRANCH   5  18
ATOM     16  O   UNL     1     -39.755  24.075   2.838  0.00  0.00    -0.123 OA
ATOM     17  O   UNL     1     -39.897  26.267   2.872  0.00  0.00    -0.123 OA
ATOM     18  N   UNL     1     -39.235  25.206   3.077  0.00  0.00    +0.093 N 
ENDBRANCH   5  18
BRANCH   4  19
ATOM     19  C   UNL     1     -35.560  23.447   5.373  0.00  0.00    -0.014 C 
ATOM     20  C   UNL     1     -34.989  22.574   6.005  0.00  0.00    -0.006 C 
ENDBRANCH   4  19
TORSDOF 3
ENDMDL
MODEL 8
REMARK VINA RESULT:      -6.1      3.521      5.047
REMARK  Name = 192000
REMARK  3 active torsions:
REMARK  status: ('A' for Active; 'I' for Inactive)
REMARK    1  A    between atoms: C_2  and  C_9
REMARK    2  A    between atoms: C_4  and  C_19
REMARK    3  A    between atoms: C_5  and  N_18
REMARK                            x       y       z     vdW  Elec       q    Type
REMARK                         _______ _______ _______ _____ _____    ______ ____
ROOT
ATOM      1  O   UNL     1     -34.902  20.492   3.394  0.00  0.00    -0.424 OA
ATOM      2  C   UNL     1     -36.029  22.359   2.855  0.00  0.00    +0.074 C 
ATOM      3  C   UNL     1     -35.782  21.631   1.667  0.00  0.00    +0.069 C 
ATOM      4  C   UNL     1     -35.475  21.626   3.877  0.00  0.00    +0.192 C 
ATOM      5  C   UNL     1     -35.093  20.503   2.049  0.00  0.00    +0.290 C 
ENDROOT
BRANCH   2   9
ATOM      6  N   UNL     1     -35.933  24.652   3.403  0.00  0.00    -0.332 NA
ATOM      7  N   UNL     1     -37.906  26.035   3.405  0.00  0.00    -0.337 NA
ATOM      8  N   UNL     1     -35.807  26.929   3.955  0.00  0.00    -0.283 N 
ATOM      9  C   UNL     1     -36.708  23.611   3.034  0.00  0.00    +0.133 C 
ATOM     10  C   UNL     1     -38.071  23.702   2.835  0.00  0.00    +0.115 C 
ATOM     11  C   UNL     1     -38.620  24.951   3.037  0.00  0.00    +0.108 C 
ATOM     12  C   UNL     1     -36.588  25.817   3.569  0.00  0.00    +0.195 C 
ATOM     13  C   UNL     1     -40.087  25.149   2.844  0.00  0.00    +0.063 C 
ATOM     14  H   UNL     1     -34.838  26.827   4.089  0.00  0.00    +0.156 HD
ATOM     15  H   UNL     1     -36.234  27.806   4.090  0.00  0.00    +0.156 HD
ENDBRANCH   2   9
BRANCH   5  18
ATOM     16  O   UNL     1     -35.228  18.889   0.407  0.00  0.00    -0.123 OA
ATOM     17  O   UNL     1     -33.443  18.934   1.685  0.00  0.00    -0.123 OA
ATOM     18  N   UNL     1     -34.572  19.407   1.359  0.00  0.00    +0.093 N 
ENDBRANCH   5  18
BRANCH   4  19
ATOM     19  C   UNL     1     -35.396  21.829   5.274  0.00  0.00    -0.014 C 
ATOM     20  C   UNL     1     -35.329  22.005   6.479  0.00  0.00    -0.006 C 
ENDBRANCH   4  19
TORSDOF 3
ENDMDL
MODEL 9
REMARK VINA RESULT:      -6.1      3.688      5.685
REMARK  Name = 192000
REMARK  3 active torsions:
REMARK  status: ('A' for Active; 'I' for Inactive)
REMARK    1  A    between atoms: C_2  and  C_9
REMARK    2  A    between atoms: C_4  and  C_19
REMARK    3  A    between atoms: C_5  and  N_18
REMARK                            x       y       z     vdW  Elec       q    Type
REMARK                         _______ _______ _______ _____ _____    ______ ____
ROOT
ATOM      1  O   UNL     1     -35.394  20.723   3.487  0.00  0.00    -0.424 OA
ATOM      2  C   UNL     1     -35.214  22.942   3.188  0.00  0.00    +0.074 C 
ATOM      3  C   UNL     1     -35.194  22.320   1.917  0.00  0.00    +0.069 C 
ATOM      4  C   UNL     1     -35.337  21.929   4.110  0.00  0.00    +0.192 C 
ATOM      5  C   UNL     1     -35.306  20.969   2.154  0.00  0.00    +0.290 C 
ENDROOT
BRANCH   2   9
ATOM      6  N   UNL     1     -35.898  25.164   2.791  0.00  0.00    -0.332 NA
ATOM      7  N   UNL     1     -35.035  27.004   4.086  0.00  0.00    -0.337 NA
ATOM      8  N   UNL     1     -36.597  27.365   2.372  0.00  0.00    -0.283 N 
ATOM      9  C   UNL     1     -35.128  24.334   3.525  0.00  0.00    +0.133 C 
ATOM     10  C   UNL     1     -34.297  24.759   4.542  0.00  0.00    +0.115 C 
ATOM     11  C   UNL     1     -34.291  26.118   4.779  0.00  0.00    +0.108 C 
ATOM     12  C   UNL     1     -35.804  26.467   3.120  0.00  0.00    +0.195 C 
ATOM     13  C   UNL     1     -33.424  26.672   5.860  0.00  0.00    +0.063 C 
ATOM     14  H   UNL     1     -37.178  27.027   1.653  0.00  0.00    +0.156 HD
ATOM     15  H   UNL     1     -36.567  28.329   2.569  0.00  0.00    +0.156 HD
ENDBRANCH   2   9
BRANCH   5  18
ATOM     16  O   UNL     1     -34.280  19.212   1.068  0.00  0.00    -0.123 OA
ATOM     17  O   UNL     1     -36.452  19.453   0.848  0.00  0.00    -0.123 OA
ATOM     18  N   UNL     1     -35.347  19.843   1.330  0.00  0.00    +0.093 N 
ENDBRANCH   5  18
BRANCH   4  19
ATOM     19  C   UNL     1     -35.411  21.917   5.522  0.00  0.00    -0.014 C 
ATOM     20  C   UNL     1     -35.475  21.906   6.739  0.00  0.00    -0.006 C 
ENDBRANCH   4  19
TORSDOF 3
ENDMDL
