MODEL 1
REMARK VINA RESULT:      -6.8      0.000      0.000
REMARK  Name = 54717173
REMARK  4 active torsions:
REMARK  status: ('A' for Active; 'I' for Inactive)
REMARK    1  A    between atoms: C_1  and  C_11
REMARK    2  A    between atoms: C_2  and  O_12
REMARK    3  A    between atoms: C_2  and  C_15
REMARK    4  A    between atoms: C_14  and  C_24
REMARK                            x       y       z     vdW  Elec       q    Type
REMARK                         _______ _______ _______ _____ _____    ______ ____
ROOT
ATOM      1  C   UNL     1     -35.497  21.976   2.775  0.00  0.00    +0.095 C 
ATOM      2  C   UNL     1     -35.693  20.667   2.544  0.00  0.00    +0.138 C 
ENDROOT
BRANCH   1  11
ATOM      3  O   UNL     1     -37.687  25.548   3.526  0.00  0.00    -0.274 OA
ATOM      4  O   UNL     1     -34.460  22.793   5.386  0.00  0.00    -0.274 OA
ATOM      5  O   UNL     1     -37.690  22.786   2.810  0.00  0.00    -0.269 OA
ATOM      6  N   UNL     1     -36.123  23.904   4.127  0.00  0.00    -0.174 N 
ATOM      7  C   UNL     1     -36.197  25.881   5.382  0.00  0.00    +0.096 C 
ATOM      8  C   UNL     1     -34.941  25.118   5.744  0.00  0.00    +0.096 C 
ATOM      9  C   UNL     1     -36.776  25.122   4.224  0.00  0.00    +0.238 C 
ATOM     10  C   UNL     1     -35.113  23.782   5.081  0.00  0.00    +0.238 C 
ATOM     11  C   UNL     1     -36.534  22.936   3.204  0.00  0.00    +0.264 C 
ENDBRANCH   1  11
BRANCH   2  12
ATOM     12  O   UNL     1     -36.957  20.117   2.706  0.00  0.00    -0.505 OA
ATOM     13  H   UNL     1     -37.132  19.247   2.403  0.00  0.00    +0.292 HD
ENDBRANCH   2  12
BRANCH   2  15
ATOM     14  C   UNL     1     -33.759  19.938   1.174  0.00  0.00    +0.062 C 
ATOM     15  C   UNL     1     -34.681  19.711   2.121  0.00  0.00    +0.041 C 
BRANCH  14  24
ATOM     16  O   UNL     1     -30.293  17.467   1.070  0.00  0.00    -0.274 OA
ATOM     17  O   UNL     1     -32.139  21.242  -0.883  0.00  0.00    -0.274 OA
ATOM     18  O   UNL     1     -33.137  17.693   0.981  0.00  0.00    -0.269 OA
ATOM     19  N   UNL     1     -31.569  19.291   0.322  0.00  0.00    -0.174 N 
ATOM     20  C   UNL     1     -29.323  19.162  -0.329  0.00  0.00    +0.096 C 
ATOM     21  C   UNL     1     -29.853  20.542  -0.660  0.00  0.00    +0.096 C 
ATOM     22  C   UNL     1     -30.428  18.516   0.453  0.00  0.00    +0.238 C 
ATOM     23  C   UNL     1     -31.333  20.437  -0.436  0.00  0.00    +0.238 C 
ATOM     24  C   UNL     1     -32.794  18.868   0.854  0.00  0.00    +0.261 C 
ENDBRANCH  14  24
ENDBRANCH   2  15
TORSDOF 4
ENDMDL
MODEL 2
REMARK VINA RESULT:      -6.8      3.931      6.661
REMARK  Name = 54717173
REMARK  4 active torsions:
REMARK  status: ('A' for Active; 'I' for Inactive)
REMARK    1  A    between atoms: C_1  and  C_11
REMARK    2  A    between atoms: C_2  and  O_12
REMARK    3  A    between atoms: C_2  and  C_15
REMARK    4  A    between atoms: C_14  and  C_24
REMARK                            x       y       z     vdW  Elec       q    Type
REMARK                         _______ _______ _______ _____ _____    ______ ____
ROOT
ATOM      1  C   UNL     1     -33.431  27.028   3.882  0.00  0.00    +0.095 C 
ATOM      2  C   UNL     1     -34.493  26.293   4.256  0.00  0.00    +0.138 C 
ENDROOT
BRANCH   1  11
ATOM      3  O   UNL     1     -31.985  31.030   3.767  0.00  0.00    -0.274 OA
ATOM      4  O   UNL     1     -32.092  27.270   6.472  0.00  0.00    -0.274 OA
ATOM      5  O   UNL     1     -34.162  29.210   3.469  0.00  0.00    -0.269 OA
ATOM      6  N   UNL     1     -32.284  28.958   4.829  0.00  0.00    -0.174 N 
ATOM      7  C   UNL     1     -30.758  30.474   5.758  0.00  0.00    +0.096 C 
ATOM      8  C   UNL     1     -30.565  29.122   6.411  0.00  0.00    +0.096 C 
ATOM      9  C   UNL     1     -31.736  30.218   4.648  0.00  0.00    +0.238 C 
ATOM     10  C   UNL     1     -31.731  28.307   5.932  0.00  0.00    +0.238 C 
ATOM     11  C   UNL     1     -33.317  28.495   4.006  0.00  0.00    +0.264 C 
ENDBRANCH   1  11
BRANCH   2  12
ATOM     12  O   UNL     1     -35.603  26.914   4.812  0.00  0.00    -0.505 OA
ATOM     13  H   UNL     1     -36.178  26.431   5.371  0.00  0.00    +0.292 HD
ENDBRANCH   2  12
BRANCH   2  15
ATOM     14  C   UNL     1     -35.466  24.092   4.851  0.00  0.00    +0.062 C 
ATOM     15  C   UNL     1     -34.617  24.848   4.140  0.00  0.00    +0.041 C 
BRANCH  14  24
ATOM     16  O   UNL     1     -34.999  20.231   3.117  0.00  0.00    -0.274 OA
ATOM     17  O   UNL     1     -37.970  23.778   3.371  0.00  0.00    -0.274 OA
ATOM     18  O   UNL     1     -34.929  21.894   5.436  0.00  0.00    -0.269 OA
ATOM     19  N   UNL     1     -36.220  22.197   3.516  0.00  0.00    -0.174 N 
ATOM     20  C   UNL     1     -36.968  20.743   1.839  0.00  0.00    +0.096 C 
ATOM     21  C   UNL     1     -37.708  22.059   1.715  0.00  0.00    +0.096 C 
ATOM     22  C   UNL     1     -35.925  20.999   2.887  0.00  0.00    +0.238 C 
ATOM     23  C   UNL     1     -37.342  22.811   2.961  0.00  0.00    +0.238 C 
ATOM     24  C   UNL     1     -35.478  22.634   4.621  0.00  0.00    +0.261 C 
ENDBRANCH  14  24
ENDBRANCH   2  15
TORSDOF 4
ENDMDL
MODEL 3
REMARK VINA RESULT:      -6.8      0.671      7.748
REMARK  Name = 54717173
REMARK  4 active torsions:
REMARK  status: ('A' for Active; 'I' for Inactive)
REMARK    1  A    between atoms: C_1  and  C_11
REMARK    2  A    between atoms: C_2  and  O_12
REMARK    3  A    between atoms: C_2  and  C_15
REMARK    4  A    between atoms: C_14  and  C_24
REMARK                            x       y       z     vdW  Elec       q    Type
REMARK                         _______ _______ _______ _____ _____    ______ ____
ROOT
ATOM      1  C   UNL     1     -34.019  19.862   1.519  0.00  0.00    +0.095 C 
ATOM      2  C   UNL     1     -35.362  19.929   1.514  0.00  0.00    +0.138 C 
ENDROOT
BRANCH   1  11
ATOM      3  O   UNL     1     -30.921  17.008   0.897  0.00  0.00    -0.274 OA
ATOM      4  O   UNL     1     -32.292  21.240  -0.398  0.00  0.00    -0.274 OA
ATOM      5  O   UNL     1     -33.710  17.610   0.971  0.00  0.00    -0.269 OA
ATOM      6  N   UNL     1     -31.960  19.073   0.482  0.00  0.00    -0.174 N 
ATOM      7  C   UNL     1     -29.768  18.757  -0.282  0.00  0.00    +0.096 C 
ATOM      8  C   UNL     1     -30.116  20.226  -0.385  0.00  0.00    +0.096 C 
ATOM      9  C   UNL     1     -30.930  18.146   0.446  0.00  0.00    +0.238 C 
ATOM     10  C   UNL     1     -31.591  20.280  -0.110  0.00  0.00    +0.238 C 
ATOM     11  C   UNL     1     -33.216  18.736   1.001  0.00  0.00    +0.264 C 
ENDBRANCH   1  11
BRANCH   2  12
ATOM     12  O   UNL     1     -36.106  18.881   0.990  0.00  0.00    -0.505 OA
ATOM     13  H   UNL     1     -37.037  18.957   0.923  0.00  0.00    +0.292 HD
ENDBRANCH   2  12
BRANCH   2  15
ATOM     14  C   UNL     1     -35.816  21.830   3.039  0.00  0.00    +0.062 C 
ATOM     15  C   UNL     1     -36.165  21.032   2.021  0.00  0.00    +0.041 C 
BRANCH  14  24
ATOM     16  O   UNL     1     -37.637  25.635   3.615  0.00  0.00    -0.274 OA
ATOM     17  O   UNL     1     -34.568  22.737   5.525  0.00  0.00    -0.274 OA
ATOM     18  O   UNL     1     -37.922  22.839   3.117  0.00  0.00    -0.269 OA
ATOM     19  N   UNL     1     -36.192  23.903   4.265  0.00  0.00    -0.174 N 
ATOM     20  C   UNL     1     -36.025  25.964   5.365  0.00  0.00    +0.096 C 
ATOM     21  C   UNL     1     -34.822  25.117   5.723  0.00  0.00    +0.096 C 
ATOM     22  C   UNL     1     -36.730  25.179   4.298  0.00  0.00    +0.238 C 
ATOM     23  C   UNL     1     -35.147  23.757   5.177  0.00  0.00    +0.238 C 
ATOM     24  C   UNL     1     -36.738  22.910   3.441  0.00  0.00    +0.261 C 
ENDBRANCH  14  24
ENDBRANCH   2  15
TORSDOF 4
ENDMDL
MODEL 4
REMARK VINA RESULT:      -6.6      1.276      7.997
REMARK  Name = 54717173
REMARK  4 active torsions:
REMARK  status: ('A' for Active; 'I' for Inactive)
REMARK    1  A    between atoms: C_1  and  C_11
REMARK    2  A    between atoms: C_2  and  O_12
REMARK    3  A    between atoms: C_2  and  C_15
REMARK    4  A    between atoms: C_14  and  C_24
REMARK                            x       y       z     vdW  Elec       q    Type
REMARK                         _______ _______ _______ _____ _____    ______ ____
ROOT
ATOM      1  C   UNL     1     -32.595  19.246   1.086  0.00  0.00    +0.095 C 
ATOM      2  C   UNL     1     -33.938  19.214   1.046  0.00  0.00    +0.138 C 
ENDROOT
BRANCH   1  11
ATOM      3  O   UNL     1     -29.332  16.512   1.011  0.00  0.00    -0.274 OA
ATOM      4  O   UNL     1     -30.773  20.519  -0.815  0.00  0.00    -0.274 OA
ATOM      5  O   UNL     1     -32.140  16.970   0.797  0.00  0.00    -0.269 OA
ATOM      6  N   UNL     1     -30.422  18.468   0.305  0.00  0.00    -0.174 N 
ATOM      7  C   UNL     1     -28.160  18.195  -0.243  0.00  0.00    +0.096 C 
ATOM      8  C   UNL     1     -28.563  19.627  -0.523  0.00  0.00    +0.096 C 
ATOM      9  C   UNL     1     -29.352  17.599   0.448  0.00  0.00    +0.238 C 
ATOM     10  C   UNL     1     -30.057  19.630  -0.375  0.00  0.00    +0.238 C 
ATOM     11  C   UNL     1     -31.701  18.119   0.752  0.00  0.00    +0.264 C 
ENDBRANCH   1  11
BRANCH   2  12
ATOM     12  O   UNL     1     -34.593  18.050   0.665  0.00  0.00    -0.505 OA
ATOM     13  H   UNL     1     -35.021  18.005  -0.167  0.00  0.00    +0.292 HD
ENDBRANCH   2  12
BRANCH   2  15
ATOM     14  C   UNL     1     -35.481  20.458   2.535  0.00  0.00    +0.062 C 
ATOM     15  C   UNL     1     -34.830  20.316   1.372  0.00  0.00    +0.041 C 
BRANCH  14  24
ATOM     16  O   UNL     1     -36.935  24.444   2.890  0.00  0.00    -0.274 OA
ATOM     17  O   UNL     1     -35.099  20.999   5.385  0.00  0.00    -0.274 OA
ATOM     18  O   UNL     1     -37.347  21.762   2.005  0.00  0.00    -0.269 OA
ATOM     19  N   UNL     1     -36.025  22.476   3.790  0.00  0.00    -0.174 N 
ATOM     20  C   UNL     1     -36.021  24.410   5.111  0.00  0.00    +0.096 C 
ATOM     21  C   UNL     1     -35.129  23.371   5.758  0.00  0.00    +0.096 C 
ATOM     22  C   UNL     1     -36.388  23.813   3.785  0.00  0.00    +0.238 C 
ATOM     23  C   UNL     1     -35.394  22.115   4.981  0.00  0.00    +0.238 C 
ATOM     24  C   UNL     1     -36.354  21.634   2.720  0.00  0.00    +0.261 C 
ENDBRANCH  14  24
ENDBRANCH   2  15
TORSDOF 4
ENDMDL
MODEL 5
REMARK VINA RESULT:      -6.6      2.107      7.574
REMARK  Name = 54717173
REMARK  4 active torsions:
REMARK  status: ('A' for Active; 'I' for Inactive)
REMARK    1  A    between atoms: C_1  and  C_11
REMARK    2  A    between atoms: C_2  and  O_12
REMARK    3  A    between atoms: C_2  and  C_15
REMARK    4  A    between atoms: C_14  and  C_24
REMARK                            x       y       z     vdW  Elec       q    Type
REMARK                         _______ _______ _______ _____ _____    ______ ____
ROOT
ATOM      1  C   UNL     1     -34.692  20.046   1.556  0.00  0.00    +0.095 C 
ATOM      2  C   UNL     1     -35.589  20.444   2.475  0.00  0.00    +0.138 C 
ENDROOT
BRANCH   1  11
ATOM      3  O   UNL     1     -34.872  16.111  -0.059  0.00  0.00    -0.274 OA
ATOM      4  O   UNL     1     -31.926  19.602   0.716  0.00  0.00    -0.274 OA
ATOM      5  O   UNL     1     -35.912  18.767   0.025  0.00  0.00    -0.269 OA
ATOM      6  N   UNL     1     -33.725  18.090   0.472  0.00  0.00    -0.174 N 
ATOM      7  C   UNL     1     -32.471  16.206  -0.134  0.00  0.00    +0.096 C 
ATOM      8  C   UNL     1     -31.540  17.247   0.450  0.00  0.00    +0.096 C 
ATOM      9  C   UNL     1     -33.847  16.762   0.095  0.00  0.00    +0.238 C 
ATOM     10  C   UNL     1     -32.389  18.479   0.573  0.00  0.00    +0.238 C 
ATOM     11  C   UNL     1     -34.855  18.899   0.641  0.00  0.00    +0.264 C 
ENDBRANCH   1  11
BRANCH   2  12
ATOM     12  O   UNL     1     -36.785  19.754   2.620  0.00  0.00    -0.505 OA
ATOM     13  H   UNL     1     -37.194  19.365   1.872  0.00  0.00    +0.292 HD
ENDBRANCH   2  12
BRANCH   2  15
ATOM     14  C   UNL     1     -36.146  22.711   3.310  0.00  0.00    +0.062 C 
ATOM     15  C   UNL     1     -35.442  21.572   3.382  0.00  0.00    +0.041 C 
BRANCH  14  24
ATOM     16  O   UNL     1     -36.218  26.367   5.491  0.00  0.00    -0.274 OA
ATOM     17  O   UNL     1     -34.110  24.290   1.926  0.00  0.00    -0.274 OA
ATOM     18  O   UNL     1     -36.031  23.519   5.500  0.00  0.00    -0.269 OA
ATOM     19  N   UNL     1     -35.382  24.974   3.795  0.00  0.00    -0.174 N 
ATOM     20  C   UNL     1     -34.808  27.244   3.755  0.00  0.00    +0.096 C 
ATOM     21  C   UNL     1     -34.424  26.616   2.431  0.00  0.00    +0.096 C 
ATOM     22  C   UNL     1     -35.570  26.169   4.471  0.00  0.00    +0.238 C 
ATOM     23  C   UNL     1     -34.602  25.143   2.652  0.00  0.00    +0.238 C 
ATOM     24  C   UNL     1     -35.884  23.770   4.305  0.00  0.00    +0.261 C 
ENDBRANCH  14  24
ENDBRANCH   2  15
TORSDOF 4
ENDMDL
MODEL 6
REMARK VINA RESULT:      -6.4      4.458      7.253
REMARK  Name = 54717173
REMARK  4 active torsions:
REMARK  status: ('A' for Active; 'I' for Inactive)
REMARK    1  A    between atoms: C_1  and  C_11
REMARK    2  A    between atoms: C_2  and  O_12
REMARK    3  A    between atoms: C_2  and  C_15
REMARK    4  A    between atoms: C_14  and  C_24
REMARK                            x       y       z     vdW  Elec       q    Type
REMARK                         _______ _______ _______ _____ _____    ______ ____
ROOT
ATOM      1  C   UNL     1     -35.244  23.347   3.721  0.00  0.00    +0.095 C 
ATOM      2  C   UNL     1     -35.078  23.701   5.006  0.00  0.00    +0.138 C 
ENDROOT
BRANCH   1  11
ATOM      3  O   UNL     1     -37.719  20.889   1.278  0.00  0.00    -0.274 OA
ATOM      4  O   UNL     1     -37.876  24.571   4.086  0.00  0.00    -0.274 OA
ATOM      5  O   UNL     1     -35.765  21.098   3.348  0.00  0.00    -0.269 OA
ATOM      6  N   UNL     1     -37.383  22.674   2.766  0.00  0.00    -0.174 N 
ATOM      7  C   UNL     1     -39.436  22.530   1.645  0.00  0.00    +0.096 C 
ATOM      8  C   UNL     1     -39.328  23.892   2.299  0.00  0.00    +0.096 C 
ATOM      9  C   UNL     1     -38.083  21.911   1.845  0.00  0.00    +0.238 C 
ATOM     10  C   UNL     1     -38.114  23.789   3.176  0.00  0.00    +0.238 C 
ATOM     11  C   UNL     1     -36.129  22.268   3.236  0.00  0.00    +0.264 C 
ENDBRANCH   1  11
BRANCH   2  12
ATOM     12  O   UNL     1     -35.771  23.030   6.005  0.00  0.00    -0.505 OA
ATOM     13  H   UNL     1     -35.519  22.161   6.246  0.00  0.00    +0.292 HD
ENDBRANCH   2  12
BRANCH   2  15
ATOM     14  C   UNL     1     -34.238  26.032   5.071  0.00  0.00    +0.062 C 
ATOM     15  C   UNL     1     -34.211  24.761   5.497  0.00  0.00    +0.041 C 
BRANCH  14  24
ATOM     16  O   UNL     1     -32.204  29.615   6.148  0.00  0.00    -0.274 OA
ATOM     17  O   UNL     1     -32.274  26.293   2.919  0.00  0.00    -0.274 OA
ATOM     18  O   UNL     1     -33.153  27.027   6.887  0.00  0.00    -0.269 OA
ATOM     19  N   UNL     1     -32.541  27.754   4.756  0.00  0.00    -0.174 N 
ATOM     20  C   UNL     1     -31.167  29.486   3.985  0.00  0.00    +0.096 C 
ATOM     21  C   UNL     1     -31.483  28.559   2.830  0.00  0.00    +0.096 C 
ATOM     22  C   UNL     1     -32.031  28.993   5.108  0.00  0.00    +0.238 C 
ATOM     23  C   UNL     1     -32.147  27.376   3.473  0.00  0.00    +0.238 C 
ATOM     24  C   UNL     1     -33.293  26.998   5.665  0.00  0.00    +0.261 C 
ENDBRANCH  14  24
ENDBRANCH   2  15
TORSDOF 4
ENDMDL
MODEL 7
REMARK VINA RESULT:      -6.3      2.181      2.856
REMARK  Name = 54717173
REMARK  4 active torsions:
REMARK  status: ('A' for Active; 'I' for Inactive)
REMARK    1  A    between atoms: C_1  and  C_11
REMARK    2  A    between atoms: C_2  and  O_12
REMARK    3  A    between atoms: C_2  and  C_15
REMARK    4  A    between atoms: C_14  and  C_24
REMARK                            x       y       z     vdW  Elec       q    Type
REMARK                         _______ _______ _______ _____ _____    ______ ____
ROOT
ATOM      1  C   UNL     1     -35.576  20.935   2.825  0.00  0.00    +0.095 C 
ATOM      2  C   UNL     1     -34.872  20.459   1.785  0.00  0.00    +0.138 C 
ENDROOT
BRANCH   1  11
ATOM      3  O   UNL     1     -37.155  24.877   2.513  0.00  0.00    -0.274 OA
ATOM      4  O   UNL     1     -35.420  21.878   5.590  0.00  0.00    -0.274 OA
ATOM      5  O   UNL     1     -37.432  22.086   1.988  0.00  0.00    -0.269 OA
ATOM      6  N   UNL     1     -36.264  23.086   3.742  0.00  0.00    -0.174 N 
ATOM      7  C   UNL     1     -36.404  25.183   4.776  0.00  0.00    +0.096 C 
ATOM      8  C   UNL     1     -35.538  24.276   5.623  0.00  0.00    +0.096 C 
ATOM      9  C   UNL     1     -36.659  24.396   3.524  0.00  0.00    +0.238 C 
ATOM     10  C   UNL     1     -35.713  22.917   5.012  0.00  0.00    +0.238 C 
ATOM     11  C   UNL     1     -36.492  22.093   2.782  0.00  0.00    +0.264 C 
ENDBRANCH   1  11
BRANCH   2  12
ATOM     12  O   UNL     1     -34.974  21.068   0.542  0.00  0.00    -0.505 OA
ATOM     13  H   UNL     1     -35.356  21.920   0.469  0.00  0.00    +0.292 HD
ENDBRANCH   2  12
BRANCH   2  15
ATOM     14  C   UNL     1     -33.384  18.776   0.736  0.00  0.00    +0.062 C 
ATOM     15  C   UNL     1     -33.968  19.319   1.814  0.00  0.00    +0.041 C 
BRANCH  14  24
ATOM     16  O   UNL     1     -30.548  15.665   0.093  0.00  0.00    -0.274 OA
ATOM     17  O   UNL     1     -35.076  16.593  -0.227  0.00  0.00    -0.274 OA
ATOM     18  O   UNL     1     -31.650  17.648   1.826  0.00  0.00    -0.269 OA
ATOM     19  N   UNL     1     -32.738  16.513   0.101  0.00  0.00    -0.174 N 
ATOM     20  C   UNL     1     -32.336  14.476  -0.983  0.00  0.00    +0.096 C 
ATOM     21  C   UNL     1     -33.717  14.970  -1.361  0.00  0.00    +0.096 C 
ATOM     22  C   UNL     1     -31.733  15.610  -0.207  0.00  0.00    +0.238 C 
ATOM     23  C   UNL     1     -33.965  16.127  -0.438  0.00  0.00    +0.238 C 
ATOM     24  C   UNL     1     -32.487  17.618   0.924  0.00  0.00    +0.261 C 
ENDBRANCH  14  24
ENDBRANCH   2  15
TORSDOF 4
ENDMDL
MODEL 8
REMARK VINA RESULT:      -6.3      1.564      1.848
REMARK  Name = 54717173
REMARK  4 active torsions:
REMARK  status: ('A' for Active; 'I' for Inactive)
REMARK    1  A    between atoms: C_1  and  C_11
REMARK    2  A    between atoms: C_2  and  O_12
REMARK    3  A    between atoms: C_2  and  C_15
REMARK    4  A    between atoms: C_14  and  C_24
REMARK                            x       y       z     vdW  Elec       q    Type
REMARK                         _______ _______ _______ _____ _____    ______ ____
ROOT
ATOM      1  C   UNL     1     -36.660  22.182   2.079  0.00  0.00    +0.095 C 
ATOM      2  C   UNL     1     -37.229  20.998   1.796  0.00  0.00    +0.138 C 
ENDROOT
BRANCH   1  11
ATOM      3  O   UNL     1     -37.556  26.026   3.675  0.00  0.00    -0.274 OA
ATOM      4  O   UNL     1     -35.424  22.049   4.727  0.00  0.00    -0.274 OA
ATOM      5  O   UNL     1     -38.464  23.630   2.420  0.00  0.00    -0.269 OA
ATOM      6  N   UNL     1     -36.622  23.878   3.828  0.00  0.00    -0.174 N 
ATOM      7  C   UNL     1     -36.047  25.460   5.458  0.00  0.00    +0.096 C 
ATOM      8  C   UNL     1     -35.114  24.274   5.576  0.00  0.00    +0.096 C 
ATOM      9  C   UNL     1     -36.839  25.192   4.211  0.00  0.00    +0.238 C 
ATOM     10  C   UNL     1     -35.713  23.237   4.671  0.00  0.00    +0.238 C 
ATOM     11  C   UNL     1     -37.325  23.312   2.759  0.00  0.00    +0.264 C 
ENDBRANCH   1  11
BRANCH   2  12
ATOM     12  O   UNL     1     -38.550  20.762   2.150  0.00  0.00    -0.505 OA
ATOM     13  H   UNL     1     -39.222  20.792   1.498  0.00  0.00    +0.292 HD
ENDBRANCH   2  12
BRANCH   2  15
ATOM     14  C   UNL     1     -35.260  19.685   1.056  0.00  0.00    +0.062 C 
ATOM     15  C   UNL     1     -36.585  19.878   1.127  0.00  0.00    +0.041 C 
BRANCH  14  24
ATOM     16  O   UNL     1     -33.380  15.982   0.117  0.00  0.00    -0.274 OA
ATOM     17  O   UNL     1     -32.527  20.524   0.438  0.00  0.00    -0.274 OA
ATOM     18  O   UNL     1     -35.543  17.798  -0.295  0.00  0.00    -0.269 OA
ATOM     19  N   UNL     1     -33.365  18.317   0.365  0.00  0.00    -0.174 N 
ATOM     20  C   UNL     1     -31.315  17.208   0.143  0.00  0.00    +0.096 C 
ATOM     21  C   UNL     1     -31.057  18.631   0.589  0.00  0.00    +0.096 C 
ATOM     22  C   UNL     1     -32.806  17.059   0.210  0.00  0.00    +0.238 C 
ATOM     23  C   UNL     1     -32.390  19.309   0.462  0.00  0.00    +0.238 C 
ATOM     24  C   UNL     1     -34.754  18.497   0.341  0.00  0.00    +0.261 C 
ENDBRANCH  14  24
ENDBRANCH   2  15
TORSDOF 4
ENDMDL
MODEL 9
REMARK VINA RESULT:      -6.3      4.763      7.690
REMARK  Name = 54717173
REMARK  4 active torsions:
REMARK  status: ('A' for Active; 'I' for Inactive)
REMARK    1  A    between atoms: C_1  and  C_11
REMARK    2  A    between atoms: C_2  and  O_12
REMARK    3  A    between atoms: C_2  and  C_15
REMARK    4  A    between atoms: C_14  and  C_24
REMARK                            x       y       z     vdW  Elec       q    Type
REMARK                         _______ _______ _______ _____ _____    ______ ____
ROOT
ATOM      1  C   UNL     1     -40.845  25.627   3.237  0.00  0.00    +0.095 C 
ATOM      2  C   UNL     1     -39.703  25.730   2.535  0.00  0.00    +0.138 C 
ENDROOT
BRANCH   1  11
ATOM      3  O   UNL     1     -44.354  27.800   4.284  0.00  0.00    -0.274 OA
ATOM      4  O   UNL     1     -42.730  24.783   1.165  0.00  0.00    -0.274 OA
ATOM      5  O   UNL     1     -41.554  27.800   3.730  0.00  0.00    -0.269 OA
ATOM      6  N   UNL     1     -43.158  26.319   2.909  0.00  0.00    -0.174 N 
ATOM      7  C   UNL     1     -45.483  26.454   2.644  0.00  0.00    +0.096 C 
ATOM      8  C   UNL     1     -44.972  25.245   1.889  0.00  0.00    +0.096 C 
ATOM      9  C   UNL     1     -44.287  26.955   3.401  0.00  0.00    +0.238 C 
ATOM     10  C   UNL     1     -43.479  25.390   1.919  0.00  0.00    +0.238 C 
ATOM     11  C   UNL     1     -41.879  26.676   3.349  0.00  0.00    +0.264 C 
ENDBRANCH   1  11
BRANCH   2  12
ATOM     12  O   UNL     1     -39.420  26.897   1.840  0.00  0.00    -0.505 OA
ATOM     13  H   UNL     1     -40.094  27.533   1.699  0.00  0.00    +0.292 HD
ENDBRANCH   2  12
BRANCH   2  15
ATOM     14  C   UNL     1     -37.676  24.517   3.287  0.00  0.00    +0.062 C 
ATOM     15  C   UNL     1     -38.677  24.705   2.416  0.00  0.00    +0.041 C 
BRANCH  14  24
ATOM     16  O   UNL     1     -35.670  20.761   3.263  0.00  0.00    -0.274 OA
ATOM     17  O   UNL     1     -35.965  24.720   5.651  0.00  0.00    -0.274 OA
ATOM     18  O   UNL     1     -36.440  23.130   1.869  0.00  0.00    -0.269 OA
ATOM     19  N   UNL     1     -36.087  22.889   4.163  0.00  0.00    -0.174 N 
ATOM     20  C   UNL     1     -34.867  21.357   5.447  0.00  0.00    +0.096 C 
ATOM     21  C   UNL     1     -35.271  22.523   6.325  0.00  0.00    +0.096 C 
ATOM     22  C   UNL     1     -35.587  21.597   4.153  0.00  0.00    +0.238 C 
ATOM     23  C   UNL     1     -35.819  23.540   5.367  0.00  0.00    +0.238 C 
ATOM     24  C   UNL     1     -36.708  23.432   3.031  0.00  0.00    +0.261 C 
ENDBRANCH  14  24
ENDBRANCH   2  15
TORSDOF 4
ENDMDL
