MODEL 1
REMARK VINA RESULT:      -6.7      0.000      0.000
REMARK  Name = 1913
REMARK  3 active torsions:
REMARK  status: ('A' for Active; 'I' for Inactive)
REMARK    1  A    between atoms: P_1  and  O_26
REMARK    2  A    between atoms: C_8  and  O_24
REMARK    3  A    between atoms: C_9  and  N_12
REMARK                            x       y       z     vdW  Elec       q    Type
REMARK                         _______ _______ _______ _____ _____    ______ ____
ROOT
ATOM      1  P   UNL     1     -39.472  25.265   2.626  0.00  0.00    +0.476 P 
ATOM      2  O   UNL     1     -35.802  25.015   2.461  0.00  0.00    -0.333 OA
ATOM      3  O   UNL     1     -38.448  24.712   3.742  0.00  0.00    -0.271 OA
ATOM      4  O   UNL     1     -38.485  25.814   1.469  0.00  0.00    -0.271 OA
ATOM      5  O   UNL     1     -40.490  24.269   2.152  0.00  0.00    -0.227 OA
ATOM      6  C   UNL     1     -37.352  25.523   4.151  0.00  0.00    +0.186 C 
ATOM      7  C   UNL     1     -36.590  26.108   2.967  0.00  0.00    +0.177 C 
ATOM      8  C   UNL     1     -36.309  24.612   4.771  0.00  0.00    +0.188 C 
ATOM      9  C   UNL     1     -35.459  24.169   3.576  0.00  0.00    +0.229 C 
ATOM     10  C   UNL     1     -37.438  26.696   1.850  0.00  0.00    +0.186 C 
ENDROOT
BRANCH   9  12
ATOM     11 BR   UNL     1     -34.885  21.728   5.828  0.00  0.00    +0.004 Br
ATOM     12  N   UNL     1     -35.649  22.764   3.210  0.00  0.00    -0.215 N 
ATOM     13  N   UNL     1     -35.719  20.540   3.386  0.00  0.00    -0.374 NA
ATOM     14  N   UNL     1     -36.362  23.018   0.902  0.00  0.00    -0.227 NA
ATOM     15  N   UNL     1     -36.812  20.855  -0.133  0.00  0.00    -0.227 NA
ATOM     16  C   UNL     1     -36.059  22.299   1.992  0.00  0.00    +0.169 C 
ATOM     17  C   UNL     1     -35.457  21.669   4.012  0.00  0.00    +0.225 C 
ATOM     18  C   UNL     1     -36.097  20.919   2.122  0.00  0.00    +0.196 C 
ATOM     19  C   UNL     1     -36.491  20.192   1.003  0.00  0.00    +0.155 C 
ATOM     20  C   UNL     1     -36.728  22.207  -0.115  0.00  0.00    +0.253 C 
ATOM     21  N   UNL     1     -36.556  18.788   1.046  0.00  0.00    -0.341 N 
ATOM     22  H   UNL     1     -36.837  18.285   0.248  0.00  0.00    +0.144 HD
ATOM     23  H   UNL     1     -36.323  18.310   1.874  0.00  0.00    +0.144 HD
ENDBRANCH   9  12
BRANCH   8  24
ATOM     24  O   UNL     1     -35.481  25.358   5.658  0.00  0.00    -0.378 OA
ATOM     25  H   UNL     1     -35.767  25.205   6.573  0.00  0.00    +0.211 HD
ENDBRANCH   8  24
BRANCH   1  26
ATOM     26  O   UNL     1     -40.100  26.603   3.286  0.00  0.00    -0.302 OA
ATOM     27  H   UNL     1     -39.713  26.742   4.165  0.00  0.00    +0.222 HD
ENDBRANCH   1  26
TORSDOF 3
ENDMDL
MODEL 2
REMARK VINA RESULT:      -6.6      2.498      3.949
REMARK  Name = 1913
REMARK  3 active torsions:
REMARK  status: ('A' for Active; 'I' for Inactive)
REMARK    1  A    between atoms: P_1  and  O_26
REMARK    2  A    between atoms: C_8  and  O_24
REMARK    3  A    between atoms: C_9  and  N_12
REMARK                            x       y       z     vdW  Elec       q    Type
REMARK                         _______ _______ _______ _____ _____    ______ ____
ROOT
ATOM      1  P   UNL     1     -34.119  25.685   2.724  0.00  0.00    +0.476 P 
ATOM      2  O   UNL     1     -37.080  24.513   4.574  0.00  0.00    -0.333 OA
ATOM      3  O   UNL     1     -35.666  25.706   2.269  0.00  0.00    -0.271 OA
ATOM      4  O   UNL     1     -34.197  25.152   4.249  0.00  0.00    -0.271 OA
ATOM      5  O   UNL     1     -33.208  24.889   1.835  0.00  0.00    -0.227 OA
ATOM      6  C   UNL     1     -36.638  26.303   3.119  0.00  0.00    +0.186 C 
ATOM      7  C   UNL     1     -36.512  25.835   4.565  0.00  0.00    +0.177 C 
ATOM      8  C   UNL     1     -37.995  25.747   2.731  0.00  0.00    +0.188 C 
ATOM      9  C   UNL     1     -38.121  24.476   3.578  0.00  0.00    +0.229 C 
ATOM     10  C   UNL     1     -35.102  25.797   5.135  0.00  0.00    +0.186 C 
ENDROOT
BRANCH   9  12
ATOM     11 BR   UNL     1     -40.454  23.725   1.265  0.00  0.00    +0.004 Br
ATOM     12  N   UNL     1     -38.021  23.240   2.800  0.00  0.00    -0.215 N 
ATOM     13  N   UNL     1     -38.515  21.651   1.313  0.00  0.00    -0.374 NA
ATOM     14  N   UNL     1     -35.976  22.317   3.729  0.00  0.00    -0.227 NA
ATOM     15  N   UNL     1     -35.406  20.188   2.682  0.00  0.00    -0.227 NA
ATOM     16  C   UNL     1     -37.034  22.301   2.905  0.00  0.00    +0.169 C 
ATOM     17  C   UNL     1     -38.887  22.803   1.831  0.00  0.00    +0.225 C 
ATOM     18  C   UNL     1     -37.357  21.326   1.975  0.00  0.00    +0.196 C 
ATOM     19  C   UNL     1     -36.495  20.238   1.879  0.00  0.00    +0.155 C 
ATOM     20  C   UNL     1     -35.216  21.214   3.546  0.00  0.00    +0.253 C 
ATOM     21  N   UNL     1     -36.747  19.201   0.964  0.00  0.00    -0.341 N 
ATOM     22  H   UNL     1     -36.130  18.437   0.904  0.00  0.00    +0.144 HD
ATOM     23  H   UNL     1     -37.540  19.241   0.381  0.00  0.00    +0.144 HD
ENDBRANCH   9  12
BRANCH   8  24
ATOM     24  O   UNL     1     -39.021  26.653   3.126  0.00  0.00    -0.378 OA
ATOM     25  H   UNL     1     -39.158  26.588   4.085  0.00  0.00    +0.211 HD
ENDBRANCH   8  24
BRANCH   1  26
ATOM     26  O   UNL     1     -33.721  27.247   2.866  0.00  0.00    -0.302 OA
ATOM     27  H   UNL     1     -33.955  27.561   3.754  0.00  0.00    +0.222 HD
ENDBRANCH   1  26
TORSDOF 3
ENDMDL
MODEL 3
REMARK VINA RESULT:      -6.4      2.131      3.474
REMARK  Name = 1913
REMARK  3 active torsions:
REMARK  status: ('A' for Active; 'I' for Inactive)
REMARK    1  A    between atoms: P_1  and  O_26
REMARK    2  A    between atoms: C_8  and  O_24
REMARK    3  A    between atoms: C_9  and  N_12
REMARK                            x       y       z     vdW  Elec       q    Type
REMARK                         _______ _______ _______ _____ _____    ______ ____
ROOT
ATOM      1  P   UNL     1     -33.189  26.266   2.620  0.00  0.00    +0.476 P 
ATOM      2  O   UNL     1     -35.452  24.827   5.144  0.00  0.00    -0.333 OA
ATOM      3  O   UNL     1     -34.730  25.820   2.456  0.00  0.00    -0.271 OA
ATOM      4  O   UNL     1     -32.918  26.057   4.200  0.00  0.00    -0.271 OA
ATOM      5  O   UNL     1     -32.223  25.545   1.724  0.00  0.00    -0.227 OA
ATOM      6  C   UNL     1     -35.706  26.330   3.357  0.00  0.00    +0.186 C 
ATOM      7  C   UNL     1     -35.268  26.215   4.813  0.00  0.00    +0.177 C 
ATOM      8  C   UNL     1     -36.902  25.397   3.319  0.00  0.00    +0.188 C 
ATOM      9  C   UNL     1     -36.566  24.337   4.374  0.00  0.00    +0.229 C 
ATOM     10  C   UNL     1     -33.837  26.635   5.116  0.00  0.00    +0.186 C 
ENDROOT
BRANCH   9  12
ATOM     11 BR   UNL     1     -35.114  21.966   6.280  0.00  0.00    +0.004 Br
ATOM     12  N   UNL     1     -36.241  23.027   3.806  0.00  0.00    -0.215 N 
ATOM     13  N   UNL     1     -35.498  20.928   3.664  0.00  0.00    -0.374 NA
ATOM     14  N   UNL     1     -37.031  23.342   1.532  0.00  0.00    -0.227 NA
ATOM     15  N   UNL     1     -36.683  21.337   0.184  0.00  0.00    -0.227 NA
ATOM     16  C   UNL     1     -36.472  22.629   2.520  0.00  0.00    +0.169 C 
ATOM     17  C   UNL     1     -35.654  21.970   4.453  0.00  0.00    +0.225 C 
ATOM     18  C   UNL     1     -36.006  21.325   2.453  0.00  0.00    +0.196 C 
ATOM     19  C   UNL     1     -36.127  20.676   1.228  0.00  0.00    +0.155 C 
ATOM     20  C   UNL     1     -37.094  22.611   0.397  0.00  0.00    +0.253 C 
ATOM     21  N   UNL     1     -35.679  19.353   1.069  0.00  0.00    -0.341 N 
ATOM     22  H   UNL     1     -35.771  18.904   0.198  0.00  0.00    +0.144 HD
ATOM     23  H   UNL     1     -35.277  18.876   1.830  0.00  0.00    +0.144 HD
ENDBRANCH   9  12
BRANCH   8  24
ATOM     24  O   UNL     1     -38.072  26.093   3.739  0.00  0.00    -0.378 OA
ATOM     25  H   UNL     1     -37.906  26.517   4.596  0.00  0.00    +0.211 HD
ENDBRANCH   8  24
BRANCH   1  26
ATOM     26  O   UNL     1     -33.212  27.872   2.426  0.00  0.00    -0.302 OA
ATOM     27  H   UNL     1     -32.302  28.207   2.398  0.00  0.00    +0.222 HD
ENDBRANCH   1  26
TORSDOF 3
ENDMDL
MODEL 4
REMARK VINA RESULT:      -6.1      1.660      1.886
REMARK  Name = 1913
REMARK  3 active torsions:
REMARK  status: ('A' for Active; 'I' for Inactive)
REMARK    1  A    between atoms: P_1  and  O_26
REMARK    2  A    between atoms: C_8  and  O_24
REMARK    3  A    between atoms: C_9  and  N_12
REMARK                            x       y       z     vdW  Elec       q    Type
REMARK                         _______ _______ _______ _____ _____    ______ ____
ROOT
ATOM      1  P   UNL     1     -36.993  26.530   1.321  0.00  0.00    +0.476 P 
ATOM      2  O   UNL     1     -33.988  25.062   2.863  0.00  0.00    -0.333 OA
ATOM      3  O   UNL     1     -36.824  25.890   2.792  0.00  0.00    -0.271 OA
ATOM      4  O   UNL     1     -35.486  26.497   0.737  0.00  0.00    -0.271 OA
ATOM      5  O   UNL     1     -38.011  25.853   0.450  0.00  0.00    -0.227 OA
ATOM      6  C   UNL     1     -35.785  26.358   3.644  0.00  0.00    +0.186 C 
ATOM      7  C   UNL     1     -34.438  26.427   2.933  0.00  0.00    +0.177 C 
ATOM      8  C   UNL     1     -35.528  25.288   4.689  0.00  0.00    +0.188 C 
ATOM      9  C   UNL     1     -34.492  24.374   4.025  0.00  0.00    +0.229 C 
ATOM     10  C   UNL     1     -34.447  27.041   1.541  0.00  0.00    +0.186 C 
ENDROOT
BRANCH   9  12
ATOM     11 BR   UNL     1     -35.279  22.087   6.373  0.00  0.00    +0.004 Br
ATOM     12  N   UNL     1     -35.027  23.068   3.636  0.00  0.00    -0.215 N 
ATOM     13  N   UNL     1     -35.840  20.997   3.810  0.00  0.00    -0.374 NA
ATOM     14  N   UNL     1     -35.050  23.320   1.221  0.00  0.00    -0.227 NA
ATOM     15  N   UNL     1     -35.904  21.313   0.126  0.00  0.00    -0.227 NA
ATOM     16  C   UNL     1     -35.260  22.642   2.359  0.00  0.00    +0.169 C 
ATOM     17  C   UNL     1     -35.390  22.043   4.472  0.00  0.00    +0.225 C 
ATOM     18  C   UNL     1     -35.765  21.358   2.489  0.00  0.00    +0.196 C 
ATOM     19  C   UNL     1     -36.091  20.689   1.313  0.00  0.00    +0.155 C 
ATOM     20  C   UNL     1     -35.401  22.571   0.152  0.00  0.00    +0.253 C 
ATOM     21  N   UNL     1     -36.608  19.382   1.351  0.00  0.00    -0.341 N 
ATOM     22  H   UNL     1     -36.836  18.919   0.513  0.00  0.00    +0.144 HD
ATOM     23  H   UNL     1     -36.743  18.931   2.216  0.00  0.00    +0.144 HD
ENDBRANCH   9  12
BRANCH   8  24
ATOM     24  O   UNL     1     -34.935  25.873   5.845  0.00  0.00    -0.378 OA
ATOM     25  H   UNL     1     -35.168  26.814   5.887  0.00  0.00    +0.211 HD
ENDBRANCH   8  24
BRANCH   1  26
ATOM     26  O   UNL     1     -37.282  28.098   1.597  0.00  0.00    -0.302 OA
ATOM     27  H   UNL     1     -36.979  28.331   2.488  0.00  0.00    +0.222 HD
ENDBRANCH   1  26
TORSDOF 3
ENDMDL
MODEL 5
REMARK VINA RESULT:      -6.1      2.994      5.099
REMARK  Name = 1913
REMARK  3 active torsions:
REMARK  status: ('A' for Active; 'I' for Inactive)
REMARK    1  A    between atoms: P_1  and  O_26
REMARK    2  A    between atoms: C_8  and  O_24
REMARK    3  A    between atoms: C_9  and  N_12
REMARK                            x       y       z     vdW  Elec       q    Type
REMARK                         _______ _______ _______ _____ _____    ______ ____
ROOT
ATOM      1  P   UNL     1     -35.617  23.330  -0.769  0.00  0.00    +0.476 P 
ATOM      2  O   UNL     1     -37.762  22.987   2.206  0.00  0.00    -0.333 OA
ATOM      3  O   UNL     1     -35.351  22.477   0.574  0.00  0.00    -0.271 OA
ATOM      4  O   UNL     1     -37.120  23.887  -0.551  0.00  0.00    -0.271 OA
ATOM      5  O   UNL     1     -34.597  24.393  -1.057  0.00  0.00    -0.227 OA
ATOM      6  C   UNL     1     -36.332  21.548   1.021  0.00  0.00    +0.186 C 
ATOM      7  C   UNL     1     -37.734  22.148   1.037  0.00  0.00    +0.177 C 
ATOM      8  C   UNL     1     -36.088  21.293   2.496  0.00  0.00    +0.188 C 
ATOM      9  C   UNL     1     -36.897  22.392   3.193  0.00  0.00    +0.229 C 
ATOM     10  C   UNL     1     -38.131  22.955  -0.190  0.00  0.00    +0.186 C 
ENDROOT
BRANCH   9  12
ATOM     11 BR   UNL     1     -35.154  21.722   5.999  0.00  0.00    +0.004 Br
ATOM     12  N   UNL     1     -36.067  23.426   3.814  0.00  0.00    -0.215 N 
ATOM     13  N   UNL     1     -34.671  24.417   5.245  0.00  0.00    -0.374 NA
ATOM     14  N   UNL     1     -36.462  25.267   2.279  0.00  0.00    -0.227 NA
ATOM     15  N   UNL     1     -35.227  27.262   2.948  0.00  0.00    -0.227 NA
ATOM     16  C   UNL     1     -35.904  24.705   3.362  0.00  0.00    +0.169 C 
ATOM     17  C   UNL     1     -35.306  23.303   4.948  0.00  0.00    +0.225 C 
ATOM     18  C   UNL     1     -35.035  25.302   4.261  0.00  0.00    +0.196 C 
ATOM     19  C   UNL     1     -34.699  26.632   4.024  0.00  0.00    +0.155 C 
ATOM     20  C   UNL     1     -36.065  26.553   2.154  0.00  0.00    +0.253 C 
ATOM     21  N   UNL     1     -33.825  27.316   4.887  0.00  0.00    -0.341 N 
ATOM     22  H   UNL     1     -33.594  28.256   4.708  0.00  0.00    +0.144 HD
ATOM     23  H   UNL     1     -33.443  26.855   5.667  0.00  0.00    +0.144 HD
ENDBRANCH   9  12
BRANCH   8  24
ATOM     24  O   UNL     1     -36.636  20.031   2.866  0.00  0.00    -0.378 OA
ATOM     25  H   UNL     1     -36.716  19.983   3.832  0.00  0.00    +0.211 HD
ENDBRANCH   8  24
BRANCH   1  26
ATOM     26  O   UNL     1     -35.768  22.213  -1.930  0.00  0.00    -0.302 OA
ATOM     27  H   UNL     1     -35.702  22.639  -2.799  0.00  0.00    +0.222 HD
ENDBRANCH   1  26
TORSDOF 3
ENDMDL
MODEL 6
REMARK VINA RESULT:      -5.8      3.572      5.773
REMARK  Name = 1913
REMARK  3 active torsions:
REMARK  status: ('A' for Active; 'I' for Inactive)
REMARK    1  A    between atoms: P_1  and  O_26
REMARK    2  A    between atoms: C_8  and  O_24
REMARK    3  A    between atoms: C_9  and  N_12
REMARK                            x       y       z     vdW  Elec       q    Type
REMARK                         _______ _______ _______ _____ _____    ______ ____
ROOT
ATOM      1  P   UNL     1     -35.102  22.602  -1.006  0.00  0.00    +0.476 P 
ATOM      2  O   UNL     1     -38.250  21.820   0.739  0.00  0.00    -0.333 OA
ATOM      3  O   UNL     1     -35.313  22.020   0.484  0.00  0.00    -0.271 OA
ATOM      4  O   UNL     1     -36.606  22.627  -1.600  0.00  0.00    -0.271 OA
ATOM      5  O   UNL     1     -34.386  23.919  -1.076  0.00  0.00    -0.227 OA
ATOM      6  C   UNL     1     -36.109  20.856   0.675  0.00  0.00    +0.186 C 
ATOM      7  C   UNL     1     -37.442  20.938  -0.060  0.00  0.00    +0.177 C 
ATOM      8  C   UNL     1     -36.556  20.837   2.125  0.00  0.00    +0.188 C 
ATOM      9  C   UNL     1     -37.854  21.651   2.114  0.00  0.00    +0.229 C 
ATOM     10  C   UNL     1     -37.385  21.443  -1.494  0.00  0.00    +0.186 C 
ENDROOT
BRANCH   9  12
ATOM     11 BR   UNL     1     -40.065  24.103   1.434  0.00  0.00    +0.004 Br
ATOM     12  N   UNL     1     -37.731  22.960   2.759  0.00  0.00    -0.215 N 
ATOM     13  N   UNL     1     -38.171  25.076   3.314  0.00  0.00    -0.374 NA
ATOM     14  N   UNL     1     -35.760  22.576   4.126  0.00  0.00    -0.227 NA
ATOM     15  N   UNL     1     -35.177  24.559   5.422  0.00  0.00    -0.227 NA
ATOM     16  C   UNL     1     -36.770  23.325   3.659  0.00  0.00    +0.169 C 
ATOM     17  C   UNL     1     -38.548  24.047   2.584  0.00  0.00    +0.225 C 
ATOM     18  C   UNL     1     -37.061  24.638   3.991  0.00  0.00    +0.196 C 
ATOM     19  C   UNL     1     -36.218  25.257   4.910  0.00  0.00    +0.155 C 
ATOM     20  C   UNL     1     -35.013  23.281   5.004  0.00  0.00    +0.253 C 
ATOM     21  N   UNL     1     -36.438  26.589   5.302  0.00  0.00    -0.341 N 
ATOM     22  H   UNL     1     -35.836  27.016   5.953  0.00  0.00    +0.144 HD
ATOM     23  H   UNL     1     -37.197  27.093   4.928  0.00  0.00    +0.144 HD
ENDBRANCH   9  12
BRANCH   8  24
ATOM     24  O   UNL     1     -36.867  19.503   2.517  0.00  0.00    -0.378 OA
ATOM     25  H   UNL     1     -36.292  18.884   2.040  0.00  0.00    +0.211 HD
ENDBRANCH   8  24
BRANCH   1  26
ATOM     26  O   UNL     1     -34.375  21.399  -1.807  0.00  0.00    -0.302 OA
ATOM     27  H   UNL     1     -33.469  21.293  -1.478  0.00  0.00    +0.222 HD
ENDBRANCH   1  26
TORSDOF 3
ENDMDL
MODEL 7
REMARK VINA RESULT:      -5.6      3.790      6.052
REMARK  Name = 1913
REMARK  3 active torsions:
REMARK  status: ('A' for Active; 'I' for Inactive)
REMARK    1  A    between atoms: P_1  and  O_26
REMARK    2  A    between atoms: C_8  and  O_24
REMARK    3  A    between atoms: C_9  and  N_12
REMARK                            x       y       z     vdW  Elec       q    Type
REMARK                         _______ _______ _______ _____ _____    ______ ____
ROOT
ATOM      1  P   UNL     1     -35.152  21.891   0.924  0.00  0.00    +0.476 P 
ATOM      2  O   UNL     1     -37.306  23.993   3.047  0.00  0.00    -0.333 OA
ATOM      3  O   UNL     1     -34.909  22.372   2.445  0.00  0.00    -0.271 OA
ATOM      4  O   UNL     1     -36.639  22.441   0.604  0.00  0.00    -0.271 OA
ATOM      5  O   UNL     1     -34.103  22.333  -0.054  0.00  0.00    -0.227 OA
ATOM      6  C   UNL     1     -35.916  22.137   3.423  0.00  0.00    +0.186 C 
ATOM      7  C   UNL     1     -37.301  22.558   2.943  0.00  0.00    +0.177 C 
ATOM      8  C   UNL     1     -35.680  23.102   4.570  0.00  0.00    +0.188 C 
ATOM      9  C   UNL     1     -36.458  24.355   4.154  0.00  0.00    +0.229 C 
ATOM     10  C   UNL     1     -37.675  22.140   1.529  0.00  0.00    +0.186 C 
ENDROOT
BRANCH   9  12
ATOM     11 BR   UNL     1     -36.725  25.751   1.098  0.00  0.00    +0.004 Br
ATOM     12  N   UNL     1     -35.600  25.480   3.776  0.00  0.00    -0.215 N 
ATOM     13  N   UNL     1     -34.704  27.117   2.553  0.00  0.00    -0.374 NA
ATOM     14  N   UNL     1     -34.312  25.737   5.819  0.00  0.00    -0.227 NA
ATOM     15  N   UNL     1     -32.707  27.566   5.634  0.00  0.00    -0.227 NA
ATOM     16  C   UNL     1     -34.650  26.066   4.564  0.00  0.00    +0.169 C 
ATOM     17  C   UNL     1     -35.593  26.146   2.578  0.00  0.00    +0.225 C 
ATOM     18  C   UNL     1     -34.108  27.079   3.788  0.00  0.00    +0.196 C 
ATOM     19  C   UNL     1     -33.100  27.844   4.368  0.00  0.00    +0.155 C 
ATOM     20  C   UNL     1     -33.328  26.545   6.272  0.00  0.00    +0.253 C 
ATOM     21  N   UNL     1     -32.492  28.890   3.652  0.00  0.00    -0.341 N 
ATOM     22  H   UNL     1     -31.781  29.425   4.073  0.00  0.00    +0.144 HD
ATOM     23  H   UNL     1     -32.780  29.089   2.732  0.00  0.00    +0.144 HD
ENDBRANCH   9  12
BRANCH   8  24
ATOM     24  O   UNL     1     -36.262  22.587   5.763  0.00  0.00    -0.378 OA
ATOM     25  H   UNL     1     -35.718  21.858   6.100  0.00  0.00    +0.211 HD
ENDBRANCH   8  24
BRANCH   1  26
ATOM     26  O   UNL     1     -35.334  20.287   1.035  0.00  0.00    -0.302 OA
ATOM     27  H   UNL     1     -34.862  19.962   1.817  0.00  0.00    +0.222 HD
ENDBRANCH   1  26
TORSDOF 3
ENDMDL
MODEL 8
REMARK VINA RESULT:      -5.6      3.049      4.867
REMARK  Name = 1913
REMARK  3 active torsions:
REMARK  status: ('A' for Active; 'I' for Inactive)
REMARK    1  A    between atoms: P_1  and  O_26
REMARK    2  A    between atoms: C_8  and  O_24
REMARK    3  A    between atoms: C_9  and  N_12
REMARK                            x       y       z     vdW  Elec       q    Type
REMARK                         _______ _______ _______ _____ _____    ______ ____
ROOT
ATOM      1  P   UNL     1     -33.258  27.374   3.154  0.00  0.00    +0.476 P 
ATOM      2  O   UNL     1     -36.277  25.903   1.643  0.00  0.00    -0.333 OA
ATOM      3  O   UNL     1     -33.365  26.213   2.039  0.00  0.00    -0.271 OA
ATOM      4  O   UNL     1     -34.797  27.834   3.346  0.00  0.00    -0.271 OA
ATOM      5  O   UNL     1     -32.568  26.970   4.424  0.00  0.00    -0.227 OA
ATOM      6  C   UNL     1     -34.129  26.442   0.861  0.00  0.00    +0.186 C 
ATOM      7  C   UNL     1     -35.507  27.020   1.165  0.00  0.00    +0.177 C 
ATOM      8  C   UNL     1     -34.484  25.090   0.271  0.00  0.00    +0.188 C 
ATOM      9  C   UNL     1     -35.793  24.720   0.977  0.00  0.00    +0.229 C 
ATOM     10  C   UNL     1     -35.548  28.151   2.182  0.00  0.00    +0.186 C 
ENDROOT
BRANCH   9  12
ATOM     11 BR   UNL     1     -35.264  21.564  -0.081  0.00  0.00    +0.004 Br
ATOM     12  N   UNL     1     -35.650  23.630   1.943  0.00  0.00    -0.215 N 
ATOM     13  N   UNL     1     -35.346  21.575   2.758  0.00  0.00    -0.374 NA
ATOM     14  N   UNL     1     -35.904  24.864   4.019  0.00  0.00    -0.227 NA
ATOM     15  N   UNL     1     -35.722  23.393   5.957  0.00  0.00    -0.227 NA
ATOM     16  C   UNL     1     -35.707  23.748   3.303  0.00  0.00    +0.169 C 
ATOM     17  C   UNL     1     -35.433  22.305   1.666  0.00  0.00    +0.225 C 
ATOM     18  C   UNL     1     -35.515  22.464   3.789  0.00  0.00    +0.196 C 
ATOM     19  C   UNL     1     -35.527  22.307   5.172  0.00  0.00    +0.155 C 
ATOM     20  C   UNL     1     -35.897  24.587   5.342  0.00  0.00    +0.253 C 
ATOM     21  N   UNL     1     -35.342  21.039   5.751  0.00  0.00    -0.341 N 
ATOM     22  H   UNL     1     -35.351  20.940   6.731  0.00  0.00    +0.144 HD
ATOM     23  H   UNL     1     -35.200  20.252   5.178  0.00  0.00    +0.144 HD
ENDBRANCH   9  12
BRANCH   8  24
ATOM     24  O   UNL     1     -34.749  25.224  -1.122  0.00  0.00    -0.378 OA
ATOM     25  H   UNL     1     -35.698  25.101  -1.285  0.00  0.00    +0.211 HD
ENDBRANCH   8  24
BRANCH   1  26
ATOM     26  O   UNL     1     -32.564  28.613   2.378  0.00  0.00    -0.302 OA
ATOM     27  H   UNL     1     -33.128  28.888   1.638  0.00  0.00    +0.222 HD
ENDBRANCH   1  26
TORSDOF 3
ENDMDL
MODEL 9
REMARK VINA RESULT:      -5.5      3.580      5.652
REMARK  Name = 1913
REMARK  3 active torsions:
REMARK  status: ('A' for Active; 'I' for Inactive)
REMARK    1  A    between atoms: P_1  and  O_26
REMARK    2  A    between atoms: C_8  and  O_24
REMARK    3  A    between atoms: C_9  and  N_12
REMARK                            x       y       z     vdW  Elec       q    Type
REMARK                         _______ _______ _______ _____ _____    ______ ____
ROOT
ATOM      1  P   UNL     1     -36.195  20.307   1.712  0.00  0.00    +0.476 P 
ATOM      2  O   UNL     1     -37.569  23.289   0.044  0.00  0.00    -0.333 OA
ATOM      3  O   UNL     1     -37.542  21.124   2.056  0.00  0.00    -0.271 OA
ATOM      4  O   UNL     1     -35.665  21.032   0.367  0.00  0.00    -0.271 OA
ATOM      5  O   UNL     1     -35.187  20.250   2.824  0.00  0.00    -0.227 OA
ATOM      6  C   UNL     1     -38.495  21.367   1.028  0.00  0.00    +0.186 C 
ATOM      7  C   UNL     1     -37.852  21.908  -0.244  0.00  0.00    +0.177 C 
ATOM      8  C   UNL     1     -39.354  22.541   1.463  0.00  0.00    +0.188 C 
ATOM      9  C   UNL     1     -38.581  23.762   0.954  0.00  0.00    +0.229 C 
ATOM     10  C   UNL     1     -36.584  21.204  -0.704  0.00  0.00    +0.186 C 
ENDROOT
BRANCH   9  12
ATOM     11 BR   UNL     1     -40.477  25.655   3.000  0.00  0.00    +0.004 Br
ATOM     12  N   UNL     1     -37.960  24.549   2.021  0.00  0.00    -0.215 N 
ATOM     13  N   UNL     1     -37.754  25.928   3.763  0.00  0.00    -0.374 NA
ATOM     14  N   UNL     1     -35.627  23.973   1.672  0.00  0.00    -0.227 NA
ATOM     15  N   UNL     1     -34.183  25.093   3.289  0.00  0.00    -0.227 NA
ATOM     16  C   UNL     1     -36.624  24.609   2.303  0.00  0.00    +0.169 C 
ATOM     17  C   UNL     1     -38.596  25.360   2.925  0.00  0.00    +0.225 C 
ATOM     18  C   UNL     1     -36.518  25.467   3.386  0.00  0.00    +0.196 C 
ATOM     19  C   UNL     1     -35.238  25.702   3.880  0.00  0.00    +0.155 C 
ATOM     20  C   UNL     1     -34.438  24.279   2.237  0.00  0.00    +0.253 C 
ATOM     21  N   UNL     1     -35.038  26.560   4.975  0.00  0.00    -0.341 N 
ATOM     22  H   UNL     1     -34.128  26.718   5.315  0.00  0.00    +0.144 HD
ATOM     23  H   UNL     1     -35.807  27.001   5.402  0.00  0.00    +0.144 HD
ENDBRANCH   9  12
BRANCH   8  24
ATOM     24  O   UNL     1     -40.611  22.495   0.794  0.00  0.00    -0.378 OA
ATOM     25  H   UNL     1     -41.035  21.638   0.961  0.00  0.00    +0.211 HD
ENDBRANCH   8  24
BRANCH   1  26
ATOM     26  O   UNL     1     -36.720  18.862   1.208  0.00  0.00    -0.302 OA
ATOM     27  H   UNL     1     -37.247  18.447   1.909  0.00  0.00    +0.222 HD
ENDBRANCH   1  26
TORSDOF 3
ENDMDL
