MODEL 1
REMARK VINA RESULT:      -6.7      0.000      0.000
REMARK  Name = 1908
REMARK  2 active torsions:
REMARK  status: ('A' for Active; 'I' for Inactive)
REMARK    1  A    between atoms: C_9  and  C_16
REMARK    2  A    between atoms: C_19  and  S_22
REMARK                            x       y       z     vdW  Elec       q    Type
REMARK                         _______ _______ _______ _____ _____    ______ ____
ROOT
ATOM      1  O   UNL     1     -36.318  21.555   2.697  0.00  0.00    -0.265 OA
ATOM      2  O   UNL     1     -40.515  23.541   2.000  0.00  0.00    -0.246 OA
ATOM      3  N   UNL     1     -38.806  24.858   2.872  0.00  0.00    -0.266 N 
ATOM      4  N   UNL     1     -35.459  24.234   3.694  0.00  0.00    -0.310 N 
ATOM      5  N   UNL     1     -38.431  22.526   2.338  0.00  0.00    -0.246 N 
ATOM      6  N   UNL     1     -36.821  25.998   3.776  0.00  0.00    -0.301 N 
ATOM      7  C   UNL     1     -36.666  23.807   3.218  0.00  0.00    +0.133 A 
ATOM      8  C   UNL     1     -37.480  24.905   3.279  0.00  0.00    +0.132 A 
ATOM      9  C   UNL     1     -35.603  25.559   4.017  0.00  0.00    +0.169 C 
ATOM     10  C   UNL     1     -37.071  22.525   2.743  0.00  0.00    +0.280 A 
ATOM     11  C   UNL     1     -39.342  23.644   2.377  0.00  0.00    +0.335 A 
ATOM     12  C   UNL     1     -39.641  26.050   2.953  0.00  0.00    +0.136 C 
ATOM     13  C   UNL     1     -38.964  21.266   1.830  0.00  0.00    +0.138 C 
ATOM     14  H   UNL     1     -34.642  23.694   3.787  0.00  0.00    +0.149 HD
ATOM     15  H   UNL     1     -37.177  26.903   3.922  0.00  0.00    +0.150 HD
ENDROOT
BRANCH   9  16
ATOM     16  C   UNL     1     -34.512  26.336   4.555  0.00  0.00    +0.014 C 
ATOM     17  C   UNL     1     -33.845  27.254   3.745  0.00  0.00    +0.000 C 
ATOM     18  C   UNL     1     -34.125  26.167   5.884  0.00  0.00    +0.000 C 
ATOM     19  C   UNL     1     -32.403  27.836   5.594  0.00  0.00    +0.112 C 
ATOM     20  C   UNL     1     -32.790  28.004   4.265  0.00  0.00    +0.019 C 
ATOM     21  C   UNL     1     -33.070  26.918   6.404  0.00  0.00    +0.019 C 
BRANCH  19  22
ATOM     22  S   UNL     1     -31.083  28.775   6.244  0.00  0.00    +0.042 S 
ATOM     23  O   UNL     1     -30.693  29.841   5.068  0.00  0.00    -0.065 OA
ATOM     24  O   UNL     1     -31.591  29.550   7.367  0.00  0.00    -0.065 OA
ATOM     25  O   UNL     1     -29.961  27.865   6.418  0.00  0.00    -0.065 OA
ENDBRANCH  19  22
ENDBRANCH   9  16
TORSDOF 2
ENDMDL
MODEL 2
REMARK VINA RESULT:      -6.6      1.093      2.451
REMARK  Name = 1908
REMARK  2 active torsions:
REMARK  status: ('A' for Active; 'I' for Inactive)
REMARK    1  A    between atoms: C_9  and  C_16
REMARK    2  A    between atoms: C_19  and  S_22
REMARK                            x       y       z     vdW  Elec       q    Type
REMARK                         _______ _______ _______ _____ _____    ______ ____
ROOT
ATOM      1  O   UNL     1     -39.345  26.264   2.774  0.00  0.00    -0.265 OA
ATOM      2  O   UNL     1     -38.777  21.663   2.034  0.00  0.00    -0.246 OA
ATOM      3  N   UNL     1     -36.990  22.863   2.918  0.00  0.00    -0.266 N 
ATOM      4  N   UNL     1     -36.532  26.229   3.771  0.00  0.00    -0.310 N 
ATOM      5  N   UNL     1     -39.087  23.956   2.393  0.00  0.00    -0.246 N 
ATOM      6  N   UNL     1     -35.286  24.381   3.839  0.00  0.00    -0.301 N 
ATOM      7  C   UNL     1     -37.316  25.222   3.284  0.00  0.00    +0.133 A 
ATOM      8  C   UNL     1     -36.530  24.103   3.337  0.00  0.00    +0.132 A 
ATOM      9  C   UNL     1     -35.320  25.673   4.091  0.00  0.00    +0.169 C 
ATOM     10  C   UNL     1     -38.660  25.245   2.809  0.00  0.00    +0.280 A 
ATOM     11  C   UNL     1     -38.312  22.740   2.420  0.00  0.00    +0.335 A 
ATOM     12  C   UNL     1     -36.122  21.695   2.990  0.00  0.00    +0.136 C 
ATOM     13  C   UNL     1     -40.450  23.850   1.885  0.00  0.00    +0.138 C 
ATOM     14  H   UNL     1     -36.789  27.174   3.874  0.00  0.00    +0.149 HD
ATOM     15  H   UNL     1     -34.538  23.758   3.978  0.00  0.00    +0.150 HD
ENDROOT
BRANCH   9  16
ATOM     16  C   UNL     1     -34.241  26.460   4.639  0.00  0.00    +0.014 C 
ATOM     17  C   UNL     1     -33.868  26.296   5.972  0.00  0.00    +0.000 C 
ATOM     18  C   UNL     1     -33.574  27.383   3.835  0.00  0.00    +0.000 C 
ATOM     19  C   UNL     1     -32.157  27.980   5.698  0.00  0.00    +0.112 C 
ATOM     20  C   UNL     1     -32.825  27.057   6.502  0.00  0.00    +0.019 C 
ATOM     21  C   UNL     1     -32.531  28.143   4.364  0.00  0.00    +0.019 C 
BRANCH  19  22
ATOM     22  S   UNL     1     -30.852  28.931   6.361  0.00  0.00    +0.042 S 
ATOM     23  O   UNL     1     -30.465  30.006   5.192  0.00  0.00    -0.065 OA
ATOM     24  O   UNL     1     -31.377  29.695   7.483  0.00  0.00    -0.065 OA
ATOM     25  O   UNL     1     -29.721  28.033   6.540  0.00  0.00    -0.065 OA
ENDBRANCH  19  22
ENDBRANCH   9  16
TORSDOF 2
ENDMDL
MODEL 3
REMARK VINA RESULT:      -6.3      5.220      8.857
REMARK  Name = 1908
REMARK  2 active torsions:
REMARK  status: ('A' for Active; 'I' for Inactive)
REMARK    1  A    between atoms: C_9  and  C_16
REMARK    2  A    between atoms: C_19  and  S_22
REMARK                            x       y       z     vdW  Elec       q    Type
REMARK                         _______ _______ _______ _____ _____    ______ ____
ROOT
ATOM      1  O   UNL     1     -36.117  22.925   5.656  0.00  0.00    -0.265 OA
ATOM      2  O   UNL     1     -35.274  26.834   3.196  0.00  0.00    -0.246 OA
ATOM      3  N   UNL     1     -34.996  24.782   2.132  0.00  0.00    -0.266 N 
ATOM      4  N   UNL     1     -35.389  21.458   3.161  0.00  0.00    -0.310 N 
ATOM      5  N   UNL     1     -35.701  24.899   4.446  0.00  0.00    -0.246 N 
ATOM      6  N   UNL     1     -34.789  22.484   1.275  0.00  0.00    -0.301 N 
ATOM      7  C   UNL     1     -35.437  22.797   3.424  0.00  0.00    +0.133 A 
ATOM      8  C   UNL     1     -35.066  23.402   2.254  0.00  0.00    +0.132 A 
ATOM      9  C   UNL     1     -34.994  21.320   1.856  0.00  0.00    +0.169 C 
ATOM     10  C   UNL     1     -35.786  23.493   4.619  0.00  0.00    +0.280 A 
ATOM     11  C   UNL     1     -35.317  25.599   3.244  0.00  0.00    +0.335 A 
ATOM     12  C   UNL     1     -34.597  25.388   0.868  0.00  0.00    +0.136 C 
ATOM     13  C   UNL     1     -36.036  25.723   5.603  0.00  0.00    +0.138 C 
ATOM     14  H   UNL     1     -35.598  20.730   3.790  0.00  0.00    +0.149 HD
ATOM     15  H   UNL     1     -34.502  22.657   0.350  0.00  0.00    +0.150 HD
ENDROOT
BRANCH   9  16
ATOM     16  C   UNL     1     -34.837  20.025   1.239  0.00  0.00    +0.014 C 
ATOM     17  C   UNL     1     -33.669  19.293   1.445  0.00  0.00    +0.000 C 
ATOM     18  C   UNL     1     -35.853  19.508   0.436  0.00  0.00    +0.000 C 
ATOM     19  C   UNL     1     -34.533  17.522   0.046  0.00  0.00    +0.112 C 
ATOM     20  C   UNL     1     -33.517  18.041   0.848  0.00  0.00    +0.019 C 
ATOM     21  C   UNL     1     -35.701  18.255  -0.160  0.00  0.00    +0.019 C 
BRANCH  19  22
ATOM     22  S   UNL     1     -34.342  15.956  -0.700  0.00  0.00    +0.042 S 
ATOM     23  O   UNL     1     -35.548  15.038  -0.088  0.00  0.00    -0.065 OA
ATOM     24  O   UNL     1     -34.602  16.101  -2.125  0.00  0.00    -0.065 OA
ATOM     25  O   UNL     1     -33.077  15.413  -0.228  0.00  0.00    -0.065 OA
ENDBRANCH  19  22
ENDBRANCH   9  16
TORSDOF 2
ENDMDL
MODEL 4
REMARK VINA RESULT:      -6.2      5.085      7.430
REMARK  Name = 1908
REMARK  2 active torsions:
REMARK  status: ('A' for Active; 'I' for Inactive)
REMARK    1  A    between atoms: C_9  and  C_16
REMARK    2  A    between atoms: C_19  and  S_22
REMARK                            x       y       z     vdW  Elec       q    Type
REMARK                         _______ _______ _______ _____ _____    ______ ____
ROOT
ATOM      1  O   UNL     1     -36.517  24.292   3.673  0.00  0.00    -0.265 OA
ATOM      2  O   UNL     1     -40.510  22.932   1.610  0.00  0.00    -0.246 OA
ATOM      3  N   UNL     1     -38.564  21.750   1.127  0.00  0.00    -0.266 N 
ATOM      4  N   UNL     1     -35.235  22.052   2.175  0.00  0.00    -0.310 N 
ATOM      5  N   UNL     1     -38.532  23.631   2.653  0.00  0.00    -0.246 N 
ATOM      6  N   UNL     1     -36.362  20.696   0.810  0.00  0.00    -0.301 N 
ATOM      7  C   UNL     1     -36.533  22.475   2.202  0.00  0.00    +0.133 A 
ATOM      8  C   UNL     1     -37.201  21.630   1.360  0.00  0.00    +0.132 A 
ATOM      9  C   UNL     1     -35.183  20.979   1.323  0.00  0.00    +0.169 C 
ATOM     10  C   UNL     1     -37.140  23.548   2.921  0.00  0.00    +0.280 A 
ATOM     11  C   UNL     1     -39.295  22.775   1.777  0.00  0.00    +0.335 A 
ATOM     12  C   UNL     1     -39.238  20.828   0.222  0.00  0.00    +0.136 C 
ATOM     13  C   UNL     1     -39.267  24.692   3.332  0.00  0.00    +0.138 C 
ATOM     14  H   UNL     1     -34.481  22.442   2.673  0.00  0.00    +0.149 HD
ATOM     15  H   UNL     1     -36.590  19.979   0.176  0.00  0.00    +0.150 HD
ENDROOT
BRANCH   9  16
ATOM     16  C   UNL     1     -33.951  20.276   1.056  0.00  0.00    +0.014 C 
ATOM     17  C   UNL     1     -32.978  20.861   0.247  0.00  0.00    +0.000 C 
ATOM     18  C   UNL     1     -33.735  19.014   1.607  0.00  0.00    +0.000 C 
ATOM     19  C   UNL     1     -31.570  18.919   0.539  0.00  0.00    +0.112 C 
ATOM     20  C   UNL     1     -31.787  20.182  -0.012  0.00  0.00    +0.019 C 
ATOM     21  C   UNL     1     -32.544  18.335   1.349  0.00  0.00    +0.019 C 
BRANCH  19  22
ATOM     22  S   UNL     1     -30.080  18.070   0.215  0.00  0.00    +0.042 S 
ATOM     23  O   UNL     1     -28.982  19.236  -0.110  0.00  0.00    -0.065 OA
ATOM     24  O   UNL     1     -29.655  17.419   1.446  0.00  0.00    -0.065 OA
ATOM     25  O   UNL     1     -30.288  17.295  -0.999  0.00  0.00    -0.065 OA
ENDBRANCH  19  22
ENDBRANCH   9  16
TORSDOF 2
ENDMDL
MODEL 5
REMARK VINA RESULT:      -6.1      5.870      7.887
REMARK  Name = 1908
REMARK  2 active torsions:
REMARK  status: ('A' for Active; 'I' for Inactive)
REMARK    1  A    between atoms: C_9  and  C_16
REMARK    2  A    between atoms: C_19  and  S_22
REMARK                            x       y       z     vdW  Elec       q    Type
REMARK                         _______ _______ _______ _____ _____    ______ ____
ROOT
ATOM      1  O   UNL     1     -31.010  17.249   0.943  0.00  0.00    -0.265 OA
ATOM      2  O   UNL     1     -34.159  14.740  -1.472  0.00  0.00    -0.246 OA
ATOM      3  N   UNL     1     -34.872  16.701  -0.440  0.00  0.00    -0.266 N 
ATOM      4  N   UNL     1     -33.262  19.125   1.508  0.00  0.00    -0.310 N 
ATOM      5  N   UNL     1     -32.568  15.973  -0.273  0.00  0.00    -0.246 N 
ATOM      6  N   UNL     1     -35.333  18.806   0.749  0.00  0.00    -0.301 N 
ATOM      7  C   UNL     1     -33.231  17.963   0.791  0.00  0.00    +0.133 A 
ATOM      8  C   UNL     1     -34.510  17.791   0.338  0.00  0.00    +0.132 A 
ATOM      9  C   UNL     1     -34.549  19.594   1.453  0.00  0.00    +0.169 C 
ATOM     10  C   UNL     1     -32.151  17.070   0.525  0.00  0.00    +0.280 A 
ATOM     11  C   UNL     1     -33.896  15.731  -0.781  0.00  0.00    +0.335 A 
ATOM     12  C   UNL     1     -36.246  16.553  -0.903  0.00  0.00    +0.136 C 
ATOM     13  C   UNL     1     -31.549  14.987  -0.615  0.00  0.00    +0.138 C 
ATOM     14  H   UNL     1     -32.504  19.546   1.975  0.00  0.00    +0.149 HD
ATOM     15  H   UNL     1     -36.293  18.918   0.561  0.00  0.00    +0.150 HD
ENDROOT
BRANCH   9  16
ATOM     16  C   UNL     1     -34.943  20.818   2.109  0.00  0.00    +0.014 C 
ATOM     17  C   UNL     1     -35.079  21.992   1.370  0.00  0.00    +0.000 C 
ATOM     18  C   UNL     1     -35.188  20.825   3.482  0.00  0.00    +0.000 C 
ATOM     19  C   UNL     1     -35.705  23.182   3.377  0.00  0.00    +0.112 C 
ATOM     20  C   UNL     1     -35.460  23.175   2.004  0.00  0.00    +0.019 C 
ATOM     21  C   UNL     1     -35.569  22.008   4.116  0.00  0.00    +0.019 C 
BRANCH  19  22
ATOM     22  S   UNL     1     -36.182  24.662   4.170  0.00  0.00    +0.042 S 
ATOM     23  O   UNL     1     -37.816  24.668   4.125  0.00  0.00    -0.065 OA
ATOM     24  O   UNL     1     -35.796  24.568   5.571  0.00  0.00    -0.065 OA
ATOM     25  O   UNL     1     -35.704  25.760   3.342  0.00  0.00    -0.065 OA
ENDBRANCH  19  22
ENDBRANCH   9  16
TORSDOF 2
ENDMDL
MODEL 6
REMARK VINA RESULT:      -6.1      5.155      7.405
REMARK  Name = 1908
REMARK  2 active torsions:
REMARK  status: ('A' for Active; 'I' for Inactive)
REMARK    1  A    between atoms: C_9  and  C_16
REMARK    2  A    between atoms: C_19  and  S_22
REMARK                            x       y       z     vdW  Elec       q    Type
REMARK                         _______ _______ _______ _____ _____    ______ ____
ROOT
ATOM      1  O   UNL     1     -41.937  28.735   4.868  0.00  0.00    -0.265 OA
ATOM      2  O   UNL     1     -45.387  28.120   1.743  0.00  0.00    -0.246 OA
ATOM      3  N   UNL     1     -43.597  26.633   1.713  0.00  0.00    -0.266 N 
ATOM      4  N   UNL     1     -40.672  26.339   3.617  0.00  0.00    -0.310 N 
ATOM      5  N   UNL     1     -43.680  28.449   3.312  0.00  0.00    -0.246 N 
ATOM      6  N   UNL     1     -41.589  25.224   1.918  0.00  0.00    -0.301 N 
ATOM      7  C   UNL     1     -41.845  26.978   3.329  0.00  0.00    +0.133 A 
ATOM      8  C   UNL     1     -42.386  26.276   2.287  0.00  0.00    +0.132 A 
ATOM      9  C   UNL     1     -40.563  25.290   2.740  0.00  0.00    +0.169 C 
ATOM     10  C   UNL     1     -42.444  28.124   3.931  0.00  0.00    +0.280 A 
ATOM     11  C   UNL     1     -44.304  27.755   2.213  0.00  0.00    +0.335 A 
ATOM     12  C   UNL     1     -44.141  25.858   0.604  0.00  0.00    +0.136 C 
ATOM     13  C   UNL     1     -44.392  29.607   3.842  0.00  0.00    +0.138 C 
ATOM     14  H   UNL     1     -40.028  26.584   4.320  0.00  0.00    +0.149 HD
ATOM     15  H   UNL     1     -41.748  24.569   1.201  0.00  0.00    +0.150 HD
ENDROOT
BRANCH   9  16
ATOM     16  C   UNL     1     -39.433  24.393   2.761  0.00  0.00    +0.014 C 
ATOM     17  C   UNL     1     -38.236  24.795   3.350  0.00  0.00    +0.000 C 
ATOM     18  C   UNL     1     -39.540  23.125   2.191  0.00  0.00    +0.000 C 
ATOM     19  C   UNL     1     -37.249  22.659   2.801  0.00  0.00    +0.112 C 
ATOM     20  C   UNL     1     -37.143  23.928   3.370  0.00  0.00    +0.019 C 
ATOM     21  C   UNL     1     -38.448  22.257   2.212  0.00  0.00    +0.019 C 
BRANCH  19  22
ATOM     22  S   UNL     1     -35.882  21.575   2.826  0.00  0.00    +0.042 S 
ATOM     23  O   UNL     1     -35.326  21.618   4.363  0.00  0.00    -0.065 OA
ATOM     24  O   UNL     1     -36.373  20.224   2.591  0.00  0.00    -0.065 OA
ATOM     25  O   UNL     1     -34.865  22.154   1.962  0.00  0.00    -0.065 OA
ENDBRANCH  19  22
ENDBRANCH   9  16
TORSDOF 2
ENDMDL
MODEL 7
REMARK VINA RESULT:      -6.1      5.757      8.974
REMARK  Name = 1908
REMARK  2 active torsions:
REMARK  status: ('A' for Active; 'I' for Inactive)
REMARK    1  A    between atoms: C_9  and  C_16
REMARK    2  A    between atoms: C_19  and  S_22
REMARK                            x       y       z     vdW  Elec       q    Type
REMARK                         _______ _______ _______ _____ _____    ______ ____
ROOT
ATOM      1  O   UNL     1     -36.891  23.852   0.237  0.00  0.00    -0.265 OA
ATOM      2  O   UNL     1     -36.911  24.559   4.878  0.00  0.00    -0.246 OA
ATOM      3  N   UNL     1     -35.922  22.615   4.066  0.00  0.00    -0.266 N 
ATOM      4  N   UNL     1     -35.464  21.304   0.851  0.00  0.00    -0.310 N 
ATOM      5  N   UNL     1     -36.914  24.231   2.559  0.00  0.00    -0.246 N 
ATOM      6  N   UNL     1     -34.953  20.662   2.924  0.00  0.00    -0.301 N 
ATOM      7  C   UNL     1     -35.930  22.284   1.680  0.00  0.00    +0.133 A 
ATOM      8  C   UNL     1     -35.605  21.867   2.941  0.00  0.00    +0.132 A 
ATOM      9  C   UNL     1     -34.884  20.350   1.647  0.00  0.00    +0.169 C 
ATOM     10  C   UNL     1     -36.612  23.501   1.380  0.00  0.00    +0.280 A 
ATOM     11  C   UNL     1     -36.603  23.850   3.915  0.00  0.00    +0.335 A 
ATOM     12  C   UNL     1     -35.558  22.137   5.393  0.00  0.00    +0.136 C 
ATOM     13  C   UNL     1     -37.614  25.499   2.382  0.00  0.00    +0.138 C 
ATOM     14  H   UNL     1     -35.530  21.286  -0.131  0.00  0.00    +0.149 HD
ATOM     15  H   UNL     1     -34.616  20.148   3.692  0.00  0.00    +0.150 HD
ENDROOT
BRANCH   9  16
ATOM     16  C   UNL     1     -34.282  19.160   1.096  0.00  0.00    +0.014 C 
ATOM     17  C   UNL     1     -33.004  18.775   1.500  0.00  0.00    +0.000 C 
ATOM     18  C   UNL     1     -34.978  18.396   0.159  0.00  0.00    +0.000 C 
ATOM     19  C   UNL     1     -33.118  16.860   0.030  0.00  0.00    +0.112 C 
ATOM     20  C   UNL     1     -32.422  17.625   0.966  0.00  0.00    +0.019 C 
ATOM     21  C   UNL     1     -34.395  17.246  -0.373  0.00  0.00    +0.019 C 
BRANCH  19  22
ATOM     22  S   UNL     1     -32.388  15.422  -0.636  0.00  0.00    +0.042 S 
ATOM     23  O   UNL     1     -31.522  15.935  -1.924  0.00  0.00    -0.065 OA
ATOM     24  O   UNL     1     -31.436  14.906   0.337  0.00  0.00    -0.065 OA
ATOM     25  O   UNL     1     -33.473  14.585  -1.127  0.00  0.00    -0.065 OA
ENDBRANCH  19  22
ENDBRANCH   9  16
TORSDOF 2
ENDMDL
MODEL 8
REMARK VINA RESULT:      -6.0      4.216      8.653
REMARK  Name = 1908
REMARK  2 active torsions:
REMARK  status: ('A' for Active; 'I' for Inactive)
REMARK    1  A    between atoms: C_9  and  C_16
REMARK    2  A    between atoms: C_19  and  S_22
REMARK                            x       y       z     vdW  Elec       q    Type
REMARK                         _______ _______ _______ _____ _____    ______ ____
ROOT
ATOM      1  O   UNL     1     -33.176  31.883   2.697  0.00  0.00    -0.265 OA
ATOM      2  O   UNL     1     -29.053  32.159   4.926  0.00  0.00    -0.246 OA
ATOM      3  N   UNL     1     -30.211  30.141   5.000  0.00  0.00    -0.266 N 
ATOM      4  N   UNL     1     -33.264  29.062   3.665  0.00  0.00    -0.310 N 
ATOM      5  N   UNL     1     -31.107  32.048   3.806  0.00  0.00    -0.246 N 
ATOM      6  N   UNL     1     -31.651  28.148   4.905  0.00  0.00    -0.301 N 
ATOM      7  C   UNL     1     -32.323  30.035   3.846  0.00  0.00    +0.133 A 
ATOM      8  C   UNL     1     -31.348  29.450   4.607  0.00  0.00    +0.132 A 
ATOM      9  C   UNL     1     -32.814  27.945   4.322  0.00  0.00    +0.169 C 
ATOM     10  C   UNL     1     -32.287  31.383   3.381  0.00  0.00    +0.280 A 
ATOM     11  C   UNL     1     -30.044  31.493   4.607  0.00  0.00    +0.335 A 
ATOM     12  C   UNL     1     -29.195  29.482   5.811  0.00  0.00    +0.136 C 
ATOM     13  C   UNL     1     -30.953  33.438   3.391  0.00  0.00    +0.138 C 
ATOM     14  H   UNL     1     -34.104  29.145   3.160  0.00  0.00    +0.149 HD
ATOM     15  H   UNL     1     -31.121  27.511   5.435  0.00  0.00    +0.150 HD
ENDROOT
BRANCH   9  16
ATOM     16  C   UNL     1     -33.568  26.714   4.338  0.00  0.00    +0.014 C 
ATOM     17  C   UNL     1     -33.739  25.987   3.161  0.00  0.00    +0.000 C 
ATOM     18  C   UNL     1     -34.125  26.255   5.531  0.00  0.00    +0.000 C 
ATOM     19  C   UNL     1     -35.026  24.337   4.370  0.00  0.00    +0.112 C 
ATOM     20  C   UNL     1     -34.469  24.798   3.177  0.00  0.00    +0.019 C 
ATOM     21  C   UNL     1     -34.854  25.065   5.547  0.00  0.00    +0.019 C 
BRANCH  19  22
ATOM     22  S   UNL     1     -35.938  22.849   4.389  0.00  0.00    +0.042 S 
ATOM     23  O   UNL     1     -36.073  22.447   5.967  0.00  0.00    -0.065 OA
ATOM     24  O   UNL     1     -37.282  23.139   3.909  0.00  0.00    -0.065 OA
ATOM     25  O   UNL     1     -35.119  21.840   3.734  0.00  0.00    -0.065 OA
ENDBRANCH  19  22
ENDBRANCH   9  16
TORSDOF 2
ENDMDL
MODEL 9
REMARK VINA RESULT:      -6.0      4.300      5.908
REMARK  Name = 1908
REMARK  2 active torsions:
REMARK  status: ('A' for Active; 'I' for Inactive)
REMARK    1  A    between atoms: C_9  and  C_16
REMARK    2  A    between atoms: C_19  and  S_22
REMARK                            x       y       z     vdW  Elec       q    Type
REMARK                         _______ _______ _______ _____ _____    ______ ____
ROOT
ATOM      1  O   UNL     1     -38.637  19.255  -0.359  0.00  0.00    -0.265 OA
ATOM      2  O   UNL     1     -35.060  16.287  -1.022  0.00  0.00    -0.246 OA
ATOM      3  N   UNL     1     -34.688  18.188   0.268  0.00  0.00    -0.266 N 
ATOM      4  N   UNL     1     -36.715  20.867   1.257  0.00  0.00    -0.310 N 
ATOM      5  N   UNL     1     -36.861  17.750  -0.707  0.00  0.00    -0.246 N 
ATOM      6  N   UNL     1     -34.592  20.268   1.580  0.00  0.00    -0.301 N 
ATOM      7  C   UNL     1     -36.544  19.689   0.587  0.00  0.00    +0.133 A 
ATOM      8  C   UNL     1     -35.238  19.344   0.801  0.00  0.00    +0.132 A 
ATOM      9  C   UNL     1     -35.511  21.174   1.838  0.00  0.00    +0.169 C 
ATOM     10  C   UNL     1     -37.468  18.923  -0.184  0.00  0.00    +0.280 A 
ATOM     11  C   UNL     1     -35.494  17.330  -0.522  0.00  0.00    +0.335 A 
ATOM     12  C   UNL     1     -33.291  17.856   0.519  0.00  0.00    +0.136 C 
ATOM     13  C   UNL     1     -37.708  16.881  -1.516  0.00  0.00    +0.138 C 
ATOM     14  H   UNL     1     -37.544  21.395   1.313  0.00  0.00    +0.149 HD
ATOM     15  H   UNL     1     -33.654  20.257   1.877  0.00  0.00    +0.150 HD
ENDROOT
BRANCH   9  16
ATOM     16  C   UNL     1     -35.329  22.366   2.631  0.00  0.00    +0.014 C 
ATOM     17  C   UNL     1     -34.918  23.551   2.023  0.00  0.00    +0.000 C 
ATOM     18  C   UNL     1     -35.565  22.331   4.005  0.00  0.00    +0.000 C 
ATOM     19  C   UNL     1     -34.978  24.669   4.164  0.00  0.00    +0.112 C 
ATOM     20  C   UNL     1     -34.741  24.703   2.790  0.00  0.00    +0.019 C 
ATOM     21  C   UNL     1     -35.389  23.483   4.772  0.00  0.00    +0.019 C 
BRANCH  19  22
ATOM     22  S   UNL     1     -34.757  26.110   5.123  0.00  0.00    +0.042 S 
ATOM     23  O   UNL     1     -34.815  27.349   4.059  0.00  0.00    -0.065 OA
ATOM     24  O   UNL     1     -35.911  26.250   6.000  0.00  0.00    -0.065 OA
ATOM     25  O   UNL     1     -33.411  26.051   5.674  0.00  0.00    -0.065 OA
ENDBRANCH  19  22
ENDBRANCH   9  16
TORSDOF 2
ENDMDL
