MODEL 1
REMARK VINA RESULT:      -6.6      0.000      0.000
REMARK  Name = 5460083
REMARK  9 active torsions:
REMARK  status: ('A' for Active; 'I' for Inactive)
REMARK    1  A    between atoms: C_4  and  O_22
REMARK    2  A    between atoms: C_5  and  C_26
REMARK    3  A    between atoms: C_20  and  O_24
REMARK    4  A    between atoms: C_26  and  C_28
REMARK    5  A    between atoms: C_28  and  O_29
REMARK    6  A    between atoms: C_28  and  C_31
REMARK    7  A    between atoms: C_31  and  C_32
REMARK    8  A    between atoms: C_32  and  C_33
REMARK    9  A    between atoms: C_33  and  O_36
REMARK                            x       y       z     vdW  Elec       q    Type
REMARK                         _______ _______ _______ _____ _____    ______ ____
ROOT
ATOM      1  O   UNL     1     -38.114  18.913  -2.802  0.00  0.00    -0.291 OA
ATOM      2  O   UNL     1     -36.203  14.239  -1.118  0.00  0.00    -0.294 OA
ATOM      3  C   UNL     1     -35.543  21.385   1.943  0.00  0.00    +0.026 C 
ATOM      4  C   UNL     1     -36.803  20.568   1.556  0.00  0.00    +0.103 C 
ATOM      5  C   UNL     1     -36.049  22.109   3.218  0.00  0.00    +0.005 C 
ATOM      6  C   UNL     1     -35.334  18.867   0.318  0.00  0.00    +0.021 C 
ATOM      7  C   UNL     1     -34.383  20.409   2.201  0.00  0.00    +0.003 C 
ATOM      8  C   UNL     1     -35.011  18.224  -1.086  0.00  0.00    +0.014 C 
ATOM      9  C   UNL     1     -36.582  19.766   0.292  0.00  0.00    -0.018 C 
ATOM     10  C   UNL     1     -37.919  21.618   1.668  0.00  0.00    +0.031 C 
ATOM     11  C   UNL     1     -37.505  22.496   2.867  0.00  0.00    +0.003 C 
ATOM     12  C   UNL     1     -34.090  19.559   0.954  0.00  0.00    +0.004 C 
ATOM     13  C   UNL     1     -36.319  17.711  -1.749  0.00  0.00    +0.070 C 
ATOM     14  C   UNL     1     -35.130  22.413   0.854  0.00  0.00    +0.003 C 
ATOM     15  C   UNL     1     -34.030  17.023  -0.964  0.00  0.00    +0.038 C 
ATOM     16  C   UNL     1     -37.465  19.776  -0.719  0.00  0.00    +0.031 C 
ATOM     17  C   UNL     1     -34.349  19.248  -2.048  0.00  0.00    +0.001 C 
ATOM     18  C   UNL     1     -37.342  18.825  -1.848  0.00  0.00    +0.173 C 
ATOM     19  C   UNL     1     -36.948  16.512  -1.032  0.00  0.00    +0.075 C 
ATOM     20  C   UNL     1     -34.609  15.816  -0.230  0.00  0.00    +0.167 C 
ATOM     21  C   UNL     1     -35.933  15.409  -0.849  0.00  0.00    +0.178 C 
ENDROOT
BRANCH   4  22
ATOM     22  O   UNL     1     -37.080  19.596   2.590  0.00  0.00    -0.383 OA
ATOM     23  H   UNL     1     -37.170  18.716   2.191  0.00  0.00    +0.211 HD
ENDBRANCH   4  22
BRANCH  20  24
ATOM     24  O   UNL     1     -33.698  14.732  -0.287  0.00  0.00    -0.377 OA
ATOM     25  H   UNL     1     -32.824  15.058  -0.558  0.00  0.00    +0.211 HD
ENDBRANCH  20  24
BRANCH   5  26
ATOM     26  C   UNL     1     -35.224  23.294   3.702  0.00  0.00    +0.027 C 
ATOM     27  C   UNL     1     -34.826  23.075   5.169  0.00  0.00    +0.002 C 
BRANCH  26  28
ATOM     28  C   UNL     1     -35.944  24.656   3.530  0.00  0.00    +0.111 C 
BRANCH  28  29
ATOM     29  O   UNL     1     -35.463  25.319   2.357  0.00  0.00    -0.384 OA
ATOM     30  H   UNL     1     -36.207  25.501   1.762  0.00  0.00    +0.210 HD
ENDBRANCH  28  29
BRANCH  28  31
ATOM     31  C   UNL     1     -35.768  25.643   4.697  0.00  0.00    +0.032 C 
BRANCH  31  32
ATOM     32  C   UNL     1     -34.969  26.895   4.328  0.00  0.00    +0.029 C 
BRANCH  32  33
ATOM     33  C   UNL     1     -33.489  26.891   4.766  0.00  0.00    +0.089 C 
ATOM     34  C   UNL     1     -33.333  26.662   6.270  0.00  0.00    +0.029 C 
ATOM     35  C   UNL     1     -32.751  28.160   4.334  0.00  0.00    +0.029 C 
BRANCH  33  36
ATOM     36  O   UNL     1     -32.875  25.783   4.091  0.00  0.00    -0.387 OA
ATOM     37  H   UNL     1     -32.597  25.121   4.743  0.00  0.00    +0.210 HD
ENDBRANCH  33  36
ENDBRANCH  32  33
ENDBRANCH  31  32
ENDBRANCH  28  31
ENDBRANCH  26  28
ENDBRANCH   5  26
TORSDOF 9
ENDMDL
MODEL 2
REMARK VINA RESULT:      -6.4      4.023      6.103
REMARK  Name = 5460083
REMARK  9 active torsions:
REMARK  status: ('A' for Active; 'I' for Inactive)
REMARK    1  A    between atoms: C_4  and  O_22
REMARK    2  A    between atoms: C_5  and  C_26
REMARK    3  A    between atoms: C_20  and  O_24
REMARK    4  A    between atoms: C_26  and  C_28
REMARK    5  A    between atoms: C_28  and  O_29
REMARK    6  A    between atoms: C_28  and  C_31
REMARK    7  A    between atoms: C_31  and  C_32
REMARK    8  A    between atoms: C_32  and  C_33
REMARK    9  A    between atoms: C_33  and  O_36
REMARK                            x       y       z     vdW  Elec       q    Type
REMARK                         _______ _______ _______ _____ _____    ______ ____
ROOT
ATOM      1  O   UNL     1     -37.291  25.069  -2.086  0.00  0.00    -0.291 OA
ATOM      2  O   UNL     1     -41.383  22.646   0.305  0.00  0.00    -0.294 OA
ATOM      3  C   UNL     1     -34.855  25.702   3.291  0.00  0.00    +0.026 C 
ATOM      4  C   UNL     1     -35.945  26.339   2.389  0.00  0.00    +0.103 C 
ATOM      5  C   UNL     1     -34.496  26.905   4.203  0.00  0.00    +0.005 C 
ATOM      6  C   UNL     1     -36.950  24.021   1.946  0.00  0.00    +0.021 C 
ATOM      7  C   UNL     1     -35.474  24.512   4.045  0.00  0.00    +0.003 C 
ATOM      8  C   UNL     1     -37.269  22.945   0.836  0.00  0.00    +0.014 C 
ATOM      9  C   UNL     1     -36.463  25.358   1.361  0.00  0.00    -0.018 C 
ATOM     10  C   UNL     1     -35.296  27.672   1.986  0.00  0.00    +0.031 C 
ATOM     11  C   UNL     1     -34.509  28.114   3.239  0.00  0.00    +0.003 C 
ATOM     12  C   UNL     1     -36.018  23.462   3.064  0.00  0.00    +0.004 C 
ATOM     13  C   UNL     1     -38.046  23.605  -0.336  0.00  0.00    +0.070 C 
ATOM     14  C   UNL     1     -33.611  25.226   2.492  0.00  0.00    +0.003 C 
ATOM     15  C   UNL     1     -38.133  21.777   1.390  0.00  0.00    +0.038 C 
ATOM     16  C   UNL     1     -36.573  25.681   0.063  0.00  0.00    +0.031 C 
ATOM     17  C   UNL     1     -35.972  22.311   0.262  0.00  0.00    +0.001 C 
ATOM     18  C   UNL     1     -37.280  24.791  -0.887  0.00  0.00    +0.173 C 
ATOM     19  C   UNL     1     -39.464  24.051   0.035  0.00  0.00    +0.075 C 
ATOM     20  C   UNL     1     -39.546  22.184   1.798  0.00  0.00    +0.167 C 
ATOM     21  C   UNL     1     -40.234  22.911   0.658  0.00  0.00    +0.178 C 
ENDROOT
BRANCH   4  22
ATOM     22  O   UNL     1     -37.089  26.695   3.200  0.00  0.00    -0.383 OA
ATOM     23  H   UNL     1     -37.642  27.330   2.718  0.00  0.00    +0.211 HD
ENDBRANCH   4  22
BRANCH  20  24
ATOM     24  O   UNL     1     -40.296  21.037   2.159  0.00  0.00    -0.377 OA
ATOM     25  H   UNL     1     -41.063  21.307   2.690  0.00  0.00    +0.211 HD
ENDBRANCH  20  24
BRANCH   5  26
ATOM     26  C   UNL     1     -33.200  26.796   4.996  0.00  0.00    +0.027 C 
ATOM     27  C   UNL     1     -33.526  26.584   6.482  0.00  0.00    +0.002 C 
BRANCH  26  28
ATOM     28  C   UNL     1     -32.263  28.017   4.811  0.00  0.00    +0.111 C 
BRANCH  28  29
ATOM     29  O   UNL     1     -31.122  27.644   4.032  0.00  0.00    -0.384 OA
ATOM     30  H   UNL     1     -31.276  27.877   3.104  0.00  0.00    +0.210 HD
ENDBRANCH  28  29
BRANCH  28  31
ATOM     31  C   UNL     1     -31.724  28.632   6.114  0.00  0.00    +0.032 C 
BRANCH  31  32
ATOM     32  C   UNL     1     -30.412  29.399   5.935  0.00  0.00    +0.029 C 
BRANCH  32  33
ATOM     33  C   UNL     1     -29.155  28.705   6.503  0.00  0.00    +0.089 C 
ATOM     34  C   UNL     1     -28.638  29.393   7.767  0.00  0.00    +0.029 C 
ATOM     35  C   UNL     1     -28.040  28.579   5.463  0.00  0.00    +0.029 C 
BRANCH  33  36
ATOM     36  O   UNL     1     -29.561  27.377   6.865  0.00  0.00    -0.387 OA
ATOM     37  H   UNL     1     -30.091  27.411   7.677  0.00  0.00    +0.210 HD
ENDBRANCH  33  36
ENDBRANCH  32  33
ENDBRANCH  31  32
ENDBRANCH  28  31
ENDBRANCH  26  28
ENDBRANCH   5  26
TORSDOF 9
ENDMDL
MODEL 3
REMARK VINA RESULT:      -6.2      5.386      8.844
REMARK  Name = 5460083
REMARK  9 active torsions:
REMARK  status: ('A' for Active; 'I' for Inactive)
REMARK    1  A    between atoms: C_4  and  O_22
REMARK    2  A    between atoms: C_5  and  C_26
REMARK    3  A    between atoms: C_20  and  O_24
REMARK    4  A    between atoms: C_26  and  C_28
REMARK    5  A    between atoms: C_28  and  O_29
REMARK    6  A    between atoms: C_28  and  C_31
REMARK    7  A    between atoms: C_31  and  C_32
REMARK    8  A    between atoms: C_32  and  C_33
REMARK    9  A    between atoms: C_33  and  O_36
REMARK                            x       y       z     vdW  Elec       q    Type
REMARK                         _______ _______ _______ _____ _____    ______ ____
ROOT
ATOM      1  O   UNL     1     -35.271  22.271   4.708  0.00  0.00    -0.291 OA
ATOM      2  O   UNL     1     -32.832  26.650   6.500  0.00  0.00    -0.294 OA
ATOM      3  C   UNL     1     -38.599  25.823   1.309  0.00  0.00    +0.026 C 
ATOM      4  C   UNL     1     -38.487  25.334   2.777  0.00  0.00    +0.103 C 
ATOM      5  C   UNL     1     -40.105  26.187   1.240  0.00  0.00    +0.005 C 
ATOM      6  C   UNL     1     -35.989  25.916   2.793  0.00  0.00    +0.021 C 
ATOM      7  C   UNL     1     -37.659  27.025   1.118  0.00  0.00    +0.003 C 
ATOM      8  C   UNL     1     -34.530  25.332   2.938  0.00  0.00    +0.014 C 
ATOM      9  C   UNL     1     -37.082  24.882   3.109  0.00  0.00    -0.018 C 
ATOM     10  C   UNL     1     -39.695  24.392   2.899  0.00  0.00    +0.031 C 
ATOM     11  C   UNL     1     -40.793  25.058   2.043  0.00  0.00    +0.003 C 
ATOM     12  C   UNL     1     -36.203  26.642   1.430  0.00  0.00    +0.004 C 
ATOM     13  C   UNL     1     -34.428  24.470   4.227  0.00  0.00    +0.070 C 
ATOM     14  C   UNL     1     -38.251  24.717   0.274  0.00  0.00    +0.003 C 
ATOM     15  C   UNL     1     -33.459  26.455   3.026  0.00  0.00    +0.038 C 
ATOM     16  C   UNL     1     -36.838  23.711   3.720  0.00  0.00    +0.031 C 
ATOM     17  C   UNL     1     -34.145  24.438   1.726  0.00  0.00    +0.001 C 
ATOM     18  C   UNL     1     -35.487  23.384   4.230  0.00  0.00    +0.173 C 
ATOM     19  C   UNL     1     -34.535  25.279   5.523  0.00  0.00    +0.075 C 
ATOM     20  C   UNL     1     -33.547  27.306   4.291  0.00  0.00    +0.167 C 
ATOM     21  C   UNL     1     -33.543  26.419   5.521  0.00  0.00    +0.178 C 
ENDROOT
BRANCH   4  22
ATOM     22  O   UNL     1     -38.763  26.436   3.671  0.00  0.00    -0.383 OA
ATOM     23  H   UNL     1     -38.955  27.233   3.152  0.00  0.00    +0.211 HD
ENDBRANCH   4  22
BRANCH  20  24
ATOM     24  O   UNL     1     -32.456  28.208   4.345  0.00  0.00    -0.377 OA
ATOM     25  H   UNL     1     -32.777  29.088   4.600  0.00  0.00    +0.211 HD
ENDBRANCH  20  24
BRANCH   5  26
ATOM     26  C   UNL     1     -40.700  26.368  -0.150  0.00  0.00    +0.027 C 
ATOM     27  C   UNL     1     -40.271  27.730  -0.716  0.00  0.00    +0.002 C 
BRANCH  26  28
ATOM     28  C   UNL     1     -42.243  26.225  -0.182  0.00  0.00    +0.111 C 
BRANCH  28  29
ATOM     29  O   UNL     1     -42.677  25.898  -1.506  0.00  0.00    -0.384 OA
ATOM     30  H   UNL     1     -41.912  25.632  -2.039  0.00  0.00    +0.210 HD
ENDBRANCH  28  29
BRANCH  28  31
ATOM     31  C   UNL     1     -43.026  27.480   0.239  0.00  0.00    +0.032 C 
BRANCH  31  32
ATOM     32  C   UNL     1     -43.615  27.392   1.649  0.00  0.00    +0.029 C 
BRANCH  32  33
ATOM     33  C   UNL     1     -43.080  28.430   2.658  0.00  0.00    +0.089 C 
ATOM     34  C   UNL     1     -42.368  27.772   3.841  0.00  0.00    +0.029 C 
ATOM     35  C   UNL     1     -44.174  29.382   3.149  0.00  0.00    +0.029 C 
BRANCH  33  36
ATOM     36  O   UNL     1     -42.111  29.215   1.948  0.00  0.00    -0.387 OA
ATOM     37  H   UNL     1     -41.943  28.815   1.081  0.00  0.00    +0.210 HD
ENDBRANCH  33  36
ENDBRANCH  32  33
ENDBRANCH  31  32
ENDBRANCH  28  31
ENDBRANCH  26  28
ENDBRANCH   5  26
TORSDOF 9
ENDMDL
MODEL 4
REMARK VINA RESULT:      -6.2      1.724      2.525
REMARK  Name = 5460083
REMARK  9 active torsions:
REMARK  status: ('A' for Active; 'I' for Inactive)
REMARK    1  A    between atoms: C_4  and  O_22
REMARK    2  A    between atoms: C_5  and  C_26
REMARK    3  A    between atoms: C_20  and  O_24
REMARK    4  A    between atoms: C_26  and  C_28
REMARK    5  A    between atoms: C_28  and  O_29
REMARK    6  A    between atoms: C_28  and  C_31
REMARK    7  A    between atoms: C_31  and  C_32
REMARK    8  A    between atoms: C_32  and  C_33
REMARK    9  A    between atoms: C_33  and  O_36
REMARK                            x       y       z     vdW  Elec       q    Type
REMARK                         _______ _______ _______ _____ _____    ______ ____
ROOT
ATOM      1  O   UNL     1     -35.811  17.975  -2.789  0.00  0.00    -0.291 OA
ATOM      2  O   UNL     1     -32.182  15.666   0.346  0.00  0.00    -0.294 OA
ATOM      3  C   UNL     1     -36.656  21.945   1.544  0.00  0.00    +0.026 C 
ATOM      4  C   UNL     1     -37.041  20.491   1.162  0.00  0.00    +0.103 C 
ATOM      5  C   UNL     1     -37.835  22.319   2.481  0.00  0.00    +0.005 C 
ATOM      6  C   UNL     1     -34.580  19.953   0.681  0.00  0.00    +0.021 C 
ATOM      7  C   UNL     1     -35.287  21.923   2.244  0.00  0.00    +0.003 C 
ATOM      8  C   UNL     1     -33.549  19.517  -0.431  0.00  0.00    +0.014 C 
ATOM      9  C   UNL     1     -36.040  19.882   0.205  0.00  0.00    -0.018 C 
ATOM     10  C   UNL     1     -38.528  20.633   0.802  0.00  0.00    +0.031 C 
ATOM     11  C   UNL     1     -39.067  21.689   1.791  0.00  0.00    +0.003 C 
ATOM     12  C   UNL     1     -34.208  21.322   1.329  0.00  0.00    +0.004 C 
ATOM     13  C   UNL     1     -34.062  18.245  -1.162  0.00  0.00    +0.070 C 
ATOM     14  C   UNL     1     -36.602  22.899   0.319  0.00  0.00    +0.003 C 
ATOM     15  C   UNL     1     -32.149  19.196   0.165  0.00  0.00    +0.038 C 
ATOM     16  C   UNL     1     -36.423  19.248  -0.914  0.00  0.00    +0.031 C 
ATOM     17  C   UNL     1     -33.341  20.634  -1.491  0.00  0.00    +0.001 C 
ATOM     18  C   UNL     1     -35.453  18.474  -1.722  0.00  0.00    +0.173 C 
ATOM     19  C   UNL     1     -34.074  16.990  -0.285  0.00  0.00    +0.075 C 
ATOM     20  C   UNL     1     -32.122  17.967   1.069  0.00  0.00    +0.167 C 
ATOM     21  C   UNL     1     -32.722  16.773   0.351  0.00  0.00    +0.178 C 
ENDROOT
BRANCH   4  22
ATOM     22  O   UNL     1     -37.006  19.660   2.345  0.00  0.00    -0.383 OA
ATOM     23  H   UNL     1     -37.586  20.039   3.024  0.00  0.00    +0.211 HD
ENDBRANCH   4  22
BRANCH  20  24
ATOM     24  O   UNL     1     -30.789  17.677   1.453  0.00  0.00    -0.377 OA
ATOM     25  H   UNL     1     -30.740  16.767   1.788  0.00  0.00    +0.211 HD
ENDBRANCH  20  24
BRANCH   5  26
ATOM     26  C   UNL     1     -38.021  23.800   2.784  0.00  0.00    +0.027 C 
ATOM     27  C   UNL     1     -38.181  24.575   1.468  0.00  0.00    +0.002 C 
BRANCH  26  28
ATOM     28  C   UNL     1     -36.875  24.402   3.636  0.00  0.00    +0.111 C 
BRANCH  28  29
ATOM     29  O   UNL     1     -37.418  25.142   4.734  0.00  0.00    -0.384 OA
ATOM     30  H   UNL     1     -38.246  25.565   4.459  0.00  0.00    +0.210 HD
ENDBRANCH  28  29
BRANCH  28  31
ATOM     31  C   UNL     1     -35.932  25.357   2.885  0.00  0.00    +0.032 C 
BRANCH  31  32
ATOM     32  C   UNL     1     -34.519  25.414   3.471  0.00  0.00    +0.029 C 
BRANCH  32  33
ATOM     33  C   UNL     1     -34.246  26.591   4.431  0.00  0.00    +0.089 C 
ATOM     34  C   UNL     1     -33.079  27.460   3.961  0.00  0.00    +0.029 C 
ATOM     35  C   UNL     1     -34.027  26.127   5.873  0.00  0.00    +0.029 C 
BRANCH  33  36
ATOM     36  O   UNL     1     -35.429  27.404   4.414  0.00  0.00    -0.387 OA
ATOM     37  H   UNL     1     -35.560  27.803   5.288  0.00  0.00    +0.210 HD
ENDBRANCH  33  36
ENDBRANCH  32  33
ENDBRANCH  31  32
ENDBRANCH  28  31
ENDBRANCH  26  28
ENDBRANCH   5  26
TORSDOF 9
ENDMDL
MODEL 5
REMARK VINA RESULT:      -6.0      2.150      3.212
REMARK  Name = 5460083
REMARK  9 active torsions:
REMARK  status: ('A' for Active; 'I' for Inactive)
REMARK    1  A    between atoms: C_4  and  O_22
REMARK    2  A    between atoms: C_5  and  C_26
REMARK    3  A    between atoms: C_20  and  O_24
REMARK    4  A    between atoms: C_26  and  C_28
REMARK    5  A    between atoms: C_28  and  O_29
REMARK    6  A    between atoms: C_28  and  C_31
REMARK    7  A    between atoms: C_31  and  C_32
REMARK    8  A    between atoms: C_32  and  C_33
REMARK    9  A    between atoms: C_33  and  O_36
REMARK                            x       y       z     vdW  Elec       q    Type
REMARK                         _______ _______ _______ _____ _____    ______ ____
ROOT
ATOM      1  O   UNL     1     -33.092  17.699  -4.385  0.00  0.00    -0.291 OA
ATOM      2  O   UNL     1     -32.407  13.061  -1.866  0.00  0.00    -0.294 OA
ATOM      3  C   UNL     1     -34.374  20.088   0.896  0.00  0.00    +0.026 C 
ATOM      4  C   UNL     1     -35.025  19.224  -0.215  0.00  0.00    +0.103 C 
ATOM      5  C   UNL     1     -35.632  20.727   1.540  0.00  0.00    +0.005 C 
ATOM      6  C   UNL     1     -32.992  17.660  -0.207  0.00  0.00    +0.021 C 
ATOM      7  C   UNL     1     -33.591  19.163   1.844  0.00  0.00    +0.003 C 
ATOM      8  C   UNL     1     -31.795  17.097  -1.068  0.00  0.00    +0.014 C 
ATOM      9  C   UNL     1     -33.985  18.492  -1.035  0.00  0.00    -0.018 C 
ATOM     10  C   UNL     1     -36.018  20.208  -0.853  0.00  0.00    +0.031 C 
ATOM     11  C   UNL     1     -36.539  21.053   0.330  0.00  0.00    +0.003 C 
ATOM     12  C   UNL     1     -32.505  18.386   1.083  0.00  0.00    +0.004 C 
ATOM     13  C   UNL     1     -32.325  16.547  -2.420  0.00  0.00    +0.070 C 
ATOM     14  C   UNL     1     -33.426  21.183   0.334  0.00  0.00    +0.003 C 
ATOM     15  C   UNL     1     -31.046  15.945  -0.340  0.00  0.00    +0.038 C 
ATOM     16  C   UNL     1     -34.004  18.502  -2.377  0.00  0.00    +0.031 C 
ATOM     17  C   UNL     1     -30.740  18.197  -1.372  0.00  0.00    +0.001 C 
ATOM     18  C   UNL     1     -33.116  17.610  -3.158  0.00  0.00    +0.173 C 
ATOM     19  C   UNL     1     -33.185  15.286  -2.282  0.00  0.00    +0.075 C 
ATOM     20  C   UNL     1     -31.877  14.678  -0.156  0.00  0.00    +0.167 C 
ATOM     21  C   UNL     1     -32.456  14.231  -1.485  0.00  0.00    +0.178 C 
ENDROOT
BRANCH   4  22
ATOM     22  O   UNL     1     -35.837  18.194   0.393  0.00  0.00    -0.383 OA
ATOM     23  H   UNL     1     -35.505  17.322   0.127  0.00  0.00    +0.211 HD
ENDBRANCH   4  22
BRANCH  20  24
ATOM     24  O   UNL     1     -31.073  13.646   0.390  0.00  0.00    -0.377 OA
ATOM     25  H   UNL     1     -30.960  13.795   1.343  0.00  0.00    +0.211 HD
ENDBRANCH  20  24
BRANCH   5  26
ATOM     26  C   UNL     1     -35.399  21.931   2.444  0.00  0.00    +0.027 C 
ATOM     27  C   UNL     1     -35.515  21.497   3.913  0.00  0.00    +0.002 C 
BRANCH  26  28
ATOM     28  C   UNL     1     -36.353  23.115   2.148  0.00  0.00    +0.111 C 
BRANCH  28  29
ATOM     29  O   UNL     1     -35.644  24.157   1.471  0.00  0.00    -0.384 OA
ATOM     30  H   UNL     1     -35.865  24.137   0.527  0.00  0.00    +0.210 HD
ENDBRANCH  28  29
BRANCH  28  31
ATOM     31  C   UNL     1     -37.004  23.758   3.385  0.00  0.00    +0.032 C 
BRANCH  31  32
ATOM     32  C   UNL     1     -36.781  25.269   3.482  0.00  0.00    +0.029 C 
BRANCH  32  33
ATOM     33  C   UNL     1     -35.853  25.732   4.625  0.00  0.00    +0.089 C 
ATOM     34  C   UNL     1     -34.595  26.425   4.101  0.00  0.00    +0.029 C 
ATOM     35  C   UNL     1     -35.485  24.588   5.573  0.00  0.00    +0.029 C 
BRANCH  33  36
ATOM     36  O   UNL     1     -36.600  26.696   5.380  0.00  0.00    -0.387 OA
ATOM     37  H   UNL     1     -37.430  26.895   4.921  0.00  0.00    +0.210 HD
ENDBRANCH  33  36
ENDBRANCH  32  33
ENDBRANCH  31  32
ENDBRANCH  28  31
ENDBRANCH  26  28
ENDBRANCH   5  26
TORSDOF 9
ENDMDL
MODEL 6
REMARK VINA RESULT:      -5.9      7.607     11.452
REMARK  Name = 5460083
REMARK  9 active torsions:
REMARK  status: ('A' for Active; 'I' for Inactive)
REMARK    1  A    between atoms: C_4  and  O_22
REMARK    2  A    between atoms: C_5  and  C_26
REMARK    3  A    between atoms: C_20  and  O_24
REMARK    4  A    between atoms: C_26  and  C_28
REMARK    5  A    between atoms: C_28  and  O_29
REMARK    6  A    between atoms: C_28  and  C_31
REMARK    7  A    between atoms: C_31  and  C_32
REMARK    8  A    between atoms: C_32  and  C_33
REMARK    9  A    between atoms: C_33  and  O_36
REMARK                            x       y       z     vdW  Elec       q    Type
REMARK                         _______ _______ _______ _____ _____    ______ ____
ROOT
ATOM      1  O   UNL     1     -34.341  25.856   2.217  0.00  0.00    -0.291 OA
ATOM      2  O   UNL     1     -32.456  26.619   7.136  0.00  0.00    -0.294 OA
ATOM      3  C   UNL     1     -34.570  31.763   1.663  0.00  0.00    +0.026 C 
ATOM      4  C   UNL     1     -35.359  30.590   2.302  0.00  0.00    +0.103 C 
ATOM      5  C   UNL     1     -35.701  32.809   1.487  0.00  0.00    +0.005 C 
ATOM      6  C   UNL     1     -33.203  29.707   3.375  0.00  0.00    +0.021 C 
ATOM      7  C   UNL     1     -33.464  32.200   2.638  0.00  0.00    +0.003 C 
ATOM      8  C   UNL     1     -32.194  28.495   3.433  0.00  0.00    +0.014 C 
ATOM      9  C   UNL     1     -34.470  29.394   2.562  0.00  0.00    -0.018 C 
ATOM     10  C   UNL     1     -36.598  30.501   1.398  0.00  0.00    +0.031 C 
ATOM     11  C   UNL     1     -36.914  31.966   1.029  0.00  0.00    +0.003 C 
ATOM     12  C   UNL     1     -32.508  31.036   2.947  0.00  0.00    +0.004 C 
ATOM     13  C   UNL     1     -32.968  27.172   3.687  0.00  0.00    +0.070 C 
ATOM     14  C   UNL     1     -33.942  31.393   0.291  0.00  0.00    +0.003 C 
ATOM     15  C   UNL     1     -31.145  28.664   4.568  0.00  0.00    +0.038 C 
ATOM     16  C   UNL     1     -34.822  28.153   2.190  0.00  0.00    +0.031 C 
ATOM     17  C   UNL     1     -31.400  28.345   2.106  0.00  0.00    +0.001 C 
ATOM     18  C   UNL     1     -34.048  26.973   2.641  0.00  0.00    +0.173 C 
ATOM     19  C   UNL     1     -33.595  27.079   5.081  0.00  0.00    +0.075 C 
ATOM     20  C   UNL     1     -31.733  28.606   5.976  0.00  0.00    +0.167 C 
ATOM     21  C   UNL     1     -32.561  27.346   6.149  0.00  0.00    +0.178 C 
ENDROOT
BRANCH   4  22
ATOM     22  O   UNL     1     -35.854  30.996   3.599  0.00  0.00    -0.383 OA
ATOM     23  H   UNL     1     -35.759  30.261   4.226  0.00  0.00    +0.211 HD
ENDBRANCH   4  22
BRANCH  20  24
ATOM     24  O   UNL     1     -30.692  28.633   6.937  0.00  0.00    -0.377 OA
ATOM     25  H   UNL     1     -30.523  27.732   7.256  0.00  0.00    +0.211 HD
ENDBRANCH  20  24
BRANCH   5  26
ATOM     26  C   UNL     1     -35.409  33.978   0.554  0.00  0.00    +0.027 C 
ATOM     27  C   UNL     1     -34.864  35.159   1.370  0.00  0.00    +0.002 C 
BRANCH  26  28
ATOM     28  C   UNL     1     -36.635  34.414  -0.287  0.00  0.00    +0.111 C 
BRANCH  28  29
ATOM     29  O   UNL     1     -36.213  34.828  -1.590  0.00  0.00    -0.384 OA
ATOM     30  H   UNL     1     -36.971  34.812  -2.194  0.00  0.00    +0.210 HD
ENDBRANCH  28  29
BRANCH  28  31
ATOM     31  C   UNL     1     -37.453  35.577   0.301  0.00  0.00    +0.032 C 
BRANCH  31  32
ATOM     32  C   UNL     1     -38.967  35.384   0.187  0.00  0.00    +0.029 C 
BRANCH  32  33
ATOM     33  C   UNL     1     -39.694  35.049   1.506  0.00  0.00    +0.089 C 
ATOM     34  C   UNL     1     -41.049  35.751   1.613  0.00  0.00    +0.029 C 
ATOM     35  C   UNL     1     -38.834  35.348   2.737  0.00  0.00    +0.029 C 
BRANCH  33  36
ATOM     36  O   UNL     1     -39.937  33.635   1.482  0.00  0.00    -0.387 OA
ATOM     37  H   UNL     1     -39.093  33.161   1.546  0.00  0.00    +0.210 HD
ENDBRANCH  33  36
ENDBRANCH  32  33
ENDBRANCH  31  32
ENDBRANCH  28  31
ENDBRANCH  26  28
ENDBRANCH   5  26
TORSDOF 9
ENDMDL
MODEL 7
REMARK VINA RESULT:      -5.9      1.667      2.063
REMARK  Name = 5460083
REMARK  9 active torsions:
REMARK  status: ('A' for Active; 'I' for Inactive)
REMARK    1  A    between atoms: C_4  and  O_22
REMARK    2  A    between atoms: C_5  and  C_26
REMARK    3  A    between atoms: C_20  and  O_24
REMARK    4  A    between atoms: C_26  and  C_28
REMARK    5  A    between atoms: C_28  and  O_29
REMARK    6  A    between atoms: C_28  and  C_31
REMARK    7  A    between atoms: C_31  and  C_32
REMARK    8  A    between atoms: C_32  and  C_33
REMARK    9  A    between atoms: C_33  and  O_36
REMARK                            x       y       z     vdW  Elec       q    Type
REMARK                         _______ _______ _______ _____ _____    ______ ____
ROOT
ATOM      1  O   UNL     1     -37.084  20.351  -3.233  0.00  0.00    -0.291 OA
ATOM      2  O   UNL     1     -37.400  15.338  -1.471  0.00  0.00    -0.294 OA
ATOM      3  C   UNL     1     -35.862  21.966   2.347  0.00  0.00    +0.026 C 
ATOM      4  C   UNL     1     -37.067  21.576   1.452  0.00  0.00    +0.103 C 
ATOM      5  C   UNL     1     -36.570  22.829   3.424  0.00  0.00    +0.005 C 
ATOM      6  C   UNL     1     -35.812  19.486   0.653  0.00  0.00    +0.021 C 
ATOM      7  C   UNL     1     -35.223  20.681   2.900  0.00  0.00    +0.003 C 
ATOM      8  C   UNL     1     -35.193  18.755  -0.601  0.00  0.00    +0.014 C 
ATOM      9  C   UNL     1     -36.637  20.728   0.275  0.00  0.00    -0.018 C 
ATOM     10  C   UNL     1     -37.784  22.922   1.266  0.00  0.00    +0.031 C 
ATOM     11  C   UNL     1     -37.608  23.644   2.618  0.00  0.00    +0.003 C 
ATOM     12  C   UNL     1     -34.750  19.765   1.760  0.00  0.00    +0.004 C 
ATOM     13  C   UNL     1     -36.248  18.665  -1.738  0.00  0.00    +0.070 C 
ATOM     14  C   UNL     1     -34.791  22.799   1.591  0.00  0.00    +0.003 C 
ATOM     15  C   UNL     1     -34.727  17.311  -0.262  0.00  0.00    +0.038 C 
ATOM     16  C   UNL     1     -37.035  20.998  -0.978  0.00  0.00    +0.031 C 
ATOM     17  C   UNL     1     -33.951  19.510  -1.151  0.00  0.00    +0.001 C 
ATOM     18  C   UNL     1     -36.786  20.041  -2.080  0.00  0.00    +0.173 C 
ATOM     19  C   UNL     1     -37.421  17.731  -1.422  0.00  0.00    +0.075 C 
ATOM     20  C   UNL     1     -35.864  16.353   0.087  0.00  0.00    +0.167 C 
ATOM     21  C   UNL     1     -36.919  16.370  -1.003  0.00  0.00    +0.178 C 
ENDROOT
BRANCH   4  22
ATOM     22  O   UNL     1     -37.981  20.752   2.212  0.00  0.00    -0.383 OA
ATOM     23  H   UNL     1     -37.497  20.004   2.598  0.00  0.00    +0.211 HD
ENDBRANCH   4  22
BRANCH  20  24
ATOM     24  O   UNL     1     -35.359  15.039   0.248  0.00  0.00    -0.377 OA
ATOM     25  H   UNL     1     -35.555  14.518  -0.548  0.00  0.00    +0.211 HD
ENDBRANCH  20  24
BRANCH   5  26
ATOM     26  C   UNL     1     -35.676  23.705   4.292  0.00  0.00    +0.027 C 
ATOM     27  C   UNL     1     -35.056  22.854   5.410  0.00  0.00    +0.002 C 
BRANCH  26  28
ATOM     28  C   UNL     1     -36.410  24.935   4.885  0.00  0.00    +0.111 C 
BRANCH  28  29
ATOM     29  O   UNL     1     -37.773  24.947   4.453  0.00  0.00    -0.384 OA
ATOM     30  H   UNL     1     -38.247  24.203   4.857  0.00  0.00    +0.210 HD
ENDBRANCH  28  29
BRANCH  28  31
ATOM     31  C   UNL     1     -35.815  26.301   4.502  0.00  0.00    +0.032 C 
BRANCH  31  32
ATOM     32  C   UNL     1     -35.181  26.327   3.109  0.00  0.00    +0.029 C 
BRANCH  32  33
ATOM     33  C   UNL     1     -35.983  27.083   2.029  0.00  0.00    +0.089 C 
ATOM     34  C   UNL     1     -35.980  26.348   0.687  0.00  0.00    +0.029 C 
ATOM     35  C   UNL     1     -35.506  28.526   1.854  0.00  0.00    +0.029 C 
BRANCH  33  36
ATOM     36  O   UNL     1     -37.339  27.129   2.497  0.00  0.00    -0.387 OA
ATOM     37  H   UNL     1     -37.411  26.636   3.329  0.00  0.00    +0.210 HD
ENDBRANCH  33  36
ENDBRANCH  32  33
ENDBRANCH  31  32
ENDBRANCH  28  31
ENDBRANCH  26  28
ENDBRANCH   5  26
TORSDOF 9
ENDMDL
MODEL 8
REMARK VINA RESULT:      -5.9      2.854     10.359
REMARK  Name = 5460083
REMARK  9 active torsions:
REMARK  status: ('A' for Active; 'I' for Inactive)
REMARK    1  A    between atoms: C_4  and  O_22
REMARK    2  A    between atoms: C_5  and  C_26
REMARK    3  A    between atoms: C_20  and  O_24
REMARK    4  A    between atoms: C_26  and  C_28
REMARK    5  A    between atoms: C_28  and  O_29
REMARK    6  A    between atoms: C_28  and  C_31
REMARK    7  A    between atoms: C_31  and  C_32
REMARK    8  A    between atoms: C_32  and  C_33
REMARK    9  A    between atoms: C_33  and  O_36
REMARK                            x       y       z     vdW  Elec       q    Type
REMARK                         _______ _______ _______ _____ _____    ______ ____
ROOT
ATOM      1  O   UNL     1     -31.926  30.538   0.547  0.00  0.00    -0.291 OA
ATOM      2  O   UNL     1     -27.624  30.409   3.678  0.00  0.00    -0.294 OA
ATOM      3  C   UNL     1     -34.084  26.035   3.758  0.00  0.00    +0.026 C 
ATOM      4  C   UNL     1     -33.069  26.312   2.618  0.00  0.00    +0.103 C 
ATOM      5  C   UNL     1     -34.436  24.551   3.476  0.00  0.00    +0.005 C 
ATOM      6  C   UNL     1     -32.007  28.191   4.004  0.00  0.00    +0.021 C 
ATOM      7  C   UNL     1     -33.383  26.263   5.108  0.00  0.00    +0.003 C 
ATOM      8  C   UNL     1     -31.711  29.740   4.064  0.00  0.00    +0.014 C 
ATOM      9  C   UNL     1     -32.573  27.741   2.647  0.00  0.00    -0.018 C 
ATOM     10  C   UNL     1     -33.788  25.726   1.393  0.00  0.00    +0.031 C 
ATOM     11  C   UNL     1     -34.519  24.479   1.934  0.00  0.00    +0.003 C 
ATOM     12  C   UNL     1     -32.855  27.703   5.218  0.00  0.00    +0.004 C 
ATOM     13  C   UNL     1     -31.023  30.200   2.749  0.00  0.00    +0.070 C 
ATOM     14  C   UNL     1     -35.352  26.928   3.670  0.00  0.00    +0.003 C 
ATOM     15  C   UNL     1     -30.776  30.109   5.250  0.00  0.00    +0.038 C 
ATOM     16  C   UNL     1     -32.547  28.506   1.545  0.00  0.00    +0.031 C 
ATOM     17  C   UNL     1     -33.014  30.567   4.245  0.00  0.00    +0.001 C 
ATOM     18  C   UNL     1     -31.862  29.819   1.544  0.00  0.00    +0.173 C 
ATOM     19  C   UNL     1     -29.604  29.652   2.568  0.00  0.00    +0.075 C 
ATOM     20  C   UNL     1     -29.358  29.558   5.123  0.00  0.00    +0.167 C 
ATOM     21  C   UNL     1     -28.760  29.948   3.784  0.00  0.00    +0.178 C 
ENDROOT
BRANCH   4  22
ATOM     22  O   UNL     1     -31.896  25.489   2.811  0.00  0.00    -0.383 OA
ATOM     23  H   UNL     1     -31.200  26.013   3.237  0.00  0.00    +0.211 HD
ENDBRANCH   4  22
BRANCH  20  24
ATOM     24  O   UNL     1     -28.548  30.055   6.174  0.00  0.00    -0.377 OA
ATOM     25  H   UNL     1     -27.660  30.248   5.834  0.00  0.00    +0.211 HD
ENDBRANCH  20  24
BRANCH   5  26
ATOM     26  C   UNL     1     -35.682  24.003   4.161  0.00  0.00    +0.027 C 
ATOM     27  C   UNL     1     -35.335  22.692   4.882  0.00  0.00    +0.002 C 
BRANCH  26  28
ATOM     28  C   UNL     1     -36.873  23.795   3.193  0.00  0.00    +0.111 C 
BRANCH  28  29
ATOM     29  O   UNL     1     -38.019  24.510   3.665  0.00  0.00    -0.384 OA
ATOM     30  H   UNL     1     -37.732  25.330   4.096  0.00  0.00    +0.210 HD
ENDBRANCH  28  29
BRANCH  28  31
ATOM     31  C   UNL     1     -37.315  22.334   3.002  0.00  0.00    +0.032 C 
BRANCH  31  32
ATOM     32  C   UNL     1     -36.950  21.755   1.633  0.00  0.00    +0.029 C 
BRANCH  32  33
ATOM     33  C   UNL     1     -36.293  20.358   1.657  0.00  0.00    +0.089 C 
ATOM     34  C   UNL     1     -34.779  20.436   1.856  0.00  0.00    +0.029 C 
ATOM     35  C   UNL     1     -36.632  19.535   0.412  0.00  0.00    +0.029 C 
BRANCH  33  36
ATOM     36  O   UNL     1     -36.846  19.675   2.791  0.00  0.00    -0.387 OA
ATOM     37  H   UNL     1     -37.787  19.897   2.875  0.00  0.00    +0.210 HD
ENDBRANCH  33  36
ENDBRANCH  32  33
ENDBRANCH  31  32
ENDBRANCH  28  31
ENDBRANCH  26  28
ENDBRANCH   5  26
TORSDOF 9
ENDMDL
MODEL 9
REMARK VINA RESULT:      -5.9      2.979      9.623
REMARK  Name = 5460083
REMARK  9 active torsions:
REMARK  status: ('A' for Active; 'I' for Inactive)
REMARK    1  A    between atoms: C_4  and  O_22
REMARK    2  A    between atoms: C_5  and  C_26
REMARK    3  A    between atoms: C_20  and  O_24
REMARK    4  A    between atoms: C_26  and  C_28
REMARK    5  A    between atoms: C_28  and  O_29
REMARK    6  A    between atoms: C_28  and  C_31
REMARK    7  A    between atoms: C_31  and  C_32
REMARK    8  A    between atoms: C_32  and  C_33
REMARK    9  A    between atoms: C_33  and  O_36
REMARK                            x       y       z     vdW  Elec       q    Type
REMARK                         _______ _______ _______ _____ _____    ______ ____
ROOT
ATOM      1  O   UNL     1     -32.170  29.703   2.932  0.00  0.00    -0.291 OA
ATOM      2  O   UNL     1     -36.576  32.257   1.385  0.00  0.00    -0.294 OA
ATOM      3  C   UNL     1     -35.556  24.901   3.780  0.00  0.00    +0.026 C 
ATOM      4  C   UNL     1     -35.192  26.244   4.466  0.00  0.00    +0.103 C 
ATOM      5  C   UNL     1     -35.979  24.055   5.009  0.00  0.00    +0.005 C 
ATOM      6  C   UNL     1     -35.662  27.502   2.281  0.00  0.00    +0.021 C 
ATOM      7  C   UNL     1     -36.695  25.154   2.777  0.00  0.00    +0.003 C 
ATOM      8  C   UNL     1     -35.030  28.402   1.150  0.00  0.00    +0.014 C 
ATOM      9  C   UNL     1     -34.709  27.270   3.465  0.00  0.00    -0.018 C 
ATOM     10  C   UNL     1     -34.318  25.782   5.643  0.00  0.00    +0.031 C 
ATOM     11  C   UNL     1     -34.955  24.452   6.098  0.00  0.00    +0.003 C 
ATOM     12  C   UNL     1     -36.277  26.185   1.716  0.00  0.00    +0.004 C 
ATOM     13  C   UNL     1     -34.279  29.605   1.785  0.00  0.00    +0.070 C 
ATOM     14  C   UNL     1     -34.351  24.248   3.049  0.00  0.00    +0.003 C 
ATOM     15  C   UNL     1     -36.109  28.965   0.182  0.00  0.00    +0.038 C 
ATOM     16  C   UNL     1     -33.586  27.979   3.660  0.00  0.00    +0.031 C 
ATOM     17  C   UNL     1     -34.019  27.605   0.280  0.00  0.00    +0.001 C 
ATOM     18  C   UNL     1     -33.246  29.124   2.785  0.00  0.00    +0.173 C 
ATOM     19  C   UNL     1     -35.202  30.621   2.465  0.00  0.00    +0.075 C 
ATOM     20  C   UNL     1     -37.068  29.962   0.827  0.00  0.00    +0.167 C 
ATOM     21  C   UNL     1     -36.292  31.066   1.519  0.00  0.00    +0.178 C 
ENDROOT
BRANCH   4  22
ATOM     22  O   UNL     1     -36.379  26.813   5.065  0.00  0.00    -0.383 OA
ATOM     23  H   UNL     1     -37.056  26.124   5.159  0.00  0.00    +0.211 HD
ENDBRANCH   4  22
BRANCH  20  24
ATOM     24  O   UNL     1     -37.923  30.518  -0.156  0.00  0.00    -0.377 OA
ATOM     25  H   UNL     1     -38.757  30.793   0.259  0.00  0.00    +0.211 HD
ENDBRANCH  20  24
BRANCH   5  26
ATOM     26  C   UNL     1     -36.065  22.548   4.802  0.00  0.00    +0.027 C 
ATOM     27  C   UNL     1     -34.899  21.864   5.531  0.00  0.00    +0.002 C 
BRANCH  26  28
ATOM     28  C   UNL     1     -36.093  22.134   3.309  0.00  0.00    +0.111 C 
BRANCH  28  29
ATOM     29  O   UNL     1     -37.444  21.939   2.880  0.00  0.00    -0.384 OA
ATOM     30  H   UNL     1     -37.937  22.768   2.981  0.00  0.00    +0.210 HD
ENDBRANCH  28  29
BRANCH  28  31
ATOM     31  C   UNL     1     -35.334  20.838   2.974  0.00  0.00    +0.032 C 
BRANCH  31  32
ATOM     32  C   UNL     1     -34.938  20.721   1.500  0.00  0.00    +0.029 C 
BRANCH  32  33
ATOM     33  C   UNL     1     -35.822  19.787   0.647  0.00  0.00    +0.089 C 
ATOM     34  C   UNL     1     -35.022  18.636   0.034  0.00  0.00    +0.029 C 
ATOM     35  C   UNL     1     -36.593  20.545  -0.436  0.00  0.00    +0.029 C 
BRANCH  33  36
ATOM     36  O   UNL     1     -36.785  19.217   1.546  0.00  0.00    -0.387 OA
ATOM     37  H   UNL     1     -37.166  19.918   2.098  0.00  0.00    +0.210 HD
ENDBRANCH  33  36
ENDBRANCH  32  33
ENDBRANCH  31  32
ENDBRANCH  28  31
ENDBRANCH  26  28
ENDBRANCH   5  26
TORSDOF 9
ENDMDL
