MODEL 1
REMARK VINA RESULT:      -5.8      0.000      0.000
REMARK  Name = 20041
REMARK  6 active torsions:
REMARK  status: ('A' for Active; 'I' for Inactive)
REMARK    1  A    between atoms: C_1  and  C_15
REMARK    2  A    between atoms: C_2  and  O_13
REMARK    3  A    between atoms: C_4  and  N_9
REMARK    4  A    between atoms: C_5  and  N_12
REMARK    5  A    between atoms: C_15  and  C_17
REMARK    6  A    between atoms: C_17  and  C_18
REMARK                            x       y       z     vdW  Elec       q    Type
REMARK                         _______ _______ _______ _____ _____    ______ ____
ROOT
ATOM      1  C   UNL     1     -36.179  22.547   3.779  0.00  0.00    +0.015 C 
ATOM      2  C   UNL     1     -37.356  22.997   3.209  0.00  0.00    +0.152 C 
ATOM      3  C   UNL     1     -35.464  21.494   3.238  0.00  0.00    +0.023 C 
ATOM      4  C   UNL     1     -37.834  22.373   2.059  0.00  0.00    +0.178 C 
ATOM      5  C   UNL     1     -35.944  20.871   2.085  0.00  0.00    +0.144 C 
ATOM      6  C   UNL     1     -37.129  21.310   1.496  0.00  0.00    +0.051 C 
ENDROOT
BRANCH   4   9
ATOM      7  O   UNL     1     -40.118  22.672   2.070  0.00  0.00    -0.126 OA
ATOM      8  O   UNL     1     -38.984  23.306   0.295  0.00  0.00    -0.126 OA
ATOM      9  N   UNL     1     -39.042  22.806   1.443  0.00  0.00    +0.061 N 
ENDBRANCH   4   9
BRANCH   5  12
ATOM     10  O   UNL     1     -34.077  19.528   1.950  0.00  0.00    -0.126 OA
ATOM     11  O   UNL     1     -35.760  19.129   0.592  0.00  0.00    -0.126 OA
ATOM     12  N   UNL     1     -35.224  19.788   1.514  0.00  0.00    +0.058 N 
ENDBRANCH   5  12
BRANCH   2  13
ATOM     13  O   UNL     1     -38.041  24.039   3.766  0.00  0.00    -0.504 OA
ATOM     14  H   UNL     1     -38.679  24.503   3.261  0.00  0.00    +0.292 HD
ENDBRANCH   2  13
BRANCH   1  15
ATOM     15  C   UNL     1     -35.641  23.213   5.033  0.00  0.00    +0.025 C 
ATOM     16  C   UNL     1     -35.303  22.162   6.098  0.00  0.00    +0.005 C 
BRANCH  15  17
ATOM     17  C   UNL     1     -34.412  24.108   4.770  0.00  0.00    +0.004 C 
BRANCH  17  18
ATOM     18  C   UNL     1     -34.461  25.434   5.538  0.00  0.00    +0.000 C 
ATOM     19  C   UNL     1     -35.880  25.975   5.618  0.00  0.00    +0.000 C 
ENDBRANCH  17  18
ENDBRANCH  15  17
ENDBRANCH   1  15
TORSDOF 6
ENDMDL
MODEL 2
REMARK VINA RESULT:      -5.7      2.244      4.381
REMARK  Name = 20041
REMARK  6 active torsions:
REMARK  status: ('A' for Active; 'I' for Inactive)
REMARK    1  A    between atoms: C_1  and  C_15
REMARK    2  A    between atoms: C_2  and  O_13
REMARK    3  A    between atoms: C_4  and  N_9
REMARK    4  A    between atoms: C_5  and  N_12
REMARK    5  A    between atoms: C_15  and  C_17
REMARK    6  A    between atoms: C_17  and  C_18
REMARK                            x       y       z     vdW  Elec       q    Type
REMARK                         _______ _______ _______ _____ _____    ______ ____
ROOT
ATOM      1  C   UNL     1     -36.842  23.592   3.330  0.00  0.00    +0.015 C 
ATOM      2  C   UNL     1     -37.448  22.461   2.816  0.00  0.00    +0.152 C 
ATOM      3  C   UNL     1     -37.437  24.839   3.247  0.00  0.00    +0.023 C 
ATOM      4  C   UNL     1     -38.691  22.580   2.196  0.00  0.00    +0.178 C 
ATOM      5  C   UNL     1     -38.681  24.956   2.627  0.00  0.00    +0.144 C 
ATOM      6  C   UNL     1     -39.308  23.827   2.102  0.00  0.00    +0.051 C 
ENDROOT
BRANCH   4   9
ATOM      7  O   UNL     1     -40.444  21.087   2.143  0.00  0.00    -0.126 OA
ATOM      8  O   UNL     1     -38.800  20.828   0.705  0.00  0.00    -0.126 OA
ATOM      9  N   UNL     1     -39.346  21.439   1.653  0.00  0.00    +0.061 N 
ENDBRANCH   4   9
BRANCH   5  12
ATOM     10  O   UNL     1     -38.893  27.042   1.673  0.00  0.00    -0.126 OA
ATOM     11  O   UNL     1     -40.255  26.491   3.310  0.00  0.00    -0.126 OA
ATOM     12  N   UNL     1     -39.308  26.226   2.532  0.00  0.00    +0.058 N 
ENDBRANCH   5  12
BRANCH   2  13
ATOM     13  O   UNL     1     -36.837  21.244   2.911  0.00  0.00    -0.504 OA
ATOM     14  H   UNL     1     -36.296  21.048   3.650  0.00  0.00    +0.292 HD
ENDBRANCH   2  13
BRANCH   1  15
ATOM     15  C   UNL     1     -35.488  23.485   4.009  0.00  0.00    +0.025 C 
ATOM     16  C   UNL     1     -34.476  24.425   3.342  0.00  0.00    +0.005 C 
BRANCH  15  17
ATOM     17  C   UNL     1     -35.542  23.761   5.527  0.00  0.00    +0.004 C 
BRANCH  17  18
ATOM     18  C   UNL     1     -35.641  22.482   6.364  0.00  0.00    +0.000 C 
ATOM     19  C   UNL     1     -34.901  21.328   5.705  0.00  0.00    +0.000 C 
ENDBRANCH  17  18
ENDBRANCH  15  17
ENDBRANCH   1  15
TORSDOF 6
ENDMDL
MODEL 3
REMARK VINA RESULT:      -5.6      1.886      2.424
REMARK  Name = 20041
REMARK  6 active torsions:
REMARK  status: ('A' for Active; 'I' for Inactive)
REMARK    1  A    between atoms: C_1  and  C_15
REMARK    2  A    between atoms: C_2  and  O_13
REMARK    3  A    between atoms: C_4  and  N_9
REMARK    4  A    between atoms: C_5  and  N_12
REMARK    5  A    between atoms: C_15  and  C_17
REMARK    6  A    between atoms: C_17  and  C_18
REMARK                            x       y       z     vdW  Elec       q    Type
REMARK                         _______ _______ _______ _____ _____    ______ ____
ROOT
ATOM      1  C   UNL     1     -36.481  23.786   4.208  0.00  0.00    +0.015 C 
ATOM      2  C   UNL     1     -37.380  24.802   3.941  0.00  0.00    +0.152 C 
ATOM      3  C   UNL     1     -36.519  22.582   3.529  0.00  0.00    +0.023 C 
ATOM      4  C   UNL     1     -38.351  24.607   2.961  0.00  0.00    +0.178 C 
ATOM      5  C   UNL     1     -37.491  22.388   2.547  0.00  0.00    +0.144 C 
ATOM      6  C   UNL     1     -38.407  23.401   2.263  0.00  0.00    +0.051 C 
ENDROOT
BRANCH   4   9
ATOM      7  O   UNL     1     -40.516  25.374   2.783  0.00  0.00    -0.126 OA
ATOM      8  O   UNL     1     -38.871  26.743   2.273  0.00  0.00    -0.126 OA
ATOM      9  N   UNL     1     -39.295  25.627   2.657  0.00  0.00    +0.061 N 
ENDBRANCH   4   9
BRANCH   5  12
ATOM     10  O   UNL     1     -38.443  21.000   0.975  0.00  0.00    -0.126 OA
ATOM     11  O   UNL     1     -36.699  20.274   2.100  0.00  0.00    -0.126 OA
ATOM     12  N   UNL     1     -37.547  21.159   1.838  0.00  0.00    +0.058 N 
ENDBRANCH   5  12
BRANCH   2  13
ATOM     13  O   UNL     1     -37.320  25.980   4.629  0.00  0.00    -0.504 OA
ATOM     14  H   UNL     1     -36.870  26.714   4.260  0.00  0.00    +0.292 HD
ENDBRANCH   2  13
BRANCH   1  15
ATOM     15  C   UNL     1     -35.416  23.978   5.273  0.00  0.00    +0.025 C 
ATOM     16  C   UNL     1     -35.200  22.678   6.059  0.00  0.00    +0.005 C 
BRANCH  15  17
ATOM     17  C   UNL     1     -34.070  24.480   4.708  0.00  0.00    +0.004 C 
BRANCH  17  18
ATOM     18  C   UNL     1     -33.902  25.999   4.826  0.00  0.00    +0.000 C 
ATOM     19  C   UNL     1     -33.648  26.419   6.266  0.00  0.00    +0.000 C 
ENDBRANCH  17  18
ENDBRANCH  15  17
ENDBRANCH   1  15
TORSDOF 6
ENDMDL
MODEL 4
REMARK VINA RESULT:      -5.4      3.925      5.715
REMARK  Name = 20041
REMARK  6 active torsions:
REMARK  status: ('A' for Active; 'I' for Inactive)
REMARK    1  A    between atoms: C_1  and  C_15
REMARK    2  A    between atoms: C_2  and  O_13
REMARK    3  A    between atoms: C_4  and  N_9
REMARK    4  A    between atoms: C_5  and  N_12
REMARK    5  A    between atoms: C_15  and  C_17
REMARK    6  A    between atoms: C_17  and  C_18
REMARK                            x       y       z     vdW  Elec       q    Type
REMARK                         _______ _______ _______ _____ _____    ______ ____
ROOT
ATOM      1  C   UNL     1     -36.653  25.340   3.838  0.00  0.00    +0.015 C 
ATOM      2  C   UNL     1     -35.634  26.199   4.204  0.00  0.00    +0.152 C 
ATOM      3  C   UNL     1     -36.667  24.015   4.236  0.00  0.00    +0.023 C 
ATOM      4  C   UNL     1     -34.593  25.718   4.997  0.00  0.00    +0.178 C 
ATOM      5  C   UNL     1     -35.625  23.535   5.030  0.00  0.00    +0.144 C 
ATOM      6  C   UNL     1     -34.588  24.387   5.410  0.00  0.00    +0.051 C 
ENDROOT
BRANCH   4   9
ATOM      7  O   UNL     1     -32.752  27.015   4.515  0.00  0.00    -0.126 OA
ATOM      8  O   UNL     1     -33.400  26.847   6.611  0.00  0.00    -0.126 OA
ATOM      9  N   UNL     1     -33.526  26.571   5.395  0.00  0.00    +0.061 N 
ENDBRANCH   4   9
BRANCH   5  12
ATOM     10  O   UNL     1     -35.985  21.907   6.619  0.00  0.00    -0.126 OA
ATOM     11  O   UNL     1     -35.252  21.298   4.637  0.00  0.00    -0.126 OA
ATOM     12  N   UNL     1     -35.621  22.178   5.449  0.00  0.00    +0.058 N 
ENDBRANCH   5  12
BRANCH   2  13
ATOM     13  O   UNL     1     -35.646  27.502   3.795  0.00  0.00    -0.504 OA
ATOM     14  H   UNL     1     -36.366  28.057   4.020  0.00  0.00    +0.292 HD
ENDBRANCH   2  13
BRANCH   1  15
ATOM     15  C   UNL     1     -37.796  25.843   2.974  0.00  0.00    +0.025 C 
ATOM     16  C   UNL     1     -37.417  25.780   1.489  0.00  0.00    +0.005 C 
BRANCH  15  17
ATOM     17  C   UNL     1     -39.120  25.086   3.211  0.00  0.00    +0.004 C 
BRANCH  17  18
ATOM     18  C   UNL     1     -40.358  25.952   2.955  0.00  0.00    +0.000 C 
ATOM     19  C   UNL     1     -41.195  25.400   1.811  0.00  0.00    +0.000 C 
ENDBRANCH  17  18
ENDBRANCH  15  17
ENDBRANCH   1  15
TORSDOF 6
ENDMDL
MODEL 5
REMARK VINA RESULT:      -5.3      3.865      5.698
REMARK  Name = 20041
REMARK  6 active torsions:
REMARK  status: ('A' for Active; 'I' for Inactive)
REMARK    1  A    between atoms: C_1  and  C_15
REMARK    2  A    between atoms: C_2  and  O_13
REMARK    3  A    between atoms: C_4  and  N_9
REMARK    4  A    between atoms: C_5  and  N_12
REMARK    5  A    between atoms: C_15  and  C_17
REMARK    6  A    between atoms: C_17  and  C_18
REMARK                            x       y       z     vdW  Elec       q    Type
REMARK                         _______ _______ _______ _____ _____    ______ ____
ROOT
ATOM      1  C   UNL     1     -36.503  24.864   3.295  0.00  0.00    +0.015 C 
ATOM      2  C   UNL     1     -36.497  23.613   3.882  0.00  0.00    +0.152 C 
ATOM      3  C   UNL     1     -35.636  25.863   3.700  0.00  0.00    +0.023 C 
ATOM      4  C   UNL     1     -35.593  23.350   4.910  0.00  0.00    +0.178 C 
ATOM      5  C   UNL     1     -34.731  25.599   4.728  0.00  0.00    +0.144 C 
ATOM      6  C   UNL     1     -34.710  24.343   5.333  0.00  0.00    +0.051 C 
ENDROOT
BRANCH   4   9
ATOM      7  O   UNL     1     -35.120  21.097   4.890  0.00  0.00    -0.126 OA
ATOM      8  O   UNL     1     -35.964  21.977   6.721  0.00  0.00    -0.126 OA
ATOM      9  N   UNL     1     -35.557  22.075   5.540  0.00  0.00    +0.061 N 
ENDBRANCH   4   9
BRANCH   5  12
ATOM     10  O   UNL     1     -33.715  27.650   4.466  0.00  0.00    -0.126 OA
ATOM     11  O   UNL     1     -33.185  26.430   6.217  0.00  0.00    -0.126 OA
ATOM     12  N   UNL     1     -33.832  26.610   5.159  0.00  0.00    +0.058 N 
ENDBRANCH   5  12
BRANCH   2  13
ATOM     13  O   UNL     1     -37.366  22.647   3.462  0.00  0.00    -0.504 OA
ATOM     14  H   UNL     1     -37.511  21.886   3.989  0.00  0.00    +0.292 HD
ENDBRANCH   2  13
BRANCH   1  15
ATOM     15  C   UNL     1     -37.480  25.172   2.174  0.00  0.00    +0.025 C 
ATOM     16  C   UNL     1     -38.711  25.906   2.719  0.00  0.00    +0.005 C 
BRANCH  15  17
ATOM     17  C   UNL     1     -36.852  25.983   1.021  0.00  0.00    +0.004 C 
BRANCH  17  18
ATOM     18  C   UNL     1     -37.487  27.367   0.848  0.00  0.00    +0.000 C 
ATOM     19  C   UNL     1     -36.479  28.476   1.112  0.00  0.00    +0.000 C 
ENDBRANCH  17  18
ENDBRANCH  15  17
ENDBRANCH   1  15
TORSDOF 6
ENDMDL
MODEL 6
REMARK VINA RESULT:      -5.2      5.746      7.832
REMARK  Name = 20041
REMARK  6 active torsions:
REMARK  status: ('A' for Active; 'I' for Inactive)
REMARK    1  A    between atoms: C_1  and  C_15
REMARK    2  A    between atoms: C_2  and  O_13
REMARK    3  A    between atoms: C_4  and  N_9
REMARK    4  A    between atoms: C_5  and  N_12
REMARK    5  A    between atoms: C_15  and  C_17
REMARK    6  A    between atoms: C_17  and  C_18
REMARK                            x       y       z     vdW  Elec       q    Type
REMARK                         _______ _______ _______ _____ _____    ______ ____
ROOT
ATOM      1  C   UNL     1     -33.617  26.596   5.228  0.00  0.00    +0.015 C 
ATOM      2  C   UNL     1     -32.790  27.270   6.106  0.00  0.00    +0.152 C 
ATOM      3  C   UNL     1     -33.612  26.864   3.871  0.00  0.00    +0.023 C 
ATOM      4  C   UNL     1     -31.926  28.246   5.611  0.00  0.00    +0.178 C 
ATOM      5  C   UNL     1     -32.746  27.840   3.376  0.00  0.00    +0.144 C 
ATOM      6  C   UNL     1     -31.903  28.531   4.246  0.00  0.00    +0.051 C 
ENDROOT
BRANCH   4   9
ATOM      7  O   UNL     1     -31.565  29.713   7.349  0.00  0.00    -0.126 OA
ATOM      8  O   UNL     1     -29.821  28.816   6.353  0.00  0.00    -0.126 OA
ATOM      9  N   UNL     1     -31.059  28.962   6.483  0.00  0.00    +0.061 N 
ENDBRANCH   4   9
BRANCH   5  12
ATOM     10  O   UNL     1     -31.927  29.000   1.563  0.00  0.00    -0.126 OA
ATOM     11  O   UNL     1     -33.505  27.505   1.229  0.00  0.00    -0.126 OA
ATOM     12  N   UNL     1     -32.724  28.129   1.986  0.00  0.00    +0.058 N 
ENDBRANCH   5  12
BRANCH   2  13
ATOM     13  O   UNL     1     -32.818  26.986   7.442  0.00  0.00    -0.504 OA
ATOM     14  H   UNL     1     -32.620  26.121   7.741  0.00  0.00    +0.292 HD
ENDBRANCH   2  13
BRANCH   1  15
ATOM     15  C   UNL     1     -34.567  25.530   5.747  0.00  0.00    +0.025 C 
ATOM     16  C   UNL     1     -36.024  25.967   5.553  0.00  0.00    +0.005 C 
BRANCH  15  17
ATOM     17  C   UNL     1     -34.342  24.146   5.102  0.00  0.00    +0.004 C 
BRANCH  17  18
ATOM     18  C   UNL     1     -35.510  23.181   5.333  0.00  0.00    +0.000 C 
ATOM     19  C   UNL     1     -35.107  22.029   6.241  0.00  0.00    +0.000 C 
ENDBRANCH  17  18
ENDBRANCH  15  17
ENDBRANCH   1  15
TORSDOF 6
ENDMDL
MODEL 7
REMARK VINA RESULT:      -5.1      2.349      3.520
REMARK  Name = 20041
REMARK  6 active torsions:
REMARK  status: ('A' for Active; 'I' for Inactive)
REMARK    1  A    between atoms: C_1  and  C_15
REMARK    2  A    between atoms: C_2  and  O_13
REMARK    3  A    between atoms: C_4  and  N_9
REMARK    4  A    between atoms: C_5  and  N_12
REMARK    5  A    between atoms: C_15  and  C_17
REMARK    6  A    between atoms: C_17  and  C_18
REMARK                            x       y       z     vdW  Elec       q    Type
REMARK                         _______ _______ _______ _____ _____    ______ ____
ROOT
ATOM      1  C   UNL     1     -37.451  24.285   3.253  0.00  0.00    +0.015 C 
ATOM      2  C   UNL     1     -38.317  25.347   3.080  0.00  0.00    +0.152 C 
ATOM      3  C   UNL     1     -37.774  23.006   2.837  0.00  0.00    +0.023 C 
ATOM      4  C   UNL     1     -39.551  25.124   2.470  0.00  0.00    +0.178 C 
ATOM      5  C   UNL     1     -39.008  22.784   2.226  0.00  0.00    +0.144 C 
ATOM      6  C   UNL     1     -39.897  23.843   2.042  0.00  0.00    +0.051 C 
ENDROOT
BRANCH   4   9
ATOM      7  O   UNL     1     -40.898  26.808   3.278  0.00  0.00    -0.126 OA
ATOM      8  O   UNL     1     -40.821  26.476   1.105  0.00  0.00    -0.126 OA
ATOM      9  N   UNL     1     -40.471  26.192   2.274  0.00  0.00    +0.061 N 
ENDBRANCH   4   9
BRANCH   5  12
ATOM     10  O   UNL     1     -38.549  20.841   1.076  0.00  0.00    -0.126 OA
ATOM     11  O   UNL     1     -40.468  21.006   2.139  0.00  0.00    -0.126 OA
ATOM     12  N   UNL     1     -39.359  21.478   1.792  0.00  0.00    +0.058 N 
ENDBRANCH   5  12
BRANCH   2  13
ATOM     13  O   UNL     1     -37.972  26.599   3.501  0.00  0.00    -0.504 OA
ATOM     14  H   UNL     1     -37.860  26.772   4.415  0.00  0.00    +0.292 HD
ENDBRANCH   2  13
BRANCH   1  15
ATOM     15  C   UNL     1     -36.102  24.506   3.916  0.00  0.00    +0.025 C 
ATOM     16  C   UNL     1     -36.276  25.207   5.269  0.00  0.00    +0.005 C 
BRANCH  15  17
ATOM     17  C   UNL     1     -35.290  23.206   4.097  0.00  0.00    +0.004 C 
BRANCH  17  18
ATOM     18  C   UNL     1     -34.818  22.992   5.540  0.00  0.00    +0.000 C 
ATOM     19  C   UNL     1     -35.356  21.689   6.111  0.00  0.00    +0.000 C 
ENDBRANCH  17  18
ENDBRANCH  15  17
ENDBRANCH   1  15
TORSDOF 6
ENDMDL
MODEL 8
REMARK VINA RESULT:      -5.1      3.264      5.515
REMARK  Name = 20041
REMARK  6 active torsions:
REMARK  status: ('A' for Active; 'I' for Inactive)
REMARK    1  A    between atoms: C_1  and  C_15
REMARK    2  A    between atoms: C_2  and  O_13
REMARK    3  A    between atoms: C_4  and  N_9
REMARK    4  A    between atoms: C_5  and  N_12
REMARK    5  A    between atoms: C_15  and  C_17
REMARK    6  A    between atoms: C_17  and  C_18
REMARK                            x       y       z     vdW  Elec       q    Type
REMARK                         _______ _______ _______ _____ _____    ______ ____
ROOT
ATOM      1  C   UNL     1     -35.612  23.962   4.148  0.00  0.00    +0.015 C 
ATOM      2  C   UNL     1     -34.735  25.005   3.918  0.00  0.00    +0.152 C 
ATOM      3  C   UNL     1     -36.970  24.088   3.920  0.00  0.00    +0.023 C 
ATOM      4  C   UNL     1     -35.233  26.217   3.444  0.00  0.00    +0.178 C 
ATOM      5  C   UNL     1     -37.468  25.302   3.445  0.00  0.00    +0.144 C 
ATOM      6  C   UNL     1     -36.599  26.366   3.207  0.00  0.00    +0.051 C 
ENDROOT
BRANCH   4   9
ATOM      7  O   UNL     1     -34.589  28.404   3.772  0.00  0.00    -0.126 OA
ATOM      8  O   UNL     1     -33.401  27.153   2.407  0.00  0.00    -0.126 OA
ATOM      9  N   UNL     1     -34.362  27.315   3.195  0.00  0.00    +0.061 N 
ENDBRANCH   4   9
BRANCH   5  12
ATOM     10  O   UNL     1     -39.262  26.487   2.620  0.00  0.00    -0.126 OA
ATOM     11  O   UNL     1     -39.638  24.546   3.585  0.00  0.00    -0.126 OA
ATOM     12  N   UNL     1     -38.859  25.452   3.204  0.00  0.00    +0.058 N 
ENDBRANCH   5  12
BRANCH   2  13
ATOM     13  O   UNL     1     -33.399  24.851   4.153  0.00  0.00    -0.504 OA
ATOM     14  H   UNL     1     -32.958  24.078   3.863  0.00  0.00    +0.292 HD
ENDBRANCH   2  13
BRANCH   1  15
ATOM     15  C   UNL     1     -35.090  22.633   4.666  0.00  0.00    +0.025 C 
ATOM     16  C   UNL     1     -35.436  22.459   6.150  0.00  0.00    +0.005 C 
BRANCH  15  17
ATOM     17  C   UNL     1     -35.604  21.420   3.861  0.00  0.00    +0.004 C 
BRANCH  17  18
ATOM     18  C   UNL     1     -35.185  21.458   2.387  0.00  0.00    +0.000 C 
ATOM     19  C   UNL     1     -34.740  20.087   1.901  0.00  0.00    +0.000 C 
ENDBRANCH  17  18
ENDBRANCH  15  17
ENDBRANCH   1  15
TORSDOF 6
ENDMDL
MODEL 9
REMARK VINA RESULT:      -5.0      1.889      2.664
REMARK  Name = 20041
REMARK  6 active torsions:
REMARK  status: ('A' for Active; 'I' for Inactive)
REMARK    1  A    between atoms: C_1  and  C_15
REMARK    2  A    between atoms: C_2  and  O_13
REMARK    3  A    between atoms: C_4  and  N_9
REMARK    4  A    between atoms: C_5  and  N_12
REMARK    5  A    between atoms: C_15  and  C_17
REMARK    6  A    between atoms: C_17  and  C_18
REMARK                            x       y       z     vdW  Elec       q    Type
REMARK                         _______ _______ _______ _____ _____    ______ ____
ROOT
ATOM      1  C   UNL     1     -36.332  24.859   4.085  0.00  0.00    +0.015 C 
ATOM      2  C   UNL     1     -37.562  24.960   3.462  0.00  0.00    +0.152 C 
ATOM      3  C   UNL     1     -35.634  23.666   4.129  0.00  0.00    +0.023 C 
ATOM      4  C   UNL     1     -38.113  23.829   2.862  0.00  0.00    +0.178 C 
ATOM      5  C   UNL     1     -36.185  22.535   3.528  0.00  0.00    +0.144 C 
ATOM      6  C   UNL     1     -37.425  22.616   2.894  0.00  0.00    +0.051 C 
ENDROOT
BRANCH   4   9
ATOM      7  O   UNL     1     -39.640  24.894   1.507  0.00  0.00    -0.126 OA
ATOM      8  O   UNL     1     -40.180  22.943   2.367  0.00  0.00    -0.126 OA
ATOM      9  N   UNL     1     -39.377  23.892   2.211  0.00  0.00    +0.061 N 
ENDBRANCH   4   9
BRANCH   5  12
ATOM     10  O   UNL     1     -35.266  20.700   2.482  0.00  0.00    -0.126 OA
ATOM     11  O   UNL     1     -35.108  20.852   4.670  0.00  0.00    -0.126 OA
ATOM     12  N   UNL     1     -35.484  21.300   3.561  0.00  0.00    +0.058 N 
ENDBRANCH   5  12
BRANCH   2  13
ATOM     13  O   UNL     1     -38.230  26.151   3.435  0.00  0.00    -0.504 OA
ATOM     14  H   UNL     1     -39.026  26.230   2.948  0.00  0.00    +0.292 HD
ENDBRANCH   2  13
BRANCH   1  15
ATOM     15  C   UNL     1     -35.715  26.079   4.746  0.00  0.00    +0.025 C 
ATOM     16  C   UNL     1     -34.829  25.662   5.926  0.00  0.00    +0.005 C 
BRANCH  15  17
ATOM     17  C   UNL     1     -34.908  26.960   3.768  0.00  0.00    +0.004 C 
BRANCH  17  18
ATOM     18  C   UNL     1     -33.393  26.759   3.893  0.00  0.00    +0.000 C 
ATOM     19  C   UNL     1     -32.823  26.062   2.667  0.00  0.00    +0.000 C 
ENDBRANCH  17  18
ENDBRANCH  15  17
ENDBRANCH   1  15
TORSDOF 6
ENDMDL
