MODEL 1
REMARK VINA RESULT:      -6.5      0.000      0.000
REMARK  Name = 192308
REMARK  10 active torsions:
REMARK  status: ('A' for Active; 'I' for Inactive)
REMARK    1  A    between atoms: S_1  and  C_4
REMARK    2  A    between atoms: S_1  and  C_16
REMARK    3  A    between atoms: C_7  and  O_10
REMARK    4  A    between atoms: O_10  and  C_11
REMARK    5  A    between atoms: C_11  and  C_13
REMARK    6  A    between atoms: C_13  and  O_14
REMARK    7  A    between atoms: C_16  and  C_17
REMARK    8  A    between atoms: C_17  and  N_18
REMARK    9  A    between atoms: N_18  and  S_20
REMARK   10  A    between atoms: S_20  and  C_24
REMARK                            x       y       z     vdW  Elec       q    Type
REMARK                         _______ _______ _______ _____ _____    ______ ____
ROOT
ATOM      1  S   UNL     1     -38.284  25.894   2.067  0.00  0.00    -0.112 S 
ENDROOT
BRANCH   1   4
ATOM      2  F   UNL     1     -35.420  24.172   5.946  0.00  0.00    -0.201 F 
ATOM      3  F   UNL     1     -33.591  27.591   3.215  0.00  0.00    -0.201 F 
ATOM      4  C   UNL     1     -36.800  25.889   3.053  0.00  0.00    +0.030 C 
ATOM      5  C   UNL     1     -35.754  26.757   2.743  0.00  0.00    +0.039 C 
ATOM      6  C   UNL     1     -36.685  25.015   4.134  0.00  0.00    +0.039 C 
ATOM      7  C   UNL     1     -34.478  25.880   4.598  0.00  0.00    +0.194 C 
ATOM      8  C   UNL     1     -35.524  25.011   4.907  0.00  0.00    +0.177 C 
ATOM      9  C   UNL     1     -34.592  26.752   3.516  0.00  0.00    +0.177 C 
BRANCH   7  10
ATOM     10  O   UNL     1     -33.345  25.878   5.353  0.00  0.00    -0.459 OA
BRANCH  10  11
ATOM     11  C   UNL     1     -33.334  26.713   6.509  0.00  0.00    +0.314 C 
BRANCH  11  13
ATOM     12  O   UNL     1     -32.401  28.864   5.871  0.00  0.00    -0.246 OA
ATOM     13  C   UNL     1     -32.262  27.759   6.372  0.00  0.00    +0.359 C 
BRANCH  13  14
ATOM     14  O   UNL     1     -31.093  27.302   6.888  0.00  0.00    -0.478 OA
ATOM     15  H   UNL     1     -31.099  26.750   7.645  0.00  0.00    +0.295 HD
ENDBRANCH  13  14
ENDBRANCH  11  13
ENDBRANCH  10  11
ENDBRANCH   7  10
ENDBRANCH   1   4
BRANCH   1  16
ATOM     16  C   UNL     1     -39.531  25.352   3.271  0.00  0.00    +0.081 C 
BRANCH  16  17
ATOM     17  C   UNL     1     -40.892  25.982   3.012  0.00  0.00    +0.103 C 
BRANCH  17  18
ATOM     18  N   UNL     1     -41.214  26.983   4.054  0.00  0.00    -0.178 NA
ATOM     19  H   UNL     1     -41.461  26.463   4.896  0.00  0.00    +0.149 HD
BRANCH  18  20
ATOM     20  S   UNL     1     -42.459  28.109   3.790  0.00  0.00    +0.060 S 
ATOM     21  O   UNL     1     -42.389  28.593   2.424  0.00  0.00    -0.153 OA
ATOM     22  O   UNL     1     -42.485  29.047   4.896  0.00  0.00    -0.153 OA
BRANCH  20  24
ATOM     23 CL   UNL     1     -47.562  24.529   4.314  0.00  0.00    -0.082 Cl
ATOM     24  C   UNL     1     -43.902  27.099   3.937  0.00  0.00    +0.122 C 
ATOM     25  C   UNL     1     -44.613  27.106   5.124  0.00  0.00    +0.021 C 
ATOM     26  C   UNL     1     -44.292  26.318   2.864  0.00  0.00    +0.021 C 
ATOM     27  C   UNL     1     -45.750  26.307   5.242  0.00  0.00    +0.013 C 
ATOM     28  C   UNL     1     -45.429  25.518   2.981  0.00  0.00    +0.013 C 
ATOM     29  C   UNL     1     -46.159  25.513   4.171  0.00  0.00    +0.058 C 
ENDBRANCH  20  24
ENDBRANCH  18  20
ENDBRANCH  17  18
ENDBRANCH  16  17
ENDBRANCH   1  16
TORSDOF 10
ENDMDL
MODEL 2
REMARK VINA RESULT:      -6.4      5.032      8.813
REMARK  Name = 192308
REMARK  10 active torsions:
REMARK  status: ('A' for Active; 'I' for Inactive)
REMARK    1  A    between atoms: S_1  and  C_4
REMARK    2  A    between atoms: S_1  and  C_16
REMARK    3  A    between atoms: C_7  and  O_10
REMARK    4  A    between atoms: O_10  and  C_11
REMARK    5  A    between atoms: C_11  and  C_13
REMARK    6  A    between atoms: C_13  and  O_14
REMARK    7  A    between atoms: C_16  and  C_17
REMARK    8  A    between atoms: C_17  and  N_18
REMARK    9  A    between atoms: N_18  and  S_20
REMARK   10  A    between atoms: S_20  and  C_24
REMARK                            x       y       z     vdW  Elec       q    Type
REMARK                         _______ _______ _______ _____ _____    ______ ____
ROOT
ATOM      1  S   UNL     1     -40.000  21.397   0.262  0.00  0.00    -0.112 S 
ENDROOT
BRANCH   1   4
ATOM      2  F   UNL     1     -42.161  26.021   0.665  0.00  0.00    -0.201 F 
ATOM      3  F   UNL     1     -38.965  24.798   3.949  0.00  0.00    -0.201 F 
ATOM      4  C   UNL     1     -40.221  22.971   1.066  0.00  0.00    +0.030 C 
ATOM      5  C   UNL     1     -39.494  23.276   2.216  0.00  0.00    +0.039 C 
ATOM      6  C   UNL     1     -41.123  23.899   0.544  0.00  0.00    +0.039 C 
ATOM      7  C   UNL     1     -40.569  25.437   2.322  0.00  0.00    +0.194 C 
ATOM      8  C   UNL     1     -41.296  25.133   1.172  0.00  0.00    +0.177 C 
ATOM      9  C   UNL     1     -39.668  24.510   2.845  0.00  0.00    +0.177 C 
BRANCH   7  10
ATOM     10  O   UNL     1     -40.736  26.642   2.935  0.00  0.00    -0.459 OA
BRANCH  10  11
ATOM     11  C   UNL     1     -41.820  26.757   3.855  0.00  0.00    +0.314 C 
BRANCH  11  13
ATOM     12  O   UNL     1     -42.089  28.985   4.786  0.00  0.00    -0.246 OA
ATOM     13  C   UNL     1     -42.306  28.179   3.894  0.00  0.00    +0.359 C 
BRANCH  13  14
ATOM     14  O   UNL     1     -43.034  28.455   2.783  0.00  0.00    -0.478 OA
ATOM     15  H   UNL     1     -42.673  28.294   1.933  0.00  0.00    +0.295 HD
ENDBRANCH  13  14
ENDBRANCH  11  13
ENDBRANCH  10  11
ENDBRANCH   7  10
ENDBRANCH   1   4
BRANCH   1  16
ATOM     16  C   UNL     1     -38.211  21.387  -0.049  0.00  0.00    +0.081 C 
BRANCH  16  17
ATOM     17  C   UNL     1     -37.519  20.204   0.613  0.00  0.00    +0.103 C 
BRANCH  17  18
ATOM     18  N   UNL     1     -37.048  20.562   1.970  0.00  0.00    -0.178 NA
ATOM     19  H   UNL     1     -37.605  21.361   2.273  0.00  0.00    +0.149 HD
BRANCH  18  20
ATOM     20  S   UNL     1     -35.419  20.975   2.220  0.00  0.00    +0.060 S 
ATOM     21  O   UNL     1     -34.825  21.375   0.958  0.00  0.00    -0.153 OA
ATOM     22  O   UNL     1     -34.793  19.945   3.026  0.00  0.00    -0.153 OA
BRANCH  20  24
ATOM     23 CL   UNL     1     -35.908  26.064   5.824  0.00  0.00    -0.082 Cl
ATOM     24  C   UNL     1     -35.559  22.412   3.238  0.00  0.00    +0.122 C 
ATOM     25  C   UNL     1     -35.678  23.655   2.640  0.00  0.00    +0.021 C 
ATOM     26  C   UNL     1     -35.544  22.269   4.615  0.00  0.00    +0.021 C 
ATOM     27  C   UNL     1     -35.785  24.790   3.444  0.00  0.00    +0.013 C 
ATOM     28  C   UNL     1     -35.652  23.404   5.418  0.00  0.00    +0.013 C 
ATOM     29  C   UNL     1     -35.773  24.665   4.832  0.00  0.00    +0.058 C 
ENDBRANCH  20  24
ENDBRANCH  18  20
ENDBRANCH  17  18
ENDBRANCH  16  17
ENDBRANCH   1  16
TORSDOF 10
ENDMDL
MODEL 3
REMARK VINA RESULT:      -6.3      5.611      7.796
REMARK  Name = 192308
REMARK  10 active torsions:
REMARK  status: ('A' for Active; 'I' for Inactive)
REMARK    1  A    between atoms: S_1  and  C_4
REMARK    2  A    between atoms: S_1  and  C_16
REMARK    3  A    between atoms: C_7  and  O_10
REMARK    4  A    between atoms: O_10  and  C_11
REMARK    5  A    between atoms: C_11  and  C_13
REMARK    6  A    between atoms: C_13  and  O_14
REMARK    7  A    between atoms: C_16  and  C_17
REMARK    8  A    between atoms: C_17  and  N_18
REMARK    9  A    between atoms: N_18  and  S_20
REMARK   10  A    between atoms: S_20  and  C_24
REMARK                            x       y       z     vdW  Elec       q    Type
REMARK                         _______ _______ _______ _____ _____    ______ ____
ROOT
ATOM      1  S   UNL     1     -36.407  28.095  -0.197  0.00  0.00    -0.112 S 
ENDROOT
BRANCH   1   4
ATOM      2  F   UNL     1     -38.895  24.909   2.946  0.00  0.00    -0.201 F 
ATOM      3  F   UNL     1     -34.711  23.478   1.232  0.00  0.00    -0.201 F 
ATOM      4  C   UNL     1     -36.562  26.562   0.699  0.00  0.00    +0.030 C 
ATOM      5  C   UNL     1     -35.558  25.599   0.614  0.00  0.00    +0.039 C 
ATOM      6  C   UNL     1     -37.689  26.327   1.487  0.00  0.00    +0.039 C 
ATOM      7  C   UNL     1     -36.807  24.165   2.104  0.00  0.00    +0.194 C 
ATOM      8  C   UNL     1     -37.811  25.129   2.190  0.00  0.00    +0.177 C 
ATOM      9  C   UNL     1     -35.680  24.399   1.316  0.00  0.00    +0.177 C 
BRANCH   7  10
ATOM     10  O   UNL     1     -36.925  22.995   2.791  0.00  0.00    -0.459 OA
BRANCH  10  11
ATOM     11  C   UNL     1     -37.196  21.820   2.029  0.00  0.00    +0.314 C 
BRANCH  11  13
ATOM     12  O   UNL     1     -35.112  20.854   2.822  0.00  0.00    -0.246 OA
ATOM     13  C   UNL     1     -36.268  20.714   2.452  0.00  0.00    +0.359 C 
BRANCH  13  14
ATOM     14  O   UNL     1     -36.898  19.516   2.365  0.00  0.00    -0.478 OA
ATOM     15  H   UNL     1     -37.635  19.333   2.914  0.00  0.00    +0.295 HD
ENDBRANCH  13  14
ENDBRANCH  11  13
ENDBRANCH  10  11
ENDBRANCH   7  10
ENDBRANCH   1   4
BRANCH   1  16
ATOM     16  C   UNL     1     -36.748  29.319   1.100  0.00  0.00    +0.081 C 
BRANCH  16  17
ATOM     17  C   UNL     1     -35.505  29.658   1.911  0.00  0.00    +0.103 C 
BRANCH  17  18
ATOM     18  N   UNL     1     -35.374  28.753   3.075  0.00  0.00    -0.178 NA
ATOM     19  H   UNL     1     -35.614  29.300   3.902  0.00  0.00    +0.149 HD
BRANCH  18  20
ATOM     20  S   UNL     1     -33.884  28.002   3.400  0.00  0.00    +0.060 S 
ATOM     21  O   UNL     1     -33.155  28.783   4.381  0.00  0.00    -0.153 OA
ATOM     22  O   UNL     1     -33.258  27.641   2.142  0.00  0.00    -0.153 OA
BRANCH  20  24
ATOM     23 CL   UNL     1     -35.692  22.674   6.135  0.00  0.00    -0.082 Cl
ATOM     24  C   UNL     1     -34.396  26.497   4.171  0.00  0.00    +0.122 C 
ATOM     25  C   UNL     1     -35.585  26.469   4.877  0.00  0.00    +0.021 C 
ATOM     26  C   UNL     1     -33.596  25.373   4.056  0.00  0.00    +0.021 C 
ATOM     27  C   UNL     1     -35.988  25.282   5.489  0.00  0.00    +0.013 C 
ATOM     28  C   UNL     1     -33.998  24.186   4.667  0.00  0.00    +0.013 C 
ATOM     29  C   UNL     1     -35.195  24.140   5.383  0.00  0.00    +0.058 C 
ENDBRANCH  20  24
ENDBRANCH  18  20
ENDBRANCH  17  18
ENDBRANCH  16  17
ENDBRANCH   1  16
TORSDOF 10
ENDMDL
MODEL 4
REMARK VINA RESULT:      -6.3      6.863      7.818
REMARK  Name = 192308
REMARK  10 active torsions:
REMARK  status: ('A' for Active; 'I' for Inactive)
REMARK    1  A    between atoms: S_1  and  C_4
REMARK    2  A    between atoms: S_1  and  C_16
REMARK    3  A    between atoms: C_7  and  O_10
REMARK    4  A    between atoms: O_10  and  C_11
REMARK    5  A    between atoms: C_11  and  C_13
REMARK    6  A    between atoms: C_13  and  O_14
REMARK    7  A    between atoms: C_16  and  C_17
REMARK    8  A    between atoms: C_17  and  N_18
REMARK    9  A    between atoms: N_18  and  S_20
REMARK   10  A    between atoms: S_20  and  C_24
REMARK                            x       y       z     vdW  Elec       q    Type
REMARK                         _______ _______ _______ _____ _____    ______ ____
ROOT
ATOM      1  S   UNL     1     -32.814  30.097   2.492  0.00  0.00    -0.112 S 
ENDROOT
BRANCH   1   4
ATOM      2  F   UNL     1     -31.450  29.528   7.395  0.00  0.00    -0.201 F 
ATOM      3  F   UNL     1     -28.567  27.722   4.090  0.00  0.00    -0.201 F 
ATOM      4  C   UNL     1     -31.713  29.518   3.768  0.00  0.00    +0.030 C 
ATOM      5  C   UNL     1     -30.548  28.831   3.426  0.00  0.00    +0.039 C 
ATOM      6  C   UNL     1     -32.016  29.751   5.109  0.00  0.00    +0.039 C 
ATOM      7  C   UNL     1     -29.990  28.613   5.766  0.00  0.00    +0.194 C 
ATOM      8  C   UNL     1     -31.154  29.299   6.108  0.00  0.00    +0.177 C 
ATOM      9  C   UNL     1     -29.686  28.378   4.425  0.00  0.00    +0.177 C 
BRANCH   7  10
ATOM     10  O   UNL     1     -29.147  28.173   6.741  0.00  0.00    -0.459 OA
BRANCH  10  11
ATOM     11  C   UNL     1     -27.874  28.811   6.835  0.00  0.00    +0.314 C 
BRANCH  11  13
ATOM     12  O   UNL     1     -27.336  30.904   7.946  0.00  0.00    -0.246 OA
ATOM     13  C   UNL     1     -27.889  29.814   7.955  0.00  0.00    +0.359 C 
BRANCH  13  14
ATOM     14  O   UNL     1     -28.612  29.339   9.000  0.00  0.00    -0.478 OA
ATOM     15  H   UNL     1     -28.397  29.596   9.874  0.00  0.00    +0.295 HD
ENDBRANCH  13  14
ENDBRANCH  11  13
ENDBRANCH  10  11
ENDBRANCH   7  10
ENDBRANCH   1   4
BRANCH   1  16
ATOM     16  C   UNL     1     -34.413  29.454   3.064  0.00  0.00    +0.081 C 
BRANCH  16  17
ATOM     17  C   UNL     1     -34.585  27.975   2.747  0.00  0.00    +0.103 C 
BRANCH  17  18
ATOM     18  N   UNL     1     -35.149  27.251   3.909  0.00  0.00    -0.178 NA
ATOM     19  H   UNL     1     -35.495  27.959   4.556  0.00  0.00    +0.149 HD
BRANCH  18  20
ATOM     20  S   UNL     1     -34.166  26.199   4.810  0.00  0.00    +0.060 S 
ATOM     21  O   UNL     1     -34.527  26.284   6.212  0.00  0.00    -0.153 OA
ATOM     22  O   UNL     1     -32.786  26.380   4.399  0.00  0.00    -0.153 OA
BRANCH  20  24
ATOM     23 CL   UNL     1     -35.975  20.600   2.685  0.00  0.00    -0.082 Cl
ATOM     24  C   UNL     1     -34.678  24.618   4.209  0.00  0.00    +0.122 C 
ATOM     25  C   UNL     1     -35.069  23.646   5.113  0.00  0.00    +0.021 C 
ATOM     26  C   UNL     1     -34.677  24.380   2.846  0.00  0.00    +0.021 C 
ATOM     27  C   UNL     1     -35.471  22.397   4.640  0.00  0.00    +0.013 C 
ATOM     28  C   UNL     1     -35.080  23.131   2.373  0.00  0.00    +0.013 C 
ATOM     29  C   UNL     1     -35.477  22.139   3.270  0.00  0.00    +0.058 C 
ENDBRANCH  20  24
ENDBRANCH  18  20
ENDBRANCH  17  18
ENDBRANCH  16  17
ENDBRANCH   1  16
TORSDOF 10
ENDMDL
MODEL 5
REMARK VINA RESULT:      -6.3      5.144      6.597
REMARK  Name = 192308
REMARK  10 active torsions:
REMARK  status: ('A' for Active; 'I' for Inactive)
REMARK    1  A    between atoms: S_1  and  C_4
REMARK    2  A    between atoms: S_1  and  C_16
REMARK    3  A    between atoms: C_7  and  O_10
REMARK    4  A    between atoms: O_10  and  C_11
REMARK    5  A    between atoms: C_11  and  C_13
REMARK    6  A    between atoms: C_13  and  O_14
REMARK    7  A    between atoms: C_16  and  C_17
REMARK    8  A    between atoms: C_17  and  N_18
REMARK    9  A    between atoms: N_18  and  S_20
REMARK   10  A    between atoms: S_20  and  C_24
REMARK                            x       y       z     vdW  Elec       q    Type
REMARK                         _______ _______ _______ _____ _____    ______ ____
ROOT
ATOM      1  S   UNL     1     -35.006  21.045  -0.068  0.00  0.00    -0.112 S 
ENDROOT
BRANCH   1   4
ATOM      2  F   UNL     1     -35.542  21.379   5.013  0.00  0.00    -0.201 F 
ATOM      3  F   UNL     1     -36.688  25.188   2.430  0.00  0.00    -0.201 F 
ATOM      4  C   UNL     1     -35.440  21.925   1.419  0.00  0.00    +0.030 C 
ATOM      5  C   UNL     1     -35.902  23.238   1.344  0.00  0.00    +0.039 C 
ATOM      6  C   UNL     1     -35.318  21.299   2.660  0.00  0.00    +0.039 C 
ATOM      7  C   UNL     1     -36.121  23.299   3.749  0.00  0.00    +0.194 C 
ATOM      8  C   UNL     1     -35.659  21.986   3.825  0.00  0.00    +0.177 C 
ATOM      9  C   UNL     1     -36.242  23.926   2.509  0.00  0.00    +0.177 C 
BRANCH   7  10
ATOM     10  O   UNL     1     -36.455  23.971   4.885  0.00  0.00    -0.459 OA
BRANCH  10  11
ATOM     11  C   UNL     1     -35.401  24.632   5.582  0.00  0.00    +0.314 C 
BRANCH  11  13
ATOM     12  O   UNL     1     -34.541  26.792   4.876  0.00  0.00    -0.246 OA
ATOM     13  C   UNL     1     -35.458  26.110   5.309  0.00  0.00    +0.359 C 
BRANCH  13  14
ATOM     14  O   UNL     1     -36.688  26.595   5.613  0.00  0.00    -0.478 OA
ATOM     15  H   UNL     1     -36.792  27.192   6.327  0.00  0.00    +0.295 HD
ENDBRANCH  13  14
ENDBRANCH  11  13
ENDBRANCH  10  11
ENDBRANCH   7  10
ENDBRANCH   1   4
BRANCH   1  16
ATOM     16  C   UNL     1     -35.329  19.324   0.411  0.00  0.00    +0.081 C 
BRANCH  16  17
ATOM     17  C   UNL     1     -36.600  18.778  -0.225  0.00  0.00    +0.103 C 
BRANCH  17  18
ATOM     18  N   UNL     1     -37.799  19.402   0.378  0.00  0.00    -0.178 NA
ATOM     19  H   UNL     1     -38.334  18.651   0.813  0.00  0.00    +0.149 HD
BRANCH  18  20
ATOM     20  S   UNL     1     -38.882  20.273  -0.600  0.00  0.00    +0.060 S 
ATOM     21  O   UNL     1     -40.110  19.517  -0.750  0.00  0.00    -0.153 OA
ATOM     22  O   UNL     1     -38.173  20.754  -1.771  0.00  0.00    -0.153 OA
BRANCH  20  24
ATOM     23 CL   UNL     1     -40.104  25.265   2.968  0.00  0.00    -0.082 Cl
ATOM     24  C   UNL     1     -39.229  21.683   0.408  0.00  0.00    +0.122 C 
ATOM     25  C   UNL     1     -39.332  22.929  -0.186  0.00  0.00    +0.021 C 
ATOM     26  C   UNL     1     -39.388  21.515   1.773  0.00  0.00    +0.021 C 
ATOM     27  C   UNL     1     -39.603  24.042   0.609  0.00  0.00    +0.013 C 
ATOM     28  C   UNL     1     -39.659  22.629   2.568  0.00  0.00    +0.013 C 
ATOM     29  C   UNL     1     -39.767  23.892   1.986  0.00  0.00    +0.058 C 
ENDBRANCH  20  24
ENDBRANCH  18  20
ENDBRANCH  17  18
ENDBRANCH  16  17
ENDBRANCH   1  16
TORSDOF 10
ENDMDL
MODEL 6
REMARK VINA RESULT:      -6.3      6.553      9.578
REMARK  Name = 192308
REMARK  10 active torsions:
REMARK  status: ('A' for Active; 'I' for Inactive)
REMARK    1  A    between atoms: S_1  and  C_4
REMARK    2  A    between atoms: S_1  and  C_16
REMARK    3  A    between atoms: C_7  and  O_10
REMARK    4  A    between atoms: O_10  and  C_11
REMARK    5  A    between atoms: C_11  and  C_13
REMARK    6  A    between atoms: C_13  and  O_14
REMARK    7  A    between atoms: C_16  and  C_17
REMARK    8  A    between atoms: C_17  and  N_18
REMARK    9  A    between atoms: N_18  and  S_20
REMARK   10  A    between atoms: S_20  and  C_24
REMARK                            x       y       z     vdW  Elec       q    Type
REMARK                         _______ _______ _______ _____ _____    ______ ____
ROOT
ATOM      1  S   UNL     1     -34.486  31.545   1.393  0.00  0.00    -0.112 S 
ENDROOT
BRANCH   1   4
ATOM      2  F   UNL     1     -36.500  36.240   1.048  0.00  0.00    -0.201 F 
ATOM      3  F   UNL     1     -39.495  32.599   1.565  0.00  0.00    -0.201 F 
ATOM      4  C   UNL     1     -35.865  32.673   1.358  0.00  0.00    +0.030 C 
ATOM      5  C   UNL     1     -37.167  32.187   1.476  0.00  0.00    +0.039 C 
ATOM      6  C   UNL     1     -35.642  34.042   1.212  0.00  0.00    +0.039 C 
ATOM      7  C   UNL     1     -38.023  34.440   1.304  0.00  0.00    +0.194 C 
ATOM      8  C   UNL     1     -36.721  34.926   1.186  0.00  0.00    +0.177 C 
ATOM      9  C   UNL     1     -38.247  33.071   1.449  0.00  0.00    +0.177 C 
BRANCH   7  10
ATOM     10  O   UNL     1     -39.076  35.302   1.280  0.00  0.00    -0.459 OA
BRANCH  10  11
ATOM     11  C   UNL     1     -39.530  35.808   2.534  0.00  0.00    +0.314 C 
BRANCH  11  13
ATOM     12  O   UNL     1     -41.657  34.764   2.000  0.00  0.00    -0.246 OA
ATOM     13  C   UNL     1     -40.993  35.510   2.704  0.00  0.00    +0.359 C 
BRANCH  13  14
ATOM     14  O   UNL     1     -41.490  36.193   3.766  0.00  0.00    -0.478 OA
ATOM     15  H   UNL     1     -40.940  36.384   4.499  0.00  0.00    +0.295 HD
ENDBRANCH  13  14
ENDBRANCH  11  13
ENDBRANCH  10  11
ENDBRANCH   7  10
ENDBRANCH   1   4
BRANCH   1  16
ATOM     16  C   UNL     1     -34.852  30.558   2.873  0.00  0.00    +0.081 C 
BRANCH  16  17
ATOM     17  C   UNL     1     -34.439  29.102   2.710  0.00  0.00    +0.103 C 
BRANCH  17  18
ATOM     18  N   UNL     1     -35.465  28.197   3.275  0.00  0.00    -0.178 NA
ATOM     19  H   UNL     1     -35.079  27.818   4.139  0.00  0.00    +0.149 HD
BRANCH  18  20
ATOM     20  S   UNL     1     -36.022  26.876   2.364  0.00  0.00    +0.060 S 
ATOM     21  O   UNL     1     -35.108  26.628   1.266  0.00  0.00    -0.153 OA
ATOM     22  O   UNL     1     -37.440  27.048   2.108  0.00  0.00    -0.153 OA
BRANCH  20  24
ATOM     23 CL   UNL     1     -35.469  22.169   6.447  0.00  0.00    -0.082 Cl
ATOM     24  C   UNL     1     -35.865  25.546   3.517  0.00  0.00    +0.122 C 
ATOM     25  C   UNL     1     -36.170  24.259   3.110  0.00  0.00    +0.021 C 
ATOM     26  C   UNL     1     -35.441  25.817   4.806  0.00  0.00    +0.021 C 
ATOM     27  C   UNL     1     -36.048  23.210   4.020  0.00  0.00    +0.013 C 
ATOM     28  C   UNL     1     -35.319  24.767   5.717  0.00  0.00    +0.013 C 
ATOM     29  C   UNL     1     -35.622  23.463   5.324  0.00  0.00    +0.058 C 
ENDBRANCH  20  24
ENDBRANCH  18  20
ENDBRANCH  17  18
ENDBRANCH  16  17
ENDBRANCH   1  16
TORSDOF 10
ENDMDL
MODEL 7
REMARK VINA RESULT:      -6.3      4.387      5.411
REMARK  Name = 192308
REMARK  10 active torsions:
REMARK  status: ('A' for Active; 'I' for Inactive)
REMARK    1  A    between atoms: S_1  and  C_4
REMARK    2  A    between atoms: S_1  and  C_16
REMARK    3  A    between atoms: C_7  and  O_10
REMARK    4  A    between atoms: O_10  and  C_11
REMARK    5  A    between atoms: C_11  and  C_13
REMARK    6  A    between atoms: C_13  and  O_14
REMARK    7  A    between atoms: C_16  and  C_17
REMARK    8  A    between atoms: C_17  and  N_18
REMARK    9  A    between atoms: N_18  and  S_20
REMARK   10  A    between atoms: S_20  and  C_24
REMARK                            x       y       z     vdW  Elec       q    Type
REMARK                         _______ _______ _______ _____ _____    ______ ____
ROOT
ATOM      1  S   UNL     1     -35.638  21.865   4.096  0.00  0.00    -0.112 S 
ENDROOT
BRANCH   1   4
ATOM      2  F   UNL     1     -34.664  26.355   1.837  0.00  0.00    -0.201 F 
ATOM      3  F   UNL     1     -34.278  26.144   6.559  0.00  0.00    -0.201 F 
ATOM      4  C   UNL     1     -35.181  23.586   4.137  0.00  0.00    +0.030 C 
ATOM      5  C   UNL     1     -34.904  24.206   5.355  0.00  0.00    +0.039 C 
ATOM      6  C   UNL     1     -35.101  24.314   2.950  0.00  0.00    +0.039 C 
ATOM      7  C   UNL     1     -34.464  26.281   4.198  0.00  0.00    +0.194 C 
ATOM      8  C   UNL     1     -34.742  25.661   2.980  0.00  0.00    +0.177 C 
ATOM      9  C   UNL     1     -34.545  25.554   5.386  0.00  0.00    +0.177 C 
BRANCH   7  10
ATOM     10  O   UNL     1     -34.112  27.596   4.229  0.00  0.00    -0.459 OA
BRANCH  10  11
ATOM     11  C   UNL     1     -32.733  27.903   4.036  0.00  0.00    +0.314 C 
BRANCH  11  13
ATOM     12  O   UNL     1     -31.476  27.672   6.103  0.00  0.00    -0.246 OA
ATOM     13  C   UNL     1     -32.127  28.363   5.333  0.00  0.00    +0.359 C 
BRANCH  13  14
ATOM     14  O   UNL     1     -32.405  29.674   5.542  0.00  0.00    -0.478 OA
ATOM     15  H   UNL     1     -32.195  30.308   4.884  0.00  0.00    +0.295 HD
ENDBRANCH  13  14
ENDBRANCH  11  13
ENDBRANCH  10  11
ENDBRANCH   7  10
ENDBRANCH   1   4
BRANCH   1  16
ATOM     16  C   UNL     1     -35.426  21.467   2.337  0.00  0.00    +0.081 C 
BRANCH  16  17
ATOM     17  C   UNL     1     -36.428  20.425   1.859  0.00  0.00    +0.103 C 
BRANCH  17  18
ATOM     18  N   UNL     1     -37.815  20.879   2.101  0.00  0.00    -0.178 NA
ATOM     19  H   UNL     1     -38.327  20.078   2.470  0.00  0.00    +0.149 HD
BRANCH  18  20
ATOM     20  S   UNL     1     -38.738  21.503   0.818  0.00  0.00    +0.060 S 
ATOM     21  O   UNL     1     -39.843  20.605   0.538  0.00  0.00    -0.153 OA
ATOM     22  O   UNL     1     -37.843  21.912  -0.247  0.00  0.00    -0.153 OA
BRANCH  20  24
ATOM     23 CL   UNL     1     -41.081  26.730   3.334  0.00  0.00    -0.082 Cl
ATOM     24  C   UNL     1     -39.401  22.979   1.530  0.00  0.00    +0.122 C 
ATOM     25  C   UNL     1     -40.536  23.545   0.976  0.00  0.00    +0.021 C 
ATOM     26  C   UNL     1     -38.772  23.541   2.627  0.00  0.00    +0.021 C 
ATOM     27  C   UNL     1     -41.057  24.711   1.536  0.00  0.00    +0.013 C 
ATOM     28  C   UNL     1     -39.294  24.707   3.186  0.00  0.00    +0.013 C 
ATOM     29  C   UNL     1     -40.437  25.292   2.641  0.00  0.00    +0.058 C 
ENDBRANCH  20  24
ENDBRANCH  18  20
ENDBRANCH  17  18
ENDBRANCH  16  17
ENDBRANCH   1  16
TORSDOF 10
ENDMDL
MODEL 8
REMARK VINA RESULT:      -6.2      8.072     10.935
REMARK  Name = 192308
REMARK  10 active torsions:
REMARK  status: ('A' for Active; 'I' for Inactive)
REMARK    1  A    between atoms: S_1  and  C_4
REMARK    2  A    between atoms: S_1  and  C_16
REMARK    3  A    between atoms: C_7  and  O_10
REMARK    4  A    between atoms: O_10  and  C_11
REMARK    5  A    between atoms: C_11  and  C_13
REMARK    6  A    between atoms: C_13  and  O_14
REMARK    7  A    between atoms: C_16  and  C_17
REMARK    8  A    between atoms: C_17  and  N_18
REMARK    9  A    between atoms: N_18  and  S_20
REMARK   10  A    between atoms: S_20  and  C_24
REMARK                            x       y       z     vdW  Elec       q    Type
REMARK                         _______ _______ _______ _____ _____    ______ ____
ROOT
ATOM      1  S   UNL     1     -35.793  20.528  -0.119  0.00  0.00    -0.112 S 
ENDROOT
BRANCH   1   4
ATOM      2  F   UNL     1     -37.449  24.586   2.527  0.00  0.00    -0.201 F 
ATOM      3  F   UNL     1     -35.149  21.197   4.918  0.00  0.00    -0.201 F 
ATOM      4  C   UNL     1     -35.992  21.455   1.390  0.00  0.00    +0.030 C 
ATOM      5  C   UNL     1     -35.485  20.955   2.589  0.00  0.00    +0.039 C 
ATOM      6  C   UNL     1     -36.656  22.681   1.371  0.00  0.00    +0.039 C 
ATOM      7  C   UNL     1     -36.305  22.908   3.750  0.00  0.00    +0.194 C 
ATOM      8  C   UNL     1     -36.812  23.408   2.551  0.00  0.00    +0.177 C 
ATOM      9  C   UNL     1     -35.641  21.681   3.770  0.00  0.00    +0.177 C 
BRANCH   7  10
ATOM     10  O   UNL     1     -36.455  23.617   4.902  0.00  0.00    -0.459 OA
BRANCH  10  11
ATOM     11  C   UNL     1     -35.317  24.336   5.375  0.00  0.00    +0.314 C 
BRANCH  11  13
ATOM     12  O   UNL     1     -34.710  26.686   5.252  0.00  0.00    -0.246 OA
ATOM     13  C   UNL     1     -35.567  25.815   5.265  0.00  0.00    +0.359 C 
BRANCH  13  14
ATOM     14  O   UNL     1     -36.899  26.059   5.182  0.00  0.00    -0.478 OA
ATOM     15  H   UNL     1     -37.319  26.590   5.829  0.00  0.00    +0.295 HD
ENDBRANCH  13  14
ENDBRANCH  11  13
ENDBRANCH  10  11
ENDBRANCH   7  10
ENDBRANCH   1   4
BRANCH   1  16
ATOM     16  C   UNL     1     -37.442  19.797  -0.325  0.00  0.00    +0.081 C 
BRANCH  16  17
ATOM     17  C   UNL     1     -37.421  18.282  -0.184  0.00  0.00    +0.103 C 
BRANCH  17  18
ATOM     18  N   UNL     1     -36.108  17.818   0.318  0.00  0.00    -0.178 NA
ATOM     19  H   UNL     1     -35.488  18.628   0.310  0.00  0.00    +0.149 HD
BRANCH  18  20
ATOM     20  S   UNL     1     -35.290  16.564  -0.486  0.00  0.00    +0.060 S 
ATOM     21  O   UNL     1     -35.414  16.749  -1.919  0.00  0.00    -0.153 OA
ATOM     22  O   UNL     1     -35.658  15.300   0.122  0.00  0.00    -0.153 OA
BRANCH  20  24
ATOM     23 CL   UNL     1     -29.343  17.680   1.103  0.00  0.00    -0.082 Cl
ATOM     24  C   UNL     1     -33.609  16.880  -0.038  0.00  0.00    +0.122 C 
ATOM     25  C   UNL     1     -32.606  16.103  -0.588  0.00  0.00    +0.021 C 
ATOM     26  C   UNL     1     -33.329  17.899   0.856  0.00  0.00    +0.021 C 
ATOM     27  C   UNL     1     -31.280  16.350  -0.233  0.00  0.00    +0.013 C 
ATOM     28  C   UNL     1     -32.003  18.147   1.211  0.00  0.00    +0.013 C 
ATOM     29  C   UNL     1     -30.978  17.372   0.666  0.00  0.00    +0.058 C 
ENDBRANCH  20  24
ENDBRANCH  18  20
ENDBRANCH  17  18
ENDBRANCH  16  17
ENDBRANCH   1  16
TORSDOF 10
ENDMDL
MODEL 9
REMARK VINA RESULT:      -6.2      5.845      7.001
REMARK  Name = 192308
REMARK  10 active torsions:
REMARK  status: ('A' for Active; 'I' for Inactive)
REMARK    1  A    between atoms: S_1  and  C_4
REMARK    2  A    between atoms: S_1  and  C_16
REMARK    3  A    between atoms: C_7  and  O_10
REMARK    4  A    between atoms: O_10  and  C_11
REMARK    5  A    between atoms: C_11  and  C_13
REMARK    6  A    between atoms: C_13  and  O_14
REMARK    7  A    between atoms: C_16  and  C_17
REMARK    8  A    between atoms: C_17  and  N_18
REMARK    9  A    between atoms: N_18  and  S_20
REMARK   10  A    between atoms: S_20  and  C_24
REMARK                            x       y       z     vdW  Elec       q    Type
REMARK                         _______ _______ _______ _____ _____    ______ ____
ROOT
ATOM      1  S   UNL     1     -33.627  31.112   2.423  0.00  0.00    -0.112 S 
ENDROOT
BRANCH   1   4
ATOM      2  F   UNL     1     -31.748  30.036   7.063  0.00  0.00    -0.201 F 
ATOM      3  F   UNL     1     -30.268  27.377   3.425  0.00  0.00    -0.201 F 
ATOM      4  C   UNL     1     -32.599  30.167   3.530  0.00  0.00    +0.030 C 
ATOM      5  C   UNL     1     -31.820  29.120   3.037  0.00  0.00    +0.039 C 
ATOM      6  C   UNL     1     -32.575  30.474   4.891  0.00  0.00    +0.039 C 
ATOM      7  C   UNL     1     -30.991  28.689   5.265  0.00  0.00    +0.194 C 
ATOM      8  C   UNL     1     -31.770  29.735   5.758  0.00  0.00    +0.177 C 
ATOM      9  C   UNL     1     -31.016  28.380   3.905  0.00  0.00    +0.177 C 
BRANCH   7  10
ATOM     10  O   UNL     1     -30.204  27.968   6.111  0.00  0.00    -0.459 OA
BRANCH  10  11
ATOM     11  C   UNL     1     -28.856  28.405   6.274  0.00  0.00    +0.314 C 
BRANCH  11  13
ATOM     12  O   UNL     1     -28.111  26.222   7.036  0.00  0.00    -0.246 OA
ATOM     13  C   UNL     1     -28.110  27.438   7.151  0.00  0.00    +0.359 C 
BRANCH  13  14
ATOM     14  O   UNL     1     -27.422  28.110   8.108  0.00  0.00    -0.478 OA
ATOM     15  H   UNL     1     -27.227  29.019   7.994  0.00  0.00    +0.295 HD
ENDBRANCH  13  14
ENDBRANCH  11  13
ENDBRANCH  10  11
ENDBRANCH   7  10
ENDBRANCH   1   4
BRANCH   1  16
ATOM     16  C   UNL     1     -35.274  30.439   2.781  0.00  0.00    +0.081 C 
BRANCH  16  17
ATOM     17  C   UNL     1     -35.607  29.237   1.908  0.00  0.00    +0.103 C 
BRANCH  17  18
ATOM     18  N   UNL     1     -35.725  28.010   2.727  0.00  0.00    -0.178 NA
ATOM     19  H   UNL     1     -34.777  27.726   2.971  0.00  0.00    +0.149 HD
BRANCH  18  20
ATOM     20  S   UNL     1     -36.500  26.638   2.089  0.00  0.00    +0.060 S 
ATOM     21  O   UNL     1     -35.846  26.246   0.855  0.00  0.00    -0.153 OA
ATOM     22  O   UNL     1     -37.934  26.854   2.119  0.00  0.00    -0.153 OA
BRANCH  20  24
ATOM     23 CL   UNL     1     -35.213  22.305   6.414  0.00  0.00    -0.082 Cl
ATOM     24  C   UNL     1     -36.138  25.414   3.311  0.00  0.00    +0.122 C 
ATOM     25  C   UNL     1     -35.981  25.801   4.630  0.00  0.00    +0.021 C 
ATOM     26  C   UNL     1     -36.016  24.090   2.926  0.00  0.00    +0.021 C 
ATOM     27  C   UNL     1     -35.692  24.836   5.594  0.00  0.00    +0.013 C 
ATOM     28  C   UNL     1     -35.728  23.124   3.890  0.00  0.00    +0.013 C 
ATOM     29  C   UNL     1     -35.566  23.497   5.225  0.00  0.00    +0.058 C 
ENDBRANCH  20  24
ENDBRANCH  18  20
ENDBRANCH  17  18
ENDBRANCH  16  17
ENDBRANCH   1  16
TORSDOF 10
ENDMDL
