MODEL 1
REMARK VINA RESULT:      -7.0      0.000      0.000
REMARK  Name = 59716279
REMARK  9 active torsions:
REMARK  status: ('A' for Active; 'I' for Inactive)
REMARK    1  A    between atoms: N_1  and  C_14
REMARK    2  A    between atoms: C_9  and  C_30
REMARK    3  A    between atoms: C_11  and  C_17
REMARK    4  A    between atoms: C_12  and  O_22
REMARK    5  A    between atoms: C_13  and  O_24
REMARK    6  A    between atoms: N_16  and  C_19
REMARK    7  A    between atoms: C_29  and  C_31
REMARK    8  A    between atoms: C_31  and  C_34
REMARK    9  A    between atoms: C_39  and  O_40
REMARK                            x       y       z     vdW  Elec       q    Type
REMARK                         _______ _______ _______ _____ _____    ______ ____
ROOT
ATOM      1  N   UNL     1     -32.391  30.641   3.661  0.00  0.00    -0.236 N 
ATOM      2  N   UNL     1     -30.746  30.937   5.137  0.00  0.00    -0.240 NA
ATOM      3  N   UNL     1     -33.201  28.465   4.371  0.00  0.00    -0.316 NA
ATOM      4  N   UNL     1     -31.926  27.622   6.274  0.00  0.00    -0.317 NA
ATOM      5  C   UNL     1     -32.388  29.528   4.452  0.00  0.00    +0.221 C 
ATOM      6  C   UNL     1     -31.387  31.458   4.111  0.00  0.00    +0.224 C 
ATOM      7  C   UNL     1     -31.361  29.732   5.361  0.00  0.00    +0.167 C 
ATOM      8  C   UNL     1     -31.142  28.726   6.298  0.00  0.00    +0.211 C 
ATOM      9  C   UNL     1     -32.893  27.561   5.327  0.00  0.00    +0.188 C 
ATOM     10  N   UNL     1     -30.122  28.848   7.257  0.00  0.00    -0.331 N 
ATOM     11  H   UNL     1     -29.977  28.131   7.914  0.00  0.00    +0.145 HD
ATOM     12  H   UNL     1     -29.554  29.652   7.271  0.00  0.00    +0.145 HD
ENDROOT
BRANCH   1  17
ATOM     13  O   UNL     1     -32.807  32.005   1.695  0.00  0.00    -0.326 OA
ATOM     14  C   UNL     1     -33.901  32.825   1.261  0.00  0.00    +0.222 C 
ATOM     15  C   UNL     1     -35.182  32.169   1.746  0.00  0.00    +0.178 C 
ATOM     16  C   UNL     1     -34.706  31.376   2.948  0.00  0.00    +0.187 C 
ATOM     17  C   UNL     1     -33.318  30.929   2.506  0.00  0.00    +0.226 C 
BRANCH  14  20
ATOM     18  O   UNL     1     -34.549  35.040   1.864  0.00  0.00    -0.272 OA
ATOM     19  N   UNL     1     -32.404  34.316   2.390  0.00  0.00    -0.304 N 
ATOM     20  C   UNL     1     -33.679  34.173   1.869  0.00  0.00    +0.252 C 
ATOM     21  H   UNL     1     -31.784  33.553   2.341  0.00  0.00    +0.149 HD
BRANCH  19  22
ATOM     22  C   UNL     1     -31.953  35.533   2.999  0.00  0.00    +0.072 C 
ATOM     23  C   UNL     1     -31.478  36.689   2.168  0.00  0.00    +0.021 C 
ATOM     24  C   UNL     1     -30.500  35.910   2.998  0.00  0.00    +0.021 C 
ENDBRANCH  19  22
ENDBRANCH  14  20
BRANCH  15  25
ATOM     25  O   UNL     1     -35.661  31.288   0.734  0.00  0.00    -0.379 OA
ATOM     26  H   UNL     1     -34.911  30.934   0.233  0.00  0.00    +0.211 HD
ENDBRANCH  15  25
BRANCH  16  27
ATOM     27  O   UNL     1     -35.544  30.278   3.253  0.00  0.00    -0.378 OA
ATOM     28  H   UNL     1     -36.461  30.500   3.027  0.00  0.00    +0.211 HD
ENDBRANCH  16  27
ENDBRANCH   1  17
BRANCH   9  30
ATOM     29  C   UNL     1     -34.372  25.384   5.353  0.00  0.00    -0.074 C 
ATOM     30  C   UNL     1     -33.696  26.377   5.341  0.00  0.00    +0.032 C 
BRANCH  29  31
ATOM     31  C   UNL     1     -35.193  24.171   5.361  0.00  0.00    +0.077 C 
BRANCH  31  34
ATOM     32  O   UNL     1     -39.824  21.590   2.092  0.00  0.00    -0.226 OA
ATOM     33  N   UNL     1     -38.263  23.267   2.488  0.00  0.00    -0.246 N 
ATOM     34  C   UNL     1     -35.924  23.997   4.032  0.00  0.00    +0.016 C 
ATOM     35  C   UNL     1     -37.163  24.903   3.966  0.00  0.00    +0.023 C 
ATOM     36  C   UNL     1     -36.327  22.529   3.819  0.00  0.00    +0.023 C 
ATOM     37  C   UNL     1     -37.120  22.356   2.526  0.00  0.00    +0.097 C 
ATOM     38  C   UNL     1     -37.942  24.685   2.670  0.00  0.00    +0.097 C 
ATOM     39  C   UNL     1     -39.551  22.779   2.245  0.00  0.00    +0.405 C 
BRANCH  39  40
ATOM     40  O   UNL     1     -40.491  23.775   2.196  0.00  0.00    -0.430 OA
ATOM     41  C   UNL     1     -41.009  24.089   0.898  0.00  0.00    +0.257 C 
ENDBRANCH  39  40
ENDBRANCH  31  34
ENDBRANCH  29  31
ENDBRANCH   9  30
TORSDOF 9
ENDMDL
MODEL 2
REMARK VINA RESULT:      -6.9      4.648      9.646
REMARK  Name = 59716279
REMARK  9 active torsions:
REMARK  status: ('A' for Active; 'I' for Inactive)
REMARK    1  A    between atoms: N_1  and  C_14
REMARK    2  A    between atoms: C_9  and  C_30
REMARK    3  A    between atoms: C_11  and  C_17
REMARK    4  A    between atoms: C_12  and  O_22
REMARK    5  A    between atoms: C_13  and  O_24
REMARK    6  A    between atoms: N_16  and  C_19
REMARK    7  A    between atoms: C_29  and  C_31
REMARK    8  A    between atoms: C_31  and  C_34
REMARK    9  A    between atoms: C_39  and  O_40
REMARK                            x       y       z     vdW  Elec       q    Type
REMARK                         _______ _______ _______ _____ _____    ______ ____
ROOT
ATOM      1  N   UNL     1     -37.973  20.477  -0.324  0.00  0.00    -0.236 N 
ATOM      2  N   UNL     1     -36.591  18.855  -0.982  0.00  0.00    -0.240 NA
ATOM      3  N   UNL     1     -36.882  21.142   1.740  0.00  0.00    -0.316 NA
ATOM      4  N   UNL     1     -34.874  19.815   2.150  0.00  0.00    -0.317 NA
ATOM      5  C   UNL     1     -36.999  20.401   0.629  0.00  0.00    +0.221 C 
ATOM      6  C   UNL     1     -37.686  19.529  -1.271  0.00  0.00    +0.224 C 
ATOM      7  C   UNL     1     -36.152  19.390   0.202  0.00  0.00    +0.167 C 
ATOM      8  C   UNL     1     -35.055  19.106   1.010  0.00  0.00    +0.211 C 
ATOM      9  C   UNL     1     -35.785  20.775   2.440  0.00  0.00    +0.188 C 
ATOM     10  N   UNL     1     -34.143  18.096   0.654  0.00  0.00    -0.331 N 
ATOM     11  H   UNL     1     -33.372  17.904   1.234  0.00  0.00    +0.145 HD
ATOM     12  H   UNL     1     -34.278  17.582  -0.174  0.00  0.00    +0.145 HD
ENDROOT
BRANCH   1  17
ATOM     13  O   UNL     1     -38.811  22.649  -1.016  0.00  0.00    -0.326 OA
ATOM     14  C   UNL     1     -39.432  23.746  -0.329  0.00  0.00    +0.222 C 
ATOM     15  C   UNL     1     -40.290  23.162   0.780  0.00  0.00    +0.178 C 
ATOM     16  C   UNL     1     -39.612  21.832   1.049  0.00  0.00    +0.187 C 
ATOM     17  C   UNL     1     -39.151  21.421  -0.343  0.00  0.00    +0.226 C 
BRANCH  14  20
ATOM     18  O   UNL     1     -38.527  25.647   0.791  0.00  0.00    -0.272 OA
ATOM     19  N   UNL     1     -37.070  24.072  -0.102  0.00  0.00    -0.304 N 
ATOM     20  C   UNL     1     -38.317  24.595   0.193  0.00  0.00    +0.252 C 
ATOM     21  H   UNL     1     -37.016  23.217  -0.587  0.00  0.00    +0.149 HD
BRANCH  19  22
ATOM     22  C   UNL     1     -35.851  24.728   0.274  0.00  0.00    +0.072 C 
ATOM     23  C   UNL     1     -34.525  24.272  -0.260  0.00  0.00    +0.021 C 
ATOM     24  C   UNL     1     -34.862  24.065   1.187  0.00  0.00    +0.021 C 
ENDBRANCH  19  22
ENDBRANCH  14  20
BRANCH  15  25
ATOM     25  O   UNL     1     -41.608  22.949   0.280  0.00  0.00    -0.379 OA
ATOM     26  H   UNL     1     -41.710  22.019   0.024  0.00  0.00    +0.211 HD
ENDBRANCH  15  25
BRANCH  16  27
ATOM     27  O   UNL     1     -40.480  20.875   1.624  0.00  0.00    -0.378 OA
ATOM     28  H   UNL     1     -41.111  21.323   2.210  0.00  0.00    +0.211 HD
ENDBRANCH  16  27
ENDBRANCH   1  17
BRANCH   9  30
ATOM     29  C   UNL     1     -35.359  22.108   4.669  0.00  0.00    -0.074 C 
ATOM     30  C   UNL     1     -35.554  21.500   3.652  0.00  0.00    +0.032 C 
BRANCH  29  31
ATOM     31  C   UNL     1     -35.128  22.849   5.912  0.00  0.00    +0.077 C 
BRANCH  31  34
ATOM     32  O   UNL     1     -34.034  27.591   2.025  0.00  0.00    -0.226 OA
ATOM     33  N   UNL     1     -35.085  26.630   3.863  0.00  0.00    -0.246 N 
ATOM     34  C   UNL     1     -35.093  24.354   5.653  0.00  0.00    +0.016 C 
ATOM     35  C   UNL     1     -36.366  24.814   4.926  0.00  0.00    +0.023 C 
ATOM     36  C   UNL     1     -33.848  24.738   4.839  0.00  0.00    +0.023 C 
ATOM     37  C   UNL     1     -33.838  26.230   4.514  0.00  0.00    +0.097 C 
ATOM     38  C   UNL     1     -36.310  26.304   4.598  0.00  0.00    +0.097 C 
ATOM     39  C   UNL     1     -35.060  27.316   2.645  0.00  0.00    +0.405 C 
BRANCH  39  40
ATOM     40  O   UNL     1     -36.312  27.655   2.204  0.00  0.00    -0.430 OA
ATOM     41  C   UNL     1     -36.368  28.591   1.121  0.00  0.00    +0.257 C 
ENDBRANCH  39  40
ENDBRANCH  31  34
ENDBRANCH  29  31
ENDBRANCH   9  30
TORSDOF 9
ENDMDL
MODEL 3
REMARK VINA RESULT:      -6.9      1.717      2.162
REMARK  Name = 59716279
REMARK  9 active torsions:
REMARK  status: ('A' for Active; 'I' for Inactive)
REMARK    1  A    between atoms: N_1  and  C_14
REMARK    2  A    between atoms: C_9  and  C_30
REMARK    3  A    between atoms: C_11  and  C_17
REMARK    4  A    between atoms: C_12  and  O_22
REMARK    5  A    between atoms: C_13  and  O_24
REMARK    6  A    between atoms: N_16  and  C_19
REMARK    7  A    between atoms: C_29  and  C_31
REMARK    8  A    between atoms: C_31  and  C_34
REMARK    9  A    between atoms: C_39  and  O_40
REMARK                            x       y       z     vdW  Elec       q    Type
REMARK                         _______ _______ _______ _____ _____    ______ ____
ROOT
ATOM      1  N   UNL     1     -33.074  30.399   3.146  0.00  0.00    -0.236 N 
ATOM      2  N   UNL     1     -31.698  31.016   4.790  0.00  0.00    -0.240 NA
ATOM      3  N   UNL     1     -33.625  28.152   3.885  0.00  0.00    -0.316 NA
ATOM      4  N   UNL     1     -32.492  27.604   5.977  0.00  0.00    -0.317 NA
ATOM      5  C   UNL     1     -33.002  29.334   3.999  0.00  0.00    +0.221 C 
ATOM      6  C   UNL     1     -32.274  31.384   3.664  0.00  0.00    +0.224 C 
ATOM      7  C   UNL     1     -32.144  29.737   5.011  0.00  0.00    +0.167 C 
ATOM      8  C   UNL     1     -31.896  28.819   6.027  0.00  0.00    +0.211 C 
ATOM      9  C   UNL     1     -33.307  27.349   4.924  0.00  0.00    +0.188 C 
ATOM     10  N   UNL     1     -31.040  29.143   7.093  0.00  0.00    -0.331 N 
ATOM     11  H   UNL     1     -30.872  28.485   7.806  0.00  0.00    +0.145 HD
ATOM     12  H   UNL     1     -30.608  30.027   7.127  0.00  0.00    +0.145 HD
ENDROOT
BRANCH   1  17
ATOM     13  O   UNL     1     -33.554  31.688   1.145  0.00  0.00    -0.326 OA
ATOM     14  C   UNL     1     -34.753  32.219   0.562  0.00  0.00    +0.222 C 
ATOM     15  C   UNL     1     -35.876  31.241   0.859  0.00  0.00    +0.178 C 
ATOM     16  C   UNL     1     -35.380  30.548   2.114  0.00  0.00    +0.187 C 
ATOM     17  C   UNL     1     -33.877  30.487   1.872  0.00  0.00    +0.226 C 
BRANCH  14  20
ATOM     18  O   UNL     1     -34.100  34.103   1.871  0.00  0.00    -0.272 OA
ATOM     19  N   UNL     1     -36.239  34.054   0.964  0.00  0.00    -0.304 N 
ATOM     20  C   UNL     1     -34.970  33.554   1.199  0.00  0.00    +0.252 C 
ATOM     21  H   UNL     1     -36.860  33.530   0.408  0.00  0.00    +0.149 HD
BRANCH  19  22
ATOM     22  C   UNL     1     -36.685  35.308   1.500  0.00  0.00    +0.072 C 
ATOM     23  C   UNL     1     -38.140  35.571   1.756  0.00  0.00    +0.021 C 
ATOM     24  C   UNL     1     -37.430  36.295   0.650  0.00  0.00    +0.021 C 
ENDBRANCH  19  22
ENDBRANCH  14  20
BRANCH  15  25
ATOM     25  O   UNL     1     -35.969  30.307  -0.214  0.00  0.00    -0.379 OA
ATOM     26  H   UNL     1     -36.665  30.588  -0.828  0.00  0.00    +0.211 HD
ENDBRANCH  15  25
BRANCH  16  27
ATOM     27  O   UNL     1     -35.941  29.263   2.294  0.00  0.00    -0.378 OA
ATOM     28  H   UNL     1     -35.686  28.692   1.551  0.00  0.00    +0.211 HD
ENDBRANCH  16  27
ENDBRANCH   1  17
BRANCH   9  30
ATOM     29  C   UNL     1     -34.425  24.967   4.905  0.00  0.00    -0.074 C 
ATOM     30  C   UNL     1     -33.914  26.054   4.913  0.00  0.00    +0.032 C 
BRANCH  29  31
ATOM     31  C   UNL     1     -35.044  23.639   4.888  0.00  0.00    +0.077 C 
BRANCH  31  34
ATOM     32  O   UNL     1     -39.932  21.154   1.934  0.00  0.00    -0.226 OA
ATOM     33  N   UNL     1     -38.245  22.738   2.161  0.00  0.00    -0.246 N 
ATOM     34  C   UNL     1     -35.820  23.414   3.592  0.00  0.00    +0.016 C 
ATOM     35  C   UNL     1     -36.993  24.401   3.479  0.00  0.00    +0.023 C 
ATOM     36  C   UNL     1     -36.332  21.968   3.507  0.00  0.00    +0.023 C 
ATOM     37  C   UNL     1     -37.169  21.751   2.248  0.00  0.00    +0.097 C 
ATOM     38  C   UNL     1     -37.819  24.139   2.222  0.00  0.00    +0.097 C 
ATOM     39  C   UNL     1     -39.570  22.328   1.985  0.00  0.00    +0.405 C 
BRANCH  39  40
ATOM     40  O   UNL     1     -40.438  23.383   1.876  0.00  0.00    -0.430 OA
ATOM     41  C   UNL     1     -40.969  23.629   0.568  0.00  0.00    +0.257 C 
ENDBRANCH  39  40
ENDBRANCH  31  34
ENDBRANCH  29  31
ENDBRANCH   9  30
TORSDOF 9
ENDMDL
MODEL 4
REMARK VINA RESULT:      -6.8      2.429      3.058
REMARK  Name = 59716279
REMARK  9 active torsions:
REMARK  status: ('A' for Active; 'I' for Inactive)
REMARK    1  A    between atoms: N_1  and  C_14
REMARK    2  A    between atoms: C_9  and  C_30
REMARK    3  A    between atoms: C_11  and  C_17
REMARK    4  A    between atoms: C_12  and  O_22
REMARK    5  A    between atoms: C_13  and  O_24
REMARK    6  A    between atoms: N_16  and  C_19
REMARK    7  A    between atoms: C_29  and  C_31
REMARK    8  A    between atoms: C_31  and  C_34
REMARK    9  A    between atoms: C_39  and  O_40
REMARK                            x       y       z     vdW  Elec       q    Type
REMARK                         _______ _______ _______ _____ _____    ______ ____
ROOT
ATOM      1  N   UNL     1     -32.954  30.013   3.185  0.00  0.00    -0.236 N 
ATOM      2  N   UNL     1     -31.489  30.667   4.734  0.00  0.00    -0.240 NA
ATOM      3  N   UNL     1     -33.641  27.885   4.134  0.00  0.00    -0.316 NA
ATOM      4  N   UNL     1     -32.488  27.439   6.238  0.00  0.00    -0.317 NA
ATOM      5  C   UNL     1     -32.932  29.024   4.127  0.00  0.00    +0.221 C 
ATOM      6  C   UNL     1     -32.071  30.977   3.594  0.00  0.00    +0.224 C 
ATOM      7  C   UNL     1     -32.018  29.449   5.078  0.00  0.00    +0.167 C 
ATOM      8  C   UNL     1     -31.806  28.607   6.166  0.00  0.00    +0.211 C 
ATOM      9  C   UNL     1     -33.350  27.155   5.232  0.00  0.00    +0.188 C 
ATOM     10  N   UNL     1     -30.897  28.958   7.179  0.00  0.00    -0.331 N 
ATOM     11  H   UNL     1     -30.754  28.355   7.943  0.00  0.00    +0.145 HD
ATOM     12  H   UNL     1     -30.402  29.808   7.123  0.00  0.00    +0.145 HD
ENDROOT
BRANCH   1  17
ATOM     13  O   UNL     1     -33.470  31.210   1.136  0.00  0.00    -0.326 OA
ATOM     14  C   UNL     1     -34.678  31.725   0.557  0.00  0.00    +0.222 C 
ATOM     15  C   UNL     1     -35.803  30.774   0.927  0.00  0.00    +0.178 C 
ATOM     16  C   UNL     1     -35.283  30.137   2.201  0.00  0.00    +0.187 C 
ATOM     17  C   UNL     1     -33.787  30.048   1.927  0.00  0.00    +0.226 C 
BRANCH  14  20
ATOM     18  O   UNL     1     -35.949  33.671   1.093  0.00  0.00    -0.272 OA
ATOM     19  N   UNL     1     -33.700  33.605   1.674  0.00  0.00    -0.304 N 
ATOM     20  C   UNL     1     -34.867  33.091   1.135  0.00  0.00    +0.252 C 
ATOM     21  H   UNL     1     -32.886  33.052   1.656  0.00  0.00    +0.149 HD
BRANCH  19  22
ATOM     22  C   UNL     1     -33.632  34.913   2.260  0.00  0.00    +0.072 C 
ATOM     23  C   UNL     1     -32.895  36.031   1.584  0.00  0.00    +0.021 C 
ATOM     24  C   UNL     1     -32.355  35.434   2.850  0.00  0.00    +0.021 C 
ENDBRANCH  19  22
ENDBRANCH  14  20
BRANCH  15  25
ATOM     25  O   UNL     1     -35.931  29.791  -0.097  0.00  0.00    -0.379 OA
ATOM     26  H   UNL     1     -35.397  29.015   0.132  0.00  0.00    +0.211 HD
ENDBRANCH  15  25
BRANCH  16  27
ATOM     27  O   UNL     1     -35.852  28.867   2.456  0.00  0.00    -0.378 OA
ATOM     28  H   UNL     1     -36.285  28.541   1.652  0.00  0.00    +0.211 HD
ENDBRANCH  16  27
ENDBRANCH   1  17
BRANCH   9  30
ATOM     29  C   UNL     1     -34.633  24.867   5.449  0.00  0.00    -0.074 C 
ATOM     30  C   UNL     1     -34.048  25.911   5.351  0.00  0.00    +0.032 C 
BRANCH  29  31
ATOM     31  C   UNL     1     -35.347  23.594   5.577  0.00  0.00    +0.077 C 
BRANCH  31  34
ATOM     32  O   UNL     1     -33.436  21.645  -0.022  0.00  0.00    -0.226 OA
ATOM     33  N   UNL     1     -34.923  21.647   1.766  0.00  0.00    -0.246 N 
ATOM     34  C   UNL     1     -35.680  23.013   4.204  0.00  0.00    +0.016 C 
ATOM     35  C   UNL     1     -35.422  21.499   4.174  0.00  0.00    +0.023 C 
ATOM     36  C   UNL     1     -34.867  23.713   3.104  0.00  0.00    +0.023 C 
ATOM     37  C   UNL     1     -35.139  23.093   1.736  0.00  0.00    +0.097 C 
ATOM     38  C   UNL     1     -35.683  20.919   2.785  0.00  0.00    +0.097 C 
ATOM     39  C   UNL     1     -34.076  21.038   0.835  0.00  0.00    +0.405 C 
BRANCH  39  40
ATOM     40  O   UNL     1     -34.028  19.676   0.978  0.00  0.00    -0.430 OA
ATOM     41  C   UNL     1     -32.729  19.078   0.892  0.00  0.00    +0.257 C 
ENDBRANCH  39  40
ENDBRANCH  31  34
ENDBRANCH  29  31
ENDBRANCH   9  30
TORSDOF 9
ENDMDL
MODEL 5
REMARK VINA RESULT:      -6.8      5.083      9.631
REMARK  Name = 59716279
REMARK  9 active torsions:
REMARK  status: ('A' for Active; 'I' for Inactive)
REMARK    1  A    between atoms: N_1  and  C_14
REMARK    2  A    between atoms: C_9  and  C_30
REMARK    3  A    between atoms: C_11  and  C_17
REMARK    4  A    between atoms: C_12  and  O_22
REMARK    5  A    between atoms: C_13  and  O_24
REMARK    6  A    between atoms: N_16  and  C_19
REMARK    7  A    between atoms: C_29  and  C_31
REMARK    8  A    between atoms: C_31  and  C_34
REMARK    9  A    between atoms: C_39  and  O_40
REMARK                            x       y       z     vdW  Elec       q    Type
REMARK                         _______ _______ _______ _____ _____    ______ ____
ROOT
ATOM      1  N   UNL     1     -37.084  22.975   1.947  0.00  0.00    -0.236 N 
ATOM      2  N   UNL     1     -36.640  22.772  -0.229  0.00  0.00    -0.240 NA
ATOM      3  N   UNL     1     -39.292  23.979   1.830  0.00  0.00    -0.316 NA
ATOM      4  N   UNL     1     -40.000  24.299  -0.484  0.00  0.00    -0.317 NA
ATOM      5  C   UNL     1     -38.175  23.471   1.291  0.00  0.00    +0.221 C 
ATOM      6  C   UNL     1     -36.190  22.569   0.992  0.00  0.00    +0.224 C 
ATOM      7  C   UNL     1     -37.880  23.335  -0.056  0.00  0.00    +0.167 C 
ATOM      8  C   UNL     1     -38.845  23.773  -0.958  0.00  0.00    +0.211 C 
ATOM      9  C   UNL     1     -40.150  24.368   0.861  0.00  0.00    +0.188 C 
ATOM     10  N   UNL     1     -38.631  23.674  -2.344  0.00  0.00    -0.331 N 
ATOM     11  H   UNL     1     -39.320  23.987  -2.972  0.00  0.00    +0.145 HD
ATOM     12  H   UNL     1     -37.790  23.291  -2.685  0.00  0.00    +0.145 HD
ENDROOT
BRANCH   1  17
ATOM     13  O   UNL     1     -36.824  24.204   4.027  0.00  0.00    -0.326 OA
ATOM     14  C   UNL     1     -35.839  24.203   5.071  0.00  0.00    +0.222 C 
ATOM     15  C   UNL     1     -35.327  22.780   5.214  0.00  0.00    +0.178 C 
ATOM     16  C   UNL     1     -35.587  22.202   3.836  0.00  0.00    +0.187 C 
ATOM     17  C   UNL     1     -36.888  22.888   3.441  0.00  0.00    +0.226 C 
BRANCH  14  20
ATOM     18  O   UNL     1     -33.589  24.977   4.911  0.00  0.00    -0.272 OA
ATOM     19  N   UNL     1     -35.281  26.241   3.942  0.00  0.00    -0.304 N 
ATOM     20  C   UNL     1     -34.773  25.157   4.638  0.00  0.00    +0.252 C 
ATOM     21  H   UNL     1     -36.251  26.286   3.777  0.00  0.00    +0.149 HD
BRANCH  19  22
ATOM     22  C   UNL     1     -34.449  27.301   3.452  0.00  0.00    +0.072 C 
ATOM     23  C   UNL     1     -35.035  28.480   2.731  0.00  0.00    +0.021 C 
ATOM     24  C   UNL     1     -34.204  27.480   1.982  0.00  0.00    +0.021 C 
ENDBRANCH  19  22
ENDBRANCH  14  20
BRANCH  15  25
ATOM     25  O   UNL     1     -36.116  22.102   6.188  0.00  0.00    -0.379 OA
ATOM     26  H   UNL     1     -35.743  22.258   7.070  0.00  0.00    +0.211 HD
ENDBRANCH  15  25
BRANCH  16  27
ATOM     27  O   UNL     1     -35.711  20.793   3.842  0.00  0.00    -0.378 OA
ATOM     28  H   UNL     1     -35.700  20.472   4.758  0.00  0.00    +0.211 HD
ENDBRANCH  16  27
ENDBRANCH   1  17
BRANCH   9  30
ATOM     29  C   UNL     1     -42.420  25.402   1.700  0.00  0.00    -0.074 C 
ATOM     30  C   UNL     1     -41.384  24.930   1.316  0.00  0.00    +0.032 C 
BRANCH  29  31
ATOM     31  C   UNL     1     -43.686  25.978   2.160  0.00  0.00    +0.077 C 
BRANCH  31  34
ATOM     32  O   UNL     1     -45.400  30.649   5.906  0.00  0.00    -0.226 OA
ATOM     33  N   UNL     1     -43.841  29.507   4.613  0.00  0.00    -0.246 N 
ATOM     34  C   UNL     1     -43.490  27.413   2.644  0.00  0.00    +0.016 C 
ATOM     35  C   UNL     1     -42.671  27.445   3.944  0.00  0.00    +0.023 C 
ATOM     36  C   UNL     1     -44.844  28.109   2.851  0.00  0.00    +0.023 C 
ATOM     37  C   UNL     1     -44.661  29.521   3.402  0.00  0.00    +0.097 C 
ATOM     38  C   UNL     1     -42.529  28.869   4.476  0.00  0.00    +0.097 C 
ATOM     39  C   UNL     1     -44.300  30.113   5.787  0.00  0.00    +0.405 C 
BRANCH  39  40
ATOM     40  O   UNL     1     -43.386  30.048   6.806  0.00  0.00    -0.430 OA
ATOM     41  C   UNL     1     -43.907  30.202   8.131  0.00  0.00    +0.257 C 
ENDBRANCH  39  40
ENDBRANCH  31  34
ENDBRANCH  29  31
ENDBRANCH   9  30
TORSDOF 9
ENDMDL
MODEL 6
REMARK VINA RESULT:      -6.8      1.566      1.977
REMARK  Name = 59716279
REMARK  9 active torsions:
REMARK  status: ('A' for Active; 'I' for Inactive)
REMARK    1  A    between atoms: N_1  and  C_14
REMARK    2  A    between atoms: C_9  and  C_30
REMARK    3  A    between atoms: C_11  and  C_17
REMARK    4  A    between atoms: C_12  and  O_22
REMARK    5  A    between atoms: C_13  and  O_24
REMARK    6  A    between atoms: N_16  and  C_19
REMARK    7  A    between atoms: C_29  and  C_31
REMARK    8  A    between atoms: C_31  and  C_34
REMARK    9  A    between atoms: C_39  and  O_40
REMARK                            x       y       z     vdW  Elec       q    Type
REMARK                         _______ _______ _______ _____ _____    ______ ____
ROOT
ATOM      1  N   UNL     1     -32.405  30.695   3.718  0.00  0.00    -0.236 N 
ATOM      2  N   UNL     1     -30.775  31.080   5.190  0.00  0.00    -0.240 NA
ATOM      3  N   UNL     1     -33.126  28.498   4.460  0.00  0.00    -0.316 NA
ATOM      4  N   UNL     1     -31.819  27.735   6.375  0.00  0.00    -0.317 NA
ATOM      5  C   UNL     1     -32.357  29.594   4.525  0.00  0.00    +0.221 C 
ATOM      6  C   UNL     1     -31.436  31.559   4.157  0.00  0.00    +0.224 C 
ATOM      7  C   UNL     1     -31.340  29.853   5.431  0.00  0.00    +0.167 C 
ATOM      8  C   UNL     1     -31.081  28.871   6.382  0.00  0.00    +0.211 C 
ATOM      9  C   UNL     1     -32.781  27.621   5.428  0.00  0.00    +0.188 C 
ATOM     10  N   UNL     1     -30.067  29.049   7.340  0.00  0.00    -0.331 N 
ATOM     11  H   UNL     1     -29.893  28.347   8.007  0.00  0.00    +0.145 HD
ATOM     12  H   UNL     1     -29.532  29.876   7.342  0.00  0.00    +0.145 HD
ENDROOT
BRANCH   1  17
ATOM     13  O   UNL     1     -32.878  32.016   1.735  0.00  0.00    -0.326 OA
ATOM     14  C   UNL     1     -34.008  32.781   1.291  0.00  0.00    +0.222 C 
ATOM     15  C   UNL     1     -35.259  32.075   1.783  0.00  0.00    +0.178 C 
ATOM     16  C   UNL     1     -34.749  31.317   2.994  0.00  0.00    +0.187 C 
ATOM     17  C   UNL     1     -33.343  30.928   2.559  0.00  0.00    +0.226 C 
BRANCH  14  20
ATOM     18  O   UNL     1     -34.756  34.970   1.871  0.00  0.00    -0.272 OA
ATOM     19  N   UNL     1     -32.579  34.352   2.399  0.00  0.00    -0.304 N 
ATOM     20  C   UNL     1     -33.846  34.144   1.883  0.00  0.00    +0.252 C 
ATOM     21  H   UNL     1     -31.924  33.618   2.357  0.00  0.00    +0.149 HD
BRANCH  19  22
ATOM     22  C   UNL     1     -32.183  35.596   2.993  0.00  0.00    +0.072 C 
ATOM     23  C   UNL     1     -31.764  36.763   2.148  0.00  0.00    +0.021 C 
ATOM     24  C   UNL     1     -30.749  36.040   2.984  0.00  0.00    +0.021 C 
ENDBRANCH  19  22
ENDBRANCH  14  20
BRANCH  15  25
ATOM     25  O   UNL     1     -35.697  31.161   0.780  0.00  0.00    -0.379 OA
ATOM     26  H   UNL     1     -35.364  30.274   0.985  0.00  0.00    +0.211 HD
ENDBRANCH  15  25
BRANCH  16  27
ATOM     27  O   UNL     1     -35.538  30.187   3.311  0.00  0.00    -0.378 OA
ATOM     28  H   UNL     1     -34.959  29.434   3.509  0.00  0.00    +0.211 HD
ENDBRANCH  16  27
ENDBRANCH   1  17
BRANCH   9  30
ATOM     29  C   UNL     1     -34.169  25.386   5.483  0.00  0.00    -0.074 C 
ATOM     30  C   UNL     1     -33.536  26.405   5.459  0.00  0.00    +0.032 C 
BRANCH  29  31
ATOM     31  C   UNL     1     -34.938  24.138   5.519  0.00  0.00    +0.077 C 
BRANCH  31  34
ATOM     32  O   UNL     1     -38.557  27.109   1.411  0.00  0.00    -0.226 OA
ATOM     33  N   UNL     1     -37.298  25.283   2.111  0.00  0.00    -0.246 N 
ATOM     34  C   UNL     1     -35.939  24.080   4.367  0.00  0.00    +0.016 C 
ATOM     35  C   UNL     1     -35.234  24.290   3.018  0.00  0.00    +0.023 C 
ATOM     36  C   UNL     1     -37.049  25.126   4.556  0.00  0.00    +0.023 C 
ATOM     37  C   UNL     1     -38.017  25.124   3.375  0.00  0.00    +0.097 C 
ATOM     38  C   UNL     1     -36.235  24.305   1.865  0.00  0.00    +0.097 C 
ATOM     39  C   UNL     1     -37.666  26.286   1.209  0.00  0.00    +0.405 C 
BRANCH  39  40
ATOM     40  O   UNL     1     -36.921  26.260   0.059  0.00  0.00    -0.430 OA
ATOM     41  C   UNL     1     -36.160  27.439  -0.227  0.00  0.00    +0.257 C 
ENDBRANCH  39  40
ENDBRANCH  31  34
ENDBRANCH  29  31
ENDBRANCH   9  30
TORSDOF 9
ENDMDL
MODEL 7
REMARK VINA RESULT:      -6.8      5.854      9.467
REMARK  Name = 59716279
REMARK  9 active torsions:
REMARK  status: ('A' for Active; 'I' for Inactive)
REMARK    1  A    between atoms: N_1  and  C_14
REMARK    2  A    between atoms: C_9  and  C_30
REMARK    3  A    between atoms: C_11  and  C_17
REMARK    4  A    between atoms: C_12  and  O_22
REMARK    5  A    between atoms: C_13  and  O_24
REMARK    6  A    between atoms: N_16  and  C_19
REMARK    7  A    between atoms: C_29  and  C_31
REMARK    8  A    between atoms: C_31  and  C_34
REMARK    9  A    between atoms: C_39  and  O_40
REMARK                            x       y       z     vdW  Elec       q    Type
REMARK                         _______ _______ _______ _____ _____    ______ ____
ROOT
ATOM      1  N   UNL     1     -37.449  24.609   3.406  0.00  0.00    -0.236 N 
ATOM      2  N   UNL     1     -39.524  23.968   2.896  0.00  0.00    -0.240 NA
ATOM      3  N   UNL     1     -36.221  22.632   2.715  0.00  0.00    -0.316 NA
ATOM      4  N   UNL     1     -37.719  20.924   1.823  0.00  0.00    -0.317 NA
ATOM      5  C   UNL     1     -37.340  23.350   2.888  0.00  0.00    +0.221 C 
ATOM      6  C   UNL     1     -38.780  24.937   3.390  0.00  0.00    +0.224 C 
ATOM      7  C   UNL     1     -38.637  22.971   2.578  0.00  0.00    +0.167 C 
ATOM      8  C   UNL     1     -38.807  21.706   2.025  0.00  0.00    +0.211 C 
ATOM      9  C   UNL     1     -36.512  21.428   2.174  0.00  0.00    +0.188 C 
ATOM     10  N   UNL     1     -40.087  21.239   1.680  0.00  0.00    -0.331 N 
ATOM     11  H   UNL     1     -40.195  20.342   1.290  0.00  0.00    +0.145 HD
ATOM     12  H   UNL     1     -40.875  21.810   1.829  0.00  0.00    +0.145 HD
ENDROOT
BRANCH   1  17
ATOM     13  O   UNL     1     -35.704  26.191   2.813  0.00  0.00    -0.326 OA
ATOM     14  C   UNL     1     -34.288  26.248   3.039  0.00  0.00    +0.222 C 
ATOM     15  C   UNL     1     -34.018  25.626   4.398  0.00  0.00    +0.178 C 
ATOM     16  C   UNL     1     -35.205  24.699   4.573  0.00  0.00    +0.187 C 
ATOM     17  C   UNL     1     -36.326  25.484   3.905  0.00  0.00    +0.226 C 
BRANCH  14  20
ATOM     18  O   UNL     1     -32.447  25.511   1.713  0.00  0.00    -0.272 OA
ATOM     19  N   UNL     1     -34.586  24.787   1.164  0.00  0.00    -0.304 N 
ATOM     20  C   UNL     1     -33.658  25.481   1.920  0.00  0.00    +0.252 C 
ATOM     21  H   UNL     1     -35.536  24.832   1.420  0.00  0.00    +0.149 HD
BRANCH  19  22
ATOM     22  C   UNL     1     -34.217  24.003   0.020  0.00  0.00    +0.072 C 
ATOM     23  C   UNL     1     -34.466  24.497  -1.374  0.00  0.00    +0.021 C 
ATOM     24  C   UNL     1     -35.257  23.341  -0.835  0.00  0.00    +0.021 C 
ENDBRANCH  19  22
ENDBRANCH  14  20
BRANCH  15  25
ATOM     25  O   UNL     1     -34.046  26.652   5.387  0.00  0.00    -0.379 OA
ATOM     26  H   UNL     1     -34.512  27.427   5.036  0.00  0.00    +0.211 HD
ENDBRANCH  15  25
BRANCH  16  27
ATOM     27  O   UNL     1     -35.490  24.416   5.928  0.00  0.00    -0.378 OA
ATOM     28  H   UNL     1     -34.660  24.302   6.417  0.00  0.00    +0.211 HD
ENDBRANCH  16  27
ENDBRANCH   1  17
BRANCH   9  30
ATOM     29  C   UNL     1     -34.453  19.846   1.745  0.00  0.00    -0.074 C 
ATOM     30  C   UNL     1     -35.393  20.567   1.942  0.00  0.00    +0.032 C 
BRANCH  29  31
ATOM     31  C   UNL     1     -33.305  18.966   1.513  0.00  0.00    +0.077 C 
BRANCH  31  34
ATOM     32  O   UNL     1     -29.231  22.827  -1.188  0.00  0.00    -0.226 OA
ATOM     33  N   UNL     1     -30.332  20.787  -1.006  0.00  0.00    -0.246 N 
ATOM     34  C   UNL     1     -32.529  19.397   0.270  0.00  0.00    +0.016 C 
ATOM     35  C   UNL     1     -31.096  18.842   0.300  0.00  0.00    +0.023 C 
ATOM     36  C   UNL     1     -32.503  20.928   0.146  0.00  0.00    +0.023 C 
ATOM     37  C   UNL     1     -31.671  21.372  -1.054  0.00  0.00    +0.097 C 
ATOM     38  C   UNL     1     -30.288  19.326  -0.902  0.00  0.00    +0.097 C 
ATOM     39  C   UNL     1     -29.199  21.600  -1.101  0.00  0.00    +0.405 C 
BRANCH  39  40
ATOM     40  O   UNL     1     -28.031  20.883  -1.087  0.00  0.00    -0.430 OA
ATOM     41  C   UNL     1     -27.078  21.248  -0.082  0.00  0.00    +0.257 C 
ENDBRANCH  39  40
ENDBRANCH  31  34
ENDBRANCH  29  31
ENDBRANCH   9  30
TORSDOF 9
ENDMDL
MODEL 8
REMARK VINA RESULT:      -6.8      2.680      9.025
REMARK  Name = 59716279
REMARK  9 active torsions:
REMARK  status: ('A' for Active; 'I' for Inactive)
REMARK    1  A    between atoms: N_1  and  C_14
REMARK    2  A    between atoms: C_9  and  C_30
REMARK    3  A    between atoms: C_11  and  C_17
REMARK    4  A    between atoms: C_12  and  O_22
REMARK    5  A    between atoms: C_13  and  O_24
REMARK    6  A    between atoms: N_16  and  C_19
REMARK    7  A    between atoms: C_29  and  C_31
REMARK    8  A    between atoms: C_31  and  C_34
REMARK    9  A    between atoms: C_39  and  O_40
REMARK                            x       y       z     vdW  Elec       q    Type
REMARK                         _______ _______ _______ _____ _____    ______ ____
ROOT
ATOM      1  N   UNL     1     -34.741  26.461   4.535  0.00  0.00    -0.236 N 
ATOM      2  N   UNL     1     -33.284  26.240   6.209  0.00  0.00    -0.240 NA
ATOM      3  N   UNL     1     -33.922  28.518   3.538  0.00  0.00    -0.316 NA
ATOM      4  N   UNL     1     -31.981  29.376   4.743  0.00  0.00    -0.317 NA
ATOM      5  C   UNL     1     -33.896  27.529   4.443  0.00  0.00    +0.221 C 
ATOM      6  C   UNL     1     -34.334  25.716   5.611  0.00  0.00    +0.224 C 
ATOM      7  C   UNL     1     -33.000  27.373   5.489  0.00  0.00    +0.167 C 
ATOM      8  C   UNL     1     -32.014  28.346   5.623  0.00  0.00    +0.211 C 
ATOM      9  C   UNL     1     -32.923  29.397   3.769  0.00  0.00    +0.188 C 
ATOM     10  N   UNL     1     -31.063  28.269   6.655  0.00  0.00    -0.331 N 
ATOM     11  H   UNL     1     -30.371  28.963   6.740  0.00  0.00    +0.145 HD
ATOM     12  H   UNL     1     -31.090  27.519   7.293  0.00  0.00    +0.145 HD
ENDROOT
BRANCH   1  17
ATOM     13  O   UNL     1     -36.767  25.157   4.227  0.00  0.00    -0.326 OA
ATOM     14  C   UNL     1     -37.238  24.269   3.203  0.00  0.00    +0.222 C 
ATOM     15  C   UNL     1     -36.723  24.792   1.874  0.00  0.00    +0.178 C 
ATOM     16  C   UNL     1     -35.487  25.568   2.287  0.00  0.00    +0.187 C 
ATOM     17  C   UNL     1     -35.908  26.148   3.631  0.00  0.00    +0.226 C 
BRANCH  14  20
ATOM     18  O   UNL     1     -36.303  22.637   4.671  0.00  0.00    -0.272 OA
ATOM     19  N   UNL     1     -36.656  22.072   2.444  0.00  0.00    -0.304 N 
ATOM     20  C   UNL     1     -36.692  22.918   3.540  0.00  0.00    +0.252 C 
ATOM     21  H   UNL     1     -36.995  22.401   1.581  0.00  0.00    +0.149 HD
BRANCH  19  22
ATOM     22  C   UNL     1     -36.145  20.734   2.521  0.00  0.00    +0.072 C 
ATOM     23  C   UNL     1     -34.844  20.361   1.873  0.00  0.00    +0.021 C 
ATOM     24  C   UNL     1     -36.135  19.837   1.317  0.00  0.00    +0.021 C 
ENDBRANCH  19  22
ENDBRANCH  14  20
BRANCH  15  25
ATOM     25  O   UNL     1     -37.695  25.675   1.319  0.00  0.00    -0.379 OA
ATOM     26  H   UNL     1     -37.260  26.293   0.711  0.00  0.00    +0.211 HD
ENDBRANCH  15  25
BRANCH  16  27
ATOM     27  O   UNL     1     -35.133  26.577   1.361  0.00  0.00    -0.378 OA
ATOM     28  H   UNL     1     -35.186  27.444   1.793  0.00  0.00    +0.211 HD
ENDBRANCH  16  27
ENDBRANCH   1  17
BRANCH   9  30
ATOM     29  C   UNL     1     -32.785  31.429   2.102  0.00  0.00    -0.074 C 
ATOM     30  C   UNL     1     -32.849  30.502   2.863  0.00  0.00    +0.032 C 
BRANCH  29  31
ATOM     31  C   UNL     1     -32.716  32.559   1.173  0.00  0.00    +0.077 C 
BRANCH  31  34
ATOM     32  O   UNL     1     -38.906  31.974   1.529  0.00  0.00    -0.226 OA
ATOM     33  N   UNL     1     -36.973  33.125   0.944  0.00  0.00    -0.246 N 
ATOM     34  C   UNL     1     -34.101  32.912   0.636  0.00  0.00    +0.016 C 
ATOM     35  C   UNL     1     -34.743  34.031   1.471  0.00  0.00    +0.023 C 
ATOM     36  C   UNL     1     -35.011  31.674   0.618  0.00  0.00    +0.023 C 
ATOM     37  C   UNL     1     -36.420  32.029   0.150  0.00  0.00    +0.097 C 
ATOM     38  C   UNL     1     -36.157  34.343   0.988  0.00  0.00    +0.097 C 
ATOM     39  C   UNL     1     -38.219  32.994   1.563  0.00  0.00    +0.405 C 
BRANCH  39  40
ATOM     40  O   UNL     1     -38.604  34.131   2.223  0.00  0.00    -0.430 OA
ATOM     41  C   UNL     1     -39.909  34.632   1.911  0.00  0.00    +0.257 C 
ENDBRANCH  39  40
ENDBRANCH  31  34
ENDBRANCH  29  31
ENDBRANCH   9  30
TORSDOF 9
ENDMDL
MODEL 9
REMARK VINA RESULT:      -6.7      3.266      9.411
REMARK  Name = 59716279
REMARK  9 active torsions:
REMARK  status: ('A' for Active; 'I' for Inactive)
REMARK    1  A    between atoms: N_1  and  C_14
REMARK    2  A    between atoms: C_9  and  C_30
REMARK    3  A    between atoms: C_11  and  C_17
REMARK    4  A    between atoms: C_12  and  O_22
REMARK    5  A    between atoms: C_13  and  O_24
REMARK    6  A    between atoms: N_16  and  C_19
REMARK    7  A    between atoms: C_29  and  C_31
REMARK    8  A    between atoms: C_31  and  C_34
REMARK    9  A    between atoms: C_39  and  O_40
REMARK                            x       y       z     vdW  Elec       q    Type
REMARK                         _______ _______ _______ _____ _____    ______ ____
ROOT
ATOM      1  N   UNL     1     -35.332  26.074   3.571  0.00  0.00    -0.236 N 
ATOM      2  N   UNL     1     -33.204  25.412   3.669  0.00  0.00    -0.240 NA
ATOM      3  N   UNL     1     -35.016  28.403   2.958  0.00  0.00    -0.316 NA
ATOM      4  N   UNL     1     -32.647  28.948   2.736  0.00  0.00    -0.317 NA
ATOM      5  C   UNL     1     -34.580  27.172   3.261  0.00  0.00    +0.221 C 
ATOM      6  C   UNL     1     -34.461  25.043   3.808  0.00  0.00    +0.224 C 
ATOM      7  C   UNL     1     -33.264  26.740   3.327  0.00  0.00    +0.167 C 
ATOM      8  C   UNL     1     -32.279  27.682   3.049  0.00  0.00    +0.211 C 
ATOM      9  C   UNL     1     -33.973  29.225   2.710  0.00  0.00    +0.188 C 
ATOM     10  N   UNL     1     -30.918  27.333   3.092  0.00  0.00    -0.331 N 
ATOM     11  H   UNL     1     -30.230  28.008   2.894  0.00  0.00    +0.145 HD
ATOM     12  H   UNL     1     -30.654  26.412   3.321  0.00  0.00    +0.145 HD
ENDROOT
BRANCH   1  17
ATOM     13  O   UNL     1     -37.263  24.696   4.091  0.00  0.00    -0.326 OA
ATOM     14  C   UNL     1     -38.443  24.316   3.368  0.00  0.00    +0.222 C 
ATOM     15  C   UNL     1     -38.835  25.489   2.486  0.00  0.00    +0.178 C 
ATOM     16  C   UNL     1     -37.513  26.207   2.294  0.00  0.00    +0.187 C 
ATOM     17  C   UNL     1     -36.837  25.999   3.643  0.00  0.00    +0.226 C 
BRANCH  14  20
ATOM     18  O   UNL     1     -38.724  22.738   1.602  0.00  0.00    -0.272 OA
ATOM     19  N   UNL     1     -36.965  22.451   3.092  0.00  0.00    -0.304 N 
ATOM     20  C   UNL     1     -38.074  23.102   2.579  0.00  0.00    +0.252 C 
ATOM     21  H   UNL     1     -36.517  22.831   3.882  0.00  0.00    +0.149 HD
BRANCH  19  22
ATOM     22  C   UNL     1     -36.443  21.246   2.517  0.00  0.00    +0.072 C 
ATOM     23  C   UNL     1     -35.167  20.635   3.016  0.00  0.00    +0.021 C 
ATOM     24  C   UNL     1     -35.214  21.265   1.655  0.00  0.00    +0.021 C 
ENDBRANCH  19  22
ENDBRANCH  14  20
BRANCH  15  25
ATOM     25  O   UNL     1     -39.746  26.319   3.202  0.00  0.00    -0.379 OA
ATOM     26  H   UNL     1     -39.264  27.063   3.596  0.00  0.00    +0.211 HD
ENDBRANCH  15  25
BRANCH  16  27
ATOM     27  O   UNL     1     -37.669  27.578   1.986  0.00  0.00    -0.378 OA
ATOM     28  H   UNL     1     -38.441  27.930   2.458  0.00  0.00    +0.211 HD
ENDBRANCH  16  27
ENDBRANCH   1  17
BRANCH   9  30
ATOM     29  C   UNL     1     -34.603  31.704   2.090  0.00  0.00    -0.074 C 
ATOM     30  C   UNL     1     -34.315  30.573   2.374  0.00  0.00    +0.032 C 
BRANCH  29  31
ATOM     31  C   UNL     1     -34.952  33.086   1.752  0.00  0.00    +0.077 C 
BRANCH  31  34
ATOM     32  O   UNL     1     -41.104  34.031   1.979  0.00  0.00    -0.226 OA
ATOM     33  N   UNL     1     -39.060  34.007   0.872  0.00  0.00    -0.246 N 
ATOM     34  C   UNL     1     -36.298  33.150   1.034  0.00  0.00    +0.016 C 
ATOM     35  C   UNL     1     -36.675  34.603   0.706  0.00  0.00    +0.023 C 
ATOM     36  C   UNL     1     -37.400  32.494   1.881  0.00  0.00    +0.023 C 
ATOM     37  C   UNL     1     -38.763  32.614   1.204  0.00  0.00    +0.097 C 
ATOM     38  C   UNL     1     -38.052  34.686   0.052  0.00  0.00    +0.097 C 
ATOM     39  C   UNL     1     -40.257  34.596   1.290  0.00  0.00    +0.405 C 
BRANCH  39  40
ATOM     40  O   UNL     1     -40.391  35.887   0.851  0.00  0.00    -0.430 OA
ATOM     41  C   UNL     1     -41.532  36.157   0.028  0.00  0.00    +0.257 C 
ENDBRANCH  39  40
ENDBRANCH  31  34
ENDBRANCH  29  31
ENDBRANCH   9  30
TORSDOF 9
ENDMDL
