MODEL 1
REMARK VINA RESULT:      -7.3      0.000      0.000
REMARK  Name = 198494
REMARK  6 active torsions:
REMARK  status: ('A' for Active; 'I' for Inactive)
REMARK    1  A    between atoms: C_6  and  O_26
REMARK    2  A    between atoms: C_7  and  O_28
REMARK    3  A    between atoms: C_9  and  O_30
REMARK    4  A    between atoms: C_15  and  O_32
REMARK    5  A    between atoms: C_22  and  C_34
REMARK    6  A    between atoms: C_34  and  C_35
REMARK                            x       y       z     vdW  Elec       q    Type
REMARK                         _______ _______ _______ _____ _____    ______ ____
ROOT
ATOM      1  O   UNL     1     -34.469  24.449   2.721  0.00  0.00    -0.318 OA
ATOM      2  O   UNL     1     -34.435  23.744   0.509  0.00  0.00    -0.447 OA
ATOM      3  O   UNL     1     -36.206  19.852   2.254  0.00  0.00    -0.287 OA
ATOM      4  O   UNL     1     -31.845  17.458   1.504  0.00  0.00    -0.287 OA
ATOM      5  N   UNL     1     -28.913  18.829  -1.425  0.00  0.00    -0.414 NA
ATOM      6  C   UNL     1     -36.098  22.749   1.868  0.00  0.00    +0.205 C 
ATOM      7  C   UNL     1     -36.691  22.692   3.283  0.00  0.00    +0.174 C 
ATOM      8  C   UNL     1     -35.299  24.045   1.626  0.00  0.00    +0.320 C 
ATOM      9  C   UNL     1     -35.679  23.131   4.341  0.00  0.00    +0.167 C 
ATOM     10  C   UNL     1     -35.053  21.746   1.457  0.00  0.00    +0.086 C 
ATOM     11  C   UNL     1     -35.114  24.508   3.990  0.00  0.00    +0.148 C 
ATOM     12  C   UNL     1     -34.158  22.377   0.690  0.00  0.00    +0.176 C 
ATOM     13  C   UNL     1     -35.155  20.317   1.815  0.00  0.00    +0.197 C 
ATOM     14  C   UNL     1     -34.071  24.965   5.006  0.00  0.00    +0.035 C 
ATOM     15  C   UNL     1     -32.996  21.899  -0.029  0.00  0.00    +0.167 C 
ATOM     16  C   UNL     1     -32.429  20.687   0.108  0.00  0.00    +0.037 C 
ATOM     17  C   UNL     1     -32.882  19.606   0.972  0.00  0.00    +0.045 C 
ATOM     18  C   UNL     1     -33.993  19.411   1.681  0.00  0.00    +0.045 C 
ATOM     19  C   UNL     1     -31.184  20.232  -0.561  0.00  0.00    -0.007 C 
ATOM     20  C   UNL     1     -30.861  18.963  -0.070  0.00  0.00    +0.061 C 
ATOM     21  C   UNL     1     -31.861  18.511   0.902  0.00  0.00    +0.198 C 
ATOM     22  C   UNL     1     -29.743  18.292  -0.507  0.00  0.00    +0.111 C 
ATOM     23  C   UNL     1     -30.351  20.803  -1.507  0.00  0.00    +0.081 C 
ATOM     24  C   UNL     1     -29.239  20.062  -1.898  0.00  0.00    +0.091 C 
ATOM     25  C   UNL     1     -28.306  20.643  -2.910  0.00  0.00    +0.062 C 
ENDROOT
BRANCH   6  26
ATOM     26  O   UNL     1     -37.157  22.635   0.912  0.00  0.00    -0.375 OA
ATOM     27  H   UNL     1     -37.740  21.900   1.161  0.00  0.00    +0.211 HD
ENDBRANCH   6  26
BRANCH   7  28
ATOM     28  O   UNL     1     -37.841  23.550   3.353  0.00  0.00    -0.379 OA
ATOM     29  H   UNL     1     -38.556  23.176   2.814  0.00  0.00    +0.211 HD
ENDBRANCH   7  28
BRANCH   9  30
ATOM     30  O   UNL     1     -36.298  23.168   5.621  0.00  0.00    -0.379 OA
ATOM     31  H   UNL     1     -37.249  22.997   5.525  0.00  0.00    +0.211 HD
ENDBRANCH   9  30
BRANCH  15  32
ATOM     32  O   UNL     1     -32.434  22.837  -0.885  0.00  0.00    -0.503 OA
ATOM     33  H   UNL     1     -31.628  23.254  -0.658  0.00  0.00    +0.292 HD
ENDBRANCH  15  32
BRANCH  22  34
ATOM     34  C   UNL     1     -29.382  16.939   0.001  0.00  0.00    +0.059 C 
BRANCH  34  35
ATOM     35  C   UNL     1     -27.997  16.915   0.665  0.00  0.00    +0.007 C 
ATOM     36  C   UNL     1     -27.972  17.706   1.963  0.00  0.00    +0.000 C 
ENDBRANCH  34  35
ENDBRANCH  22  34
TORSDOF 6
ENDMDL
MODEL 2
REMARK VINA RESULT:      -7.2      2.530      4.056
REMARK  Name = 198494
REMARK  6 active torsions:
REMARK  status: ('A' for Active; 'I' for Inactive)
REMARK    1  A    between atoms: C_6  and  O_26
REMARK    2  A    between atoms: C_7  and  O_28
REMARK    3  A    between atoms: C_9  and  O_30
REMARK    4  A    between atoms: C_15  and  O_32
REMARK    5  A    between atoms: C_22  and  C_34
REMARK    6  A    between atoms: C_34  and  C_35
REMARK                            x       y       z     vdW  Elec       q    Type
REMARK                         _______ _______ _______ _____ _____    ______ ____
ROOT
ATOM      1  O   UNL     1     -35.326  26.591   2.435  0.00  0.00    -0.318 OA
ATOM      2  O   UNL     1     -36.993  25.268   1.509  0.00  0.00    -0.447 OA
ATOM      3  O   UNL     1     -36.221  22.601   5.199  0.00  0.00    -0.287 OA
ATOM      4  O   UNL     1     -33.972  19.148   2.312  0.00  0.00    -0.287 OA
ATOM      5  N   UNL     1     -34.725  18.858  -1.979  0.00  0.00    -0.414 NA
ATOM      6  C   UNL     1     -36.784  25.141   3.863  0.00  0.00    +0.205 C 
ATOM      7  C   UNL     1     -35.999  25.650   5.081  0.00  0.00    +0.174 C 
ATOM      8  C   UNL     1     -36.647  26.082   2.650  0.00  0.00    +0.320 C 
ATOM      9  C   UNL     1     -34.603  26.138   4.693  0.00  0.00    +0.167 C 
ATOM     10  C   UNL     1     -36.382  23.847   3.206  0.00  0.00    +0.086 C 
ATOM     11  C   UNL     1     -34.701  27.176   3.574  0.00  0.00    +0.148 C 
ATOM     12  C   UNL     1     -36.534  23.992   1.886  0.00  0.00    +0.176 C 
ATOM     13  C   UNL     1     -36.000  22.655   3.990  0.00  0.00    +0.197 C 
ATOM     14  C   UNL     1     -33.323  27.662   3.134  0.00  0.00    +0.035 C 
ATOM     15  C   UNL     1     -36.367  23.064   0.787  0.00  0.00    +0.167 C 
ATOM     16  C   UNL     1     -35.789  21.853   0.861  0.00  0.00    +0.037 C 
ATOM     17  C   UNL     1     -35.247  21.217   2.054  0.00  0.00    +0.045 C 
ATOM     18  C   UNL     1     -35.318  21.508   3.353  0.00  0.00    +0.045 C 
ATOM     19  C   UNL     1     -35.534  20.943  -0.284  0.00  0.00    -0.007 C 
ATOM     20  C   UNL     1     -34.811  19.840   0.184  0.00  0.00    +0.061 C 
ATOM     21  C   UNL     1     -34.578  19.946   1.628  0.00  0.00    +0.198 C 
ATOM     22  C   UNL     1     -34.424  18.829  -0.663  0.00  0.00    +0.111 C 
ATOM     23  C   UNL     1     -35.859  20.993  -1.628  0.00  0.00    +0.081 C 
ATOM     24  C   UNL     1     -35.431  19.932  -2.422  0.00  0.00    +0.091 C 
ATOM     25  C   UNL     1     -35.750  19.949  -3.881  0.00  0.00    +0.062 C 
ENDROOT
BRANCH   6  26
ATOM     26  O   UNL     1     -38.162  24.993   4.223  0.00  0.00    -0.375 OA
ATOM     27  H   UNL     1     -38.661  25.763   3.909  0.00  0.00    +0.211 HD
ENDBRANCH   6  26
BRANCH   7  28
ATOM     28  O   UNL     1     -36.719  26.732   5.693  0.00  0.00    -0.379 OA
ATOM     29  H   UNL     1     -37.248  26.390   6.432  0.00  0.00    +0.211 HD
ENDBRANCH   7  28
BRANCH   9  30
ATOM     30  O   UNL     1     -33.953  26.700   5.826  0.00  0.00    -0.379 OA
ATOM     31  H   UNL     1     -33.962  26.059   6.555  0.00  0.00    +0.211 HD
ENDBRANCH   9  30
BRANCH  15  32
ATOM     32  O   UNL     1     -36.821  23.545  -0.434  0.00  0.00    -0.503 OA
ATOM     33  H   UNL     1     -36.293  23.449  -1.201  0.00  0.00    +0.292 HD
ENDBRANCH  15  32
BRANCH  22  34
ATOM     34  C   UNL     1     -33.656  17.646  -0.186  0.00  0.00    +0.059 C 
BRANCH  34  35
ATOM     35  C   UNL     1     -32.190  17.679  -0.642  0.00  0.00    +0.007 C 
ATOM     36  C   UNL     1     -31.306  18.445   0.329  0.00  0.00    +0.000 C 
ENDBRANCH  34  35
ENDBRANCH  22  34
TORSDOF 6
ENDMDL
MODEL 3
REMARK VINA RESULT:      -7.1      3.620      8.121
REMARK  Name = 198494
REMARK  6 active torsions:
REMARK  status: ('A' for Active; 'I' for Inactive)
REMARK    1  A    between atoms: C_6  and  O_26
REMARK    2  A    between atoms: C_7  and  O_28
REMARK    3  A    between atoms: C_9  and  O_30
REMARK    4  A    between atoms: C_15  and  O_32
REMARK    5  A    between atoms: C_22  and  C_34
REMARK    6  A    between atoms: C_34  and  C_35
REMARK                            x       y       z     vdW  Elec       q    Type
REMARK                         _______ _______ _______ _____ _____    ______ ____
ROOT
ATOM      1  O   UNL     1     -34.518  19.909   2.263  0.00  0.00    -0.318 OA
ATOM      2  O   UNL     1     -35.609  21.197   3.857  0.00  0.00    -0.447 OA
ATOM      3  O   UNL     1     -37.421  23.310   0.171  0.00  0.00    -0.287 OA
ATOM      4  O   UNL     1     -34.580  27.373   1.025  0.00  0.00    -0.287 OA
ATOM      5  N   UNL     1     -32.920  28.264   4.963  0.00  0.00    -0.414 NA
ATOM      6  C   UNL     1     -36.735  20.971   1.787  0.00  0.00    +0.205 C 
ATOM      7  C   UNL     1     -36.665  20.353   0.383  0.00  0.00    +0.174 C 
ATOM      8  C   UNL     1     -35.807  20.250   2.785  0.00  0.00    +0.320 C 
ATOM      9  C   UNL     1     -35.224  20.067  -0.040  0.00  0.00    +0.167 C 
ATOM     10  C   UNL     1     -36.264  22.384   2.003  0.00  0.00    +0.086 C 
ATOM     11  C   UNL     1     -34.524  19.214   1.019  0.00  0.00    +0.148 C 
ATOM     12  C   UNL     1     -35.649  22.435   3.189  0.00  0.00    +0.176 C 
ATOM     13  C   UNL     1     -36.574  23.468   1.049  0.00  0.00    +0.197 C 
ATOM     14  C   UNL     1     -33.070  18.938   0.649  0.00  0.00    +0.035 C 
ATOM     15  C   UNL     1     -35.070  23.537   3.929  0.00  0.00    +0.167 C 
ATOM     16  C   UNL     1     -34.836  24.770   3.450  0.00  0.00    +0.037 C 
ATOM     17  C   UNL     1     -35.144  25.259   2.113  0.00  0.00    +0.045 C 
ATOM     18  C   UNL     1     -35.859  24.762   1.104  0.00  0.00    +0.045 C 
ATOM     19  C   UNL     1     -34.158  25.870   4.181  0.00  0.00    -0.007 C 
ATOM     20  C   UNL     1     -34.000  26.949   3.304  0.00  0.00    +0.061 C 
ATOM     21  C   UNL     1     -34.575  26.639   1.991  0.00  0.00    +0.198 C 
ATOM     22  C   UNL     1     -33.391  28.113   3.708  0.00  0.00    +0.111 C 
ATOM     23  C   UNL     1     -33.688  26.001   5.475  0.00  0.00    +0.081 C 
ATOM     24  C   UNL     1     -33.081  27.210   5.808  0.00  0.00    +0.091 C 
ATOM     25  C   UNL     1     -32.550  27.394   7.192  0.00  0.00    +0.062 C 
ENDROOT
BRANCH   6  26
ATOM     26  O   UNL     1     -38.089  20.927   2.250  0.00  0.00    -0.375 OA
ATOM     27  H   UNL     1     -38.213  21.585   2.952  0.00  0.00    +0.211 HD
ENDBRANCH   6  26
BRANCH   7  28
ATOM     28  O   UNL     1     -37.410  19.124   0.365  0.00  0.00    -0.379 OA
ATOM     29  H   UNL     1     -36.926  18.461  -0.151  0.00  0.00    +0.211 HD
ENDBRANCH   7  28
BRANCH   9  30
ATOM     30  O   UNL     1     -35.210  19.398  -1.295  0.00  0.00    -0.379 OA
ATOM     31  H   UNL     1     -36.029  18.888  -1.399  0.00  0.00    +0.211 HD
ENDBRANCH   9  30
BRANCH  15  32
ATOM     32  O   UNL     1     -34.701  23.213   5.228  0.00  0.00    -0.503 OA
ATOM     33  H   UNL     1     -34.109  23.765   5.698  0.00  0.00    +0.292 HD
ENDBRANCH  15  32
BRANCH  22  34
ATOM     34  C   UNL     1     -33.216  29.274   2.791  0.00  0.00    +0.059 C 
BRANCH  34  35
ATOM     35  C   UNL     1     -33.798  30.571   3.372  0.00  0.00    +0.007 C 
ATOM     36  C   UNL     1     -35.260  30.757   3.000  0.00  0.00    +0.000 C 
ENDBRANCH  34  35
ENDBRANCH  22  34
TORSDOF 6
ENDMDL
MODEL 4
REMARK VINA RESULT:      -6.9      5.618      7.582
REMARK  Name = 198494
REMARK  6 active torsions:
REMARK  status: ('A' for Active; 'I' for Inactive)
REMARK    1  A    between atoms: C_6  and  O_26
REMARK    2  A    between atoms: C_7  and  O_28
REMARK    3  A    between atoms: C_9  and  O_30
REMARK    4  A    between atoms: C_15  and  O_32
REMARK    5  A    between atoms: C_22  and  C_34
REMARK    6  A    between atoms: C_34  and  C_35
REMARK                            x       y       z     vdW  Elec       q    Type
REMARK                         _______ _______ _______ _____ _____    ______ ____
ROOT
ATOM      1  O   UNL     1     -35.304  24.366   5.832  0.00  0.00    -0.318 OA
ATOM      2  O   UNL     1     -35.074  26.635   5.397  0.00  0.00    -0.447 OA
ATOM      3  O   UNL     1     -35.050  25.267   0.986  0.00  0.00    -0.287 OA
ATOM      4  O   UNL     1     -30.126  26.243   0.645  0.00  0.00    -0.287 OA
ATOM      5  N   UNL     1     -28.116  29.031   3.337  0.00  0.00    -0.414 NA
ATOM      6  C   UNL     1     -36.138  25.375   3.698  0.00  0.00    +0.205 C 
ATOM      7  C   UNL     1     -36.601  23.972   3.282  0.00  0.00    +0.174 C 
ATOM      8  C   UNL     1     -35.942  25.494   5.223  0.00  0.00    +0.320 C 
ATOM      9  C   UNL     1     -35.812  22.877   4.001  0.00  0.00    +0.167 C 
ATOM     10  C   UNL     1     -34.793  25.880   3.246  0.00  0.00    +0.086 C 
ATOM     11  C   UNL     1     -35.867  23.097   5.514  0.00  0.00    +0.148 C 
ATOM     12  C   UNL     1     -34.261  26.585   4.250  0.00  0.00    +0.176 C 
ATOM     13  C   UNL     1     -34.295  25.660   1.874  0.00  0.00    +0.197 C 
ATOM     14  C   UNL     1     -35.059  22.043   6.266  0.00  0.00    +0.035 C 
ATOM     15  C   UNL     1     -33.033  27.347   4.349  0.00  0.00    +0.167 C 
ATOM     16  C   UNL     1     -32.021  27.326   3.466  0.00  0.00    +0.037 C 
ATOM     17  C   UNL     1     -31.963  26.568   2.224  0.00  0.00    +0.045 C 
ATOM     18  C   UNL     1     -32.872  25.880   1.534  0.00  0.00    +0.045 C 
ATOM     19  C   UNL     1     -30.725  28.035   3.616  0.00  0.00    -0.007 C 
ATOM     20  C   UNL     1     -29.897  27.668   2.550  0.00  0.00    +0.061 C 
ATOM     21  C   UNL     1     -30.590  26.742   1.648  0.00  0.00    +0.198 C 
ATOM     22  C   UNL     1     -28.621  28.167   2.432  0.00  0.00    +0.111 C 
ATOM     23  C   UNL     1     -30.232  28.923   4.555  0.00  0.00    +0.081 C 
ATOM     24  C   UNL     1     -28.931  29.384   4.368  0.00  0.00    +0.091 C 
ATOM     25  C   UNL     1     -28.353  30.337   5.362  0.00  0.00    +0.062 C 
ENDROOT
BRANCH   6  26
ATOM     26  O   UNL     1     -37.097  26.337   3.246  0.00  0.00    -0.375 OA
ATOM     27  H   UNL     1     -36.768  26.768   2.442  0.00  0.00    +0.211 HD
ENDBRANCH   6  26
BRANCH   7  28
ATOM     28  O   UNL     1     -37.997  23.820   3.590  0.00  0.00    -0.379 OA
ATOM     29  H   UNL     1     -38.096  23.241   4.362  0.00  0.00    +0.211 HD
ENDBRANCH   7  28
BRANCH   9  30
ATOM     30  O   UNL     1     -36.343  21.599   3.672  0.00  0.00    -0.379 OA
ATOM     31  H   UNL     1     -36.904  21.676   2.884  0.00  0.00    +0.211 HD
ENDBRANCH   9  30
BRANCH  15  32
ATOM     32  O   UNL     1     -32.934  28.110   5.505  0.00  0.00    -0.503 OA
ATOM     33  H   UNL     1     -32.238  27.952   6.112  0.00  0.00    +0.292 HD
ENDBRANCH  15  32
BRANCH  22  34
ATOM     34  C   UNL     1     -27.725  27.790   1.304  0.00  0.00    +0.059 C 
BRANCH  34  35
ATOM     35  C   UNL     1     -27.439  28.972   0.365  0.00  0.00    +0.007 C 
ATOM     36  C   UNL     1     -28.625  29.287  -0.533  0.00  0.00    +0.000 C 
ENDBRANCH  34  35
ENDBRANCH  22  34
TORSDOF 6
ENDMDL
MODEL 5
REMARK VINA RESULT:      -6.9      4.734      7.963
REMARK  Name = 198494
REMARK  6 active torsions:
REMARK  status: ('A' for Active; 'I' for Inactive)
REMARK    1  A    between atoms: C_6  and  O_26
REMARK    2  A    between atoms: C_7  and  O_28
REMARK    3  A    between atoms: C_9  and  O_30
REMARK    4  A    between atoms: C_15  and  O_32
REMARK    5  A    between atoms: C_22  and  C_34
REMARK    6  A    between atoms: C_34  and  C_35
REMARK                            x       y       z     vdW  Elec       q    Type
REMARK                         _______ _______ _______ _____ _____    ______ ____
ROOT
ATOM      1  O   UNL     1     -34.681  30.618   3.345  0.00  0.00    -0.318 OA
ATOM      2  O   UNL     1     -33.296  29.086   4.405  0.00  0.00    -0.447 OA
ATOM      3  O   UNL     1     -32.098  27.954   0.091  0.00  0.00    -0.287 OA
ATOM      4  O   UNL     1     -34.638  23.627   0.454  0.00  0.00    -0.287 OA
ATOM      5  N   UNL     1     -35.563  21.789   4.305  0.00  0.00    -0.414 NA
ATOM      6  C   UNL     1     -32.554  29.833   2.285  0.00  0.00    +0.205 C 
ATOM      7  C   UNL     1     -32.884  30.737   1.088  0.00  0.00    +0.174 C 
ATOM      8  C   UNL     1     -33.313  30.256   3.558  0.00  0.00    +0.320 C 
ATOM      9  C   UNL     1     -34.383  31.015   0.983  0.00  0.00    +0.167 C 
ATOM     10  C   UNL     1     -32.942  28.379   2.249  0.00  0.00    +0.086 C 
ATOM     11  C   UNL     1     -34.910  31.568   2.308  0.00  0.00    +0.148 C 
ATOM     12  C   UNL     1     -33.340  28.030   3.476  0.00  0.00    +0.176 C 
ATOM     13  C   UNL     1     -32.774  27.553   1.036  0.00  0.00    +0.197 C 
ATOM     14  C   UNL     1     -36.414  31.823   2.253  0.00  0.00    +0.035 C 
ATOM     15  C   UNL     1     -33.752  26.758   4.032  0.00  0.00    +0.167 C 
ATOM     16  C   UNL     1     -34.033  25.646   3.330  0.00  0.00    +0.037 C 
ATOM     17  C   UNL     1     -33.949  25.484   1.885  0.00  0.00    +0.045 C 
ATOM     18  C   UNL     1     -33.434  26.235   0.913  0.00  0.00    +0.045 C 
ATOM     19  C   UNL     1     -34.544  24.372   3.894  0.00  0.00    -0.007 C 
ATOM     20  C   UNL     1     -34.823  23.503   2.834  0.00  0.00    +0.061 C 
ATOM     21  C   UNL     1     -34.495  24.129   1.549  0.00  0.00    +0.198 C 
ATOM     22  C   UNL     1     -35.322  22.242   3.056  0.00  0.00    +0.111 C 
ATOM     23  C   UNL     1     -34.778  23.930   5.184  0.00  0.00    +0.081 C 
ATOM     24  C   UNL     1     -35.285  22.641   5.329  0.00  0.00    +0.091 C 
ATOM     25  C   UNL     1     -35.562  22.125   6.703  0.00  0.00    +0.062 C 
ENDROOT
BRANCH   6  26
ATOM     26  O   UNL     1     -31.141  29.862   2.517  0.00  0.00    -0.375 OA
ATOM     27  H   UNL     1     -30.746  29.032   2.210  0.00  0.00    +0.211 HD
ENDBRANCH   6  26
BRANCH   7  28
ATOM     28  O   UNL     1     -32.186  31.986   1.228  0.00  0.00    -0.379 OA
ATOM     29  H   UNL     1     -32.668  32.558   1.847  0.00  0.00    +0.211 HD
ENDBRANCH   7  28
BRANCH   9  30
ATOM     30  O   UNL     1     -34.634  31.940  -0.068  0.00  0.00    -0.379 OA
ATOM     31  H   UNL     1     -35.528  31.796  -0.419  0.00  0.00    +0.211 HD
ENDBRANCH   9  30
BRANCH  15  32
ATOM     32  O   UNL     1     -33.898  26.765   5.413  0.00  0.00    -0.503 OA
ATOM     33  H   UNL     1     -34.135  25.979   5.863  0.00  0.00    +0.292 HD
ENDBRANCH  15  32
BRANCH  22  34
ATOM     34  C   UNL     1     -35.623  21.301   1.942  0.00  0.00    +0.059 C 
BRANCH  34  35
ATOM     35  C   UNL     1     -34.658  20.106   1.909  0.00  0.00    +0.007 C 
ATOM     36  C   UNL     1     -33.678  20.196   0.750  0.00  0.00    +0.000 C 
ENDBRANCH  34  35
ENDBRANCH  22  34
TORSDOF 6
ENDMDL
MODEL 6
REMARK VINA RESULT:      -6.7      4.762      9.018
REMARK  Name = 198494
REMARK  6 active torsions:
REMARK  status: ('A' for Active; 'I' for Inactive)
REMARK    1  A    between atoms: C_6  and  O_26
REMARK    2  A    between atoms: C_7  and  O_28
REMARK    3  A    between atoms: C_9  and  O_30
REMARK    4  A    between atoms: C_15  and  O_32
REMARK    5  A    between atoms: C_22  and  C_34
REMARK    6  A    between atoms: C_34  and  C_35
REMARK                            x       y       z     vdW  Elec       q    Type
REMARK                         _______ _______ _______ _____ _____    ______ ____
ROOT
ATOM      1  O   UNL     1     -35.362  22.827   3.276  0.00  0.00    -0.318 OA
ATOM      2  O   UNL     1     -35.458  24.378   5.001  0.00  0.00    -0.447 OA
ATOM      3  O   UNL     1     -37.644  26.971   1.866  0.00  0.00    -0.287 OA
ATOM      4  O   UNL     1     -33.617  29.955   1.434  0.00  0.00    -0.287 OA
ATOM      5  N   UNL     1     -30.604  30.265   4.578  0.00  0.00    -0.414 NA
ATOM      6  C   UNL     1     -37.199  24.523   3.404  0.00  0.00    +0.205 C 
ATOM      7  C   UNL     1     -37.765  23.923   2.108  0.00  0.00    +0.174 C 
ATOM      8  C   UNL     1     -36.257  23.545   4.133  0.00  0.00    +0.320 C 
ATOM      9  C   UNL     1     -36.686  23.210   1.294  0.00  0.00    +0.167 C 
ATOM     10  C   UNL     1     -36.290  25.722   3.335  0.00  0.00    +0.086 C 
ATOM     11  C   UNL     1     -35.968  22.176   2.163  0.00  0.00    +0.148 C 
ATOM     12  C   UNL     1     -35.343  25.572   4.266  0.00  0.00    +0.176 C 
ATOM     13  C   UNL     1     -36.555  26.855   2.425  0.00  0.00    +0.197 C 
ATOM     14  C   UNL     1     -34.857  21.468   1.394  0.00  0.00    +0.035 C 
ATOM     15  C   UNL     1     -34.261  26.437   4.690  0.00  0.00    +0.167 C 
ATOM     16  C   UNL     1     -33.841  27.542   4.050  0.00  0.00    +0.037 C 
ATOM     17  C   UNL     1     -34.400  28.110   2.832  0.00  0.00    +0.045 C 
ATOM     18  C   UNL     1     -35.512  27.864   2.139  0.00  0.00    +0.045 C 
ATOM     19  C   UNL     1     -32.673  28.374   4.435  0.00  0.00    -0.007 C 
ATOM     20  C   UNL     1     -32.493  29.357   3.456  0.00  0.00    +0.061 C 
ATOM     21  C   UNL     1     -33.520  29.249   2.415  0.00  0.00    +0.198 C 
ATOM     22  C   UNL     1     -31.473  30.275   3.545  0.00  0.00    +0.111 C 
ATOM     23  C   UNL     1     -31.798  28.345   5.506  0.00  0.00    +0.081 C 
ATOM     24  C   UNL     1     -30.790  29.307   5.525  0.00  0.00    +0.091 C 
ATOM     25  C   UNL     1     -29.816  29.307   6.658  0.00  0.00    +0.062 C 
ENDROOT
BRANCH   6  26
ATOM     26  O   UNL     1     -38.285  24.896   4.259  0.00  0.00    -0.375 OA
ATOM     27  H   UNL     1     -38.116  25.776   4.631  0.00  0.00    +0.211 HD
ENDBRANCH   6  26
BRANCH   7  28
ATOM     28  O   UNL     1     -38.803  22.984   2.432  0.00  0.00    -0.379 OA
ATOM     29  H   UNL     1     -39.626  23.464   2.620  0.00  0.00    +0.211 HD
ENDBRANCH   7  28
BRANCH   9  30
ATOM     30  O   UNL     1     -37.269  22.578   0.162  0.00  0.00    -0.379 OA
ATOM     31  H   UNL     1     -37.727  23.242  -0.379  0.00  0.00    +0.211 HD
ENDBRANCH   9  30
BRANCH  15  32
ATOM     32  O   UNL     1     -33.610  26.007   5.838  0.00  0.00    -0.503 OA
ATOM     33  H   UNL     1     -32.737  26.292   6.016  0.00  0.00    +0.292 HD
ENDBRANCH  15  32
BRANCH  22  34
ATOM     34  C   UNL     1     -31.265  31.331   2.516  0.00  0.00    +0.059 C 
BRANCH  34  35
ATOM     35  C   UNL     1     -31.628  32.731   3.034  0.00  0.00    +0.007 C 
ATOM     36  C   UNL     1     -32.883  33.277   2.371  0.00  0.00    +0.000 C 
ENDBRANCH  34  35
ENDBRANCH  22  34
TORSDOF 6
ENDMDL
MODEL 7
REMARK VINA RESULT:      -6.7      2.439      4.820
REMARK  Name = 198494
REMARK  6 active torsions:
REMARK  status: ('A' for Active; 'I' for Inactive)
REMARK    1  A    between atoms: C_6  and  O_26
REMARK    2  A    between atoms: C_7  and  O_28
REMARK    3  A    between atoms: C_9  and  O_30
REMARK    4  A    between atoms: C_15  and  O_32
REMARK    5  A    between atoms: C_22  and  C_34
REMARK    6  A    between atoms: C_34  and  C_35
REMARK                            x       y       z     vdW  Elec       q    Type
REMARK                         _______ _______ _______ _____ _____    ______ ____
ROOT
ATOM      1  O   UNL     1     -39.700  23.681   1.410  0.00  0.00    -0.318 OA
ATOM      2  O   UNL     1     -38.409  22.352   2.808  0.00  0.00    -0.447 OA
ATOM      3  O   UNL     1     -35.436  25.878   2.572  0.00  0.00    -0.287 OA
ATOM      4  O   UNL     1     -32.359  23.170  -0.345  0.00  0.00    -0.287 OA
ATOM      5  N   UNL     1     -32.447  18.806  -0.397  0.00  0.00    -0.414 NA
ATOM      6  C   UNL     1     -38.068  24.684   3.021  0.00  0.00    +0.205 C 
ATOM      7  C   UNL     1     -38.489  26.065   2.498  0.00  0.00    +0.174 C 
ATOM      8  C   UNL     1     -39.124  23.603   2.718  0.00  0.00    +0.320 C 
ATOM      9  C   UNL     1     -39.063  25.986   1.084  0.00  0.00    +0.167 C 
ATOM     10  C   UNL     1     -36.858  24.004   2.438  0.00  0.00    +0.086 C 
ATOM     11  C   UNL     1     -40.198  24.962   1.034  0.00  0.00    +0.148 C 
ATOM     12  C   UNL     1     -37.122  22.696   2.356  0.00  0.00    +0.176 C 
ATOM     13  C   UNL     1     -35.613  24.740   2.140  0.00  0.00    +0.197 C 
ATOM     14  C   UNL     1     -40.774  24.828  -0.373  0.00  0.00    +0.035 C 
ATOM     15  C   UNL     1     -36.309  21.571   1.943  0.00  0.00    +0.167 C 
ATOM     16  C   UNL     1     -35.119  21.647   1.323  0.00  0.00    +0.037 C 
ATOM     17  C   UNL     1     -34.393  22.860   0.973  0.00  0.00    +0.045 C 
ATOM     18  C   UNL     1     -34.557  24.143   1.293  0.00  0.00    +0.045 C 
ATOM     19  C   UNL     1     -34.331  20.495   0.817  0.00  0.00    -0.007 C 
ATOM     20  C   UNL     1     -33.217  20.991   0.132  0.00  0.00    +0.061 C 
ATOM     21  C   UNL     1     -33.194  22.457   0.170  0.00  0.00    +0.198 C 
ATOM     22  C   UNL     1     -32.305  20.146  -0.457  0.00  0.00    +0.111 C 
ATOM     23  C   UNL     1     -34.496  19.123   0.896  0.00  0.00    +0.081 C 
ATOM     24  C   UNL     1     -33.532  18.333   0.274  0.00  0.00    +0.091 C 
ATOM     25  C   UNL     1     -33.675  16.847   0.325  0.00  0.00    +0.062 C 
ENDROOT
BRANCH   6  26
ATOM     26  O   UNL     1     -37.836  24.769   4.431  0.00  0.00    -0.375 OA
ATOM     27  H   UNL     1     -37.878  25.697   4.711  0.00  0.00    +0.211 HD
ENDBRANCH   6  26
BRANCH   7  28
ATOM     28  O   UNL     1     -39.480  26.625   3.375  0.00  0.00    -0.379 OA
ATOM     29  H   UNL     1     -39.122  27.420   3.802  0.00  0.00    +0.211 HD
ENDBRANCH   7  28
BRANCH   9  30
ATOM     30  O   UNL     1     -39.539  27.265   0.681  0.00  0.00    -0.379 OA
ATOM     31  H   UNL     1     -40.500  27.224   0.544  0.00  0.00    +0.211 HD
ENDBRANCH   9  30
BRANCH  15  32
ATOM     32  O   UNL     1     -36.886  20.334   2.194  0.00  0.00    -0.503 OA
ATOM     33  H   UNL     1     -36.988  19.715   1.499  0.00  0.00    +0.292 HD
ENDBRANCH  15  32
BRANCH  22  34
ATOM     34  C   UNL     1     -31.112  20.654  -1.188  0.00  0.00    +0.059 C 
BRANCH  34  35
ATOM     35  C   UNL     1     -29.805  20.026  -0.682  0.00  0.00    +0.007 C 
ATOM     36  C   UNL     1     -28.640  21.000  -0.750  0.00  0.00    +0.000 C 
ENDBRANCH  34  35
ENDBRANCH  22  34
TORSDOF 6
ENDMDL
MODEL 8
REMARK VINA RESULT:      -6.7      5.178      8.687
REMARK  Name = 198494
REMARK  6 active torsions:
REMARK  status: ('A' for Active; 'I' for Inactive)
REMARK    1  A    between atoms: C_6  and  O_26
REMARK    2  A    between atoms: C_7  and  O_28
REMARK    3  A    between atoms: C_9  and  O_30
REMARK    4  A    between atoms: C_15  and  O_32
REMARK    5  A    between atoms: C_22  and  C_34
REMARK    6  A    between atoms: C_34  and  C_35
REMARK                            x       y       z     vdW  Elec       q    Type
REMARK                         _______ _______ _______ _____ _____    ______ ____
ROOT
ATOM      1  O   UNL     1     -40.626  16.636  -1.143  0.00  0.00    -0.318 OA
ATOM      2  O   UNL     1     -40.183  18.815  -1.811  0.00  0.00    -0.447 OA
ATOM      3  O   UNL     1     -35.787  17.402  -1.747  0.00  0.00    -0.287 OA
ATOM      4  O   UNL     1     -34.914  20.102   2.408  0.00  0.00    -0.287 OA
ATOM      5  N   UNL     1     -37.389  23.522   3.521  0.00  0.00    -0.414 NA
ATOM      6  C   UNL     1     -38.603  17.197  -2.508  0.00  0.00    +0.205 C 
ATOM      7  C   UNL     1     -38.231  15.708  -2.463  0.00  0.00    +0.174 C 
ATOM      8  C   UNL     1     -40.098  17.430  -2.211  0.00  0.00    +0.320 C 
ATOM      9  C   UNL     1     -38.852  15.003  -1.257  0.00  0.00    +0.167 C 
ATOM     10  C   UNL     1     -38.010  18.143  -1.499  0.00  0.00    +0.086 C 
ATOM     11  C   UNL     1     -40.363  15.239  -1.230  0.00  0.00    +0.148 C 
ATOM     12  C   UNL     1     -38.954  19.028  -1.161  0.00  0.00    +0.176 C 
ATOM     13  C   UNL     1     -36.589  18.075  -1.101  0.00  0.00    +0.197 C 
ATOM     14  C   UNL     1     -41.014  14.580  -0.017  0.00  0.00    +0.035 C 
ATOM     15  C   UNL     1     -38.923  20.189  -0.297  0.00  0.00    +0.167 C 
ATOM     16  C   UNL     1     -37.934  20.511   0.554  0.00  0.00    +0.037 C 
ATOM     17  C   UNL     1     -36.687  19.784   0.757  0.00  0.00    +0.045 C 
ATOM     18  C   UNL     1     -36.097  18.789   0.097  0.00  0.00    +0.045 C 
ATOM     19  C   UNL     1     -37.945  21.650   1.506  0.00  0.00    -0.007 C 
ATOM     20  C   UNL     1     -36.793  21.575   2.295  0.00  0.00    +0.061 C 
ATOM     21  C   UNL     1     -35.966  20.430   1.900  0.00  0.00    +0.198 C 
ATOM     22  C   UNL     1     -36.539  22.503   3.278  0.00  0.00    +0.111 C 
ATOM     23  C   UNL     1     -38.831  22.688   1.733  0.00  0.00    +0.081 C 
ATOM     24  C   UNL     1     -38.505  23.587   2.746  0.00  0.00    +0.091 C 
ATOM     25  C   UNL     1     -39.437  24.719   3.034  0.00  0.00    +0.062 C 
ENDROOT
BRANCH   6  26
ATOM     26  O   UNL     1     -38.265  17.724  -3.796  0.00  0.00    -0.375 OA
ATOM     27  H   UNL     1     -38.235  17.003  -4.443  0.00  0.00    +0.211 HD
ENDBRANCH   6  26
BRANCH   7  28
ATOM     28  O   UNL     1     -38.689  15.066  -3.665  0.00  0.00    -0.379 OA
ATOM     29  H   UNL     1     -37.975  14.519  -4.030  0.00  0.00    +0.211 HD
ENDBRANCH   7  28
BRANCH   9  30
ATOM     30  O   UNL     1     -38.574  13.609  -1.311  0.00  0.00    -0.379 OA
ATOM     31  H   UNL     1     -38.860  13.190  -0.484  0.00  0.00    +0.211 HD
ENDBRANCH   9  30
BRANCH  15  32
ATOM     32  O   UNL     1     -40.066  20.974  -0.365  0.00  0.00    -0.503 OA
ATOM     33  H   UNL     1     -40.597  21.096   0.397  0.00  0.00    +0.292 HD
ENDBRANCH  15  32
BRANCH  22  34
ATOM     34  C   UNL     1     -35.317  22.442   4.127  0.00  0.00    +0.059 C 
BRANCH  34  35
ATOM     35  C   UNL     1     -35.539  23.061   5.515  0.00  0.00    +0.007 C 
ATOM     36  C   UNL     1     -35.500  22.016   6.619  0.00  0.00    +0.000 C 
ENDBRANCH  34  35
ENDBRANCH  22  34
TORSDOF 6
ENDMDL
MODEL 9
REMARK VINA RESULT:      -6.6      4.701      7.589
REMARK  Name = 198494
REMARK  6 active torsions:
REMARK  status: ('A' for Active; 'I' for Inactive)
REMARK    1  A    between atoms: C_6  and  O_26
REMARK    2  A    between atoms: C_7  and  O_28
REMARK    3  A    between atoms: C_9  and  O_30
REMARK    4  A    between atoms: C_15  and  O_32
REMARK    5  A    between atoms: C_22  and  C_34
REMARK    6  A    between atoms: C_34  and  C_35
REMARK                            x       y       z     vdW  Elec       q    Type
REMARK                         _______ _______ _______ _____ _____    ______ ____
ROOT
ATOM      1  O   UNL     1     -42.260  26.068   2.322  0.00  0.00    -0.318 OA
ATOM      2  O   UNL     1     -40.085  26.631   2.907  0.00  0.00    -0.447 OA
ATOM      3  O   UNL     1     -39.192  25.692  -1.526  0.00  0.00    -0.287 OA
ATOM      4  O   UNL     1     -36.838  21.443  -0.216  0.00  0.00    -0.287 OA
ATOM      5  N   UNL     1     -35.173  20.843   3.775  0.00  0.00    -0.414 NA
ATOM      6  C   UNL     1     -40.658  27.001   0.640  0.00  0.00    +0.205 C 
ATOM      7  C   UNL     1     -41.777  26.884  -0.405  0.00  0.00    +0.174 C 
ATOM      8  C   UNL     1     -41.208  27.008   2.080  0.00  0.00    +0.320 C 
ATOM      9  C   UNL     1     -42.810  25.827  -0.016  0.00  0.00    +0.167 C 
ATOM     10  C   UNL     1     -39.648  25.892   0.777  0.00  0.00    +0.086 C 
ATOM     11  C   UNL     1     -43.339  26.103   1.393  0.00  0.00    +0.148 C 
ATOM     12  C   UNL     1     -39.370  25.749   2.076  0.00  0.00    +0.176 C 
ATOM     13  C   UNL     1     -39.060  25.218  -0.398  0.00  0.00    +0.197 C 
ATOM     14  C   UNL     1     -44.348  25.045   1.832  0.00  0.00    +0.035 C 
ATOM     15  C   UNL     1     -38.432  24.895   2.774  0.00  0.00    +0.167 C 
ATOM     16  C   UNL     1     -37.758  23.862   2.237  0.00  0.00    +0.037 C 
ATOM     17  C   UNL     1     -37.807  23.416   0.852  0.00  0.00    +0.045 C 
ATOM     18  C   UNL     1     -38.321  23.945  -0.258  0.00  0.00    +0.045 C 
ATOM     19  C   UNL     1     -36.869  22.931   2.975  0.00  0.00    -0.007 C 
ATOM     20  C   UNL     1     -36.454  21.927   2.093  0.00  0.00    +0.061 C 
ATOM     21  C   UNL     1     -37.010  22.150   0.754  0.00  0.00    +0.198 C 
ATOM     22  C   UNL     1     -35.623  20.913   2.505  0.00  0.00    +0.111 C 
ATOM     23  C   UNL     1     -36.417  22.884   4.282  0.00  0.00    +0.081 C 
ATOM     24  C   UNL     1     -35.579  21.825   4.624  0.00  0.00    +0.091 C 
ATOM     25  C   UNL     1     -35.075  21.728   6.026  0.00  0.00    +0.062 C 
ENDROOT
BRANCH   6  26
ATOM     26  O   UNL     1     -39.907  28.194   0.390  0.00  0.00    -0.375 OA
ATOM     27  H   UNL     1     -39.861  28.353  -0.566  0.00  0.00    +0.211 HD
ENDBRANCH   6  26
BRANCH   7  28
ATOM     28  O   UNL     1     -42.436  28.154  -0.541  0.00  0.00    -0.379 OA
ATOM     29  H   UNL     1     -43.235  28.163   0.010  0.00  0.00    +0.211 HD
ENDBRANCH   7  28
BRANCH   9  30
ATOM     30  O   UNL     1     -43.882  25.827  -0.950  0.00  0.00    -0.379 OA
ATOM     31  H   UNL     1     -44.219  24.923  -1.055  0.00  0.00    +0.211 HD
ENDBRANCH   9  30
BRANCH  15  32
ATOM     32  O   UNL     1     -38.295  25.188   4.124  0.00  0.00    -0.503 OA
ATOM     33  H   UNL     1     -37.448  25.363   4.482  0.00  0.00    +0.292 HD
ENDBRANCH  15  32
BRANCH  22  34
ATOM     34  C   UNL     1     -35.169  19.837   1.581  0.00  0.00    +0.059 C 
BRANCH  34  35
ATOM     35  C   UNL     1     -33.700  20.005   1.166  0.00  0.00    +0.007 C 
ATOM     36  C   UNL     1     -32.939  18.689   1.213  0.00  0.00    +0.000 C 
ENDBRANCH  34  35
ENDBRANCH  22  34
TORSDOF 6
ENDMDL
