MODEL 1
REMARK VINA RESULT:      -5.3      0.000      0.000
REMARK  Name = 52445
REMARK  7 active torsions:
REMARK  status: ('A' for Active; 'I' for Inactive)
REMARK    1  A    between atoms: C_1  and  S_2
REMARK    2  A    between atoms: C_1  and  C_12
REMARK    3  A    between atoms: S_2  and  C_3
REMARK    4  A    between atoms: C_3  and  C_6
REMARK    5  A    between atoms: C_12  and  N_13
REMARK    6  A    between atoms: N_14  and  N_20
REMARK    7  A    between atoms: N_15  and  C_22
REMARK                            x       y       z     vdW  Elec       q    Type
REMARK                         _______ _______ _______ _____ _____    ______ ____
ROOT
ATOM      1  C   UNL     1     -35.437  26.587   3.794  0.00  0.00    +0.084 C 
ENDROOT
BRANCH   1   2
ATOM      2  S   UNL     1     -36.751  25.459   4.335  0.00  0.00    -0.132 S 
BRANCH   2   3
ATOM      3  C   UNL     1     -36.155  23.955   3.531  0.00  0.00    +0.099 C 
BRANCH   3   6
ATOM      4  N   UNL     1     -35.255  21.056   5.500  0.00  0.00    -0.319 N 
ATOM      5  N   UNL     1     -35.807  23.179   5.847  0.00  0.00    -0.318 N 
ATOM      6  C   UNL     1     -35.806  22.880   4.524  0.00  0.00    +0.043 C 
ATOM      7  C   UNL     1     -35.474  21.593   4.262  0.00  0.00    +0.033 C 
ATOM      8  C   UNL     1     -35.334  20.810   3.024  0.00  0.00    +0.048 C 
ATOM      9  C   UNL     1     -35.467  22.045   6.419  0.00  0.00    +0.181 C 
ATOM     10  H   UNL     1     -34.993  20.126   5.693  0.00  0.00    +0.148 HD
ATOM     11  H   UNL     1     -36.014  24.040   6.277  0.00  0.00    +0.148 HD
ENDBRANCH   3   6
ENDBRANCH   2   3
ENDBRANCH   1   2
BRANCH   1  12
ATOM     12  C   UNL     1     -34.101  26.188   4.400  0.00  0.00    +0.140 C 
BRANCH  12  13
ATOM     13  N   UNL     1     -33.286  27.380   4.558  0.00  0.00    -0.237 NA
ATOM     14  N   UNL     1     -32.030  27.010   2.491  0.00  0.00    -0.217 N 
ATOM     15  N   UNL     1     -31.605  28.881   3.900  0.00  0.00    -0.262 N 
ATOM     16  C   UNL     1     -32.383  27.679   3.681  0.00  0.00    +0.228 C 
ATOM     17  C   UNL     1     -32.718  27.377   1.239  0.00  0.00    +0.153 C 
ATOM     18  H   UNL     1     -30.863  29.126   3.299  0.00  0.00    +0.181 HD
BRANCH  14  20
ATOM     19  O   UNL     1     -29.970  26.317   2.709  0.00  0.00    -0.076 OA
ATOM     20  N   UNL     1     -31.149  25.973   2.572  0.00  0.00    +0.062 NA
ENDBRANCH  14  20
BRANCH  15  22
ATOM     21  N   UNL     1     -32.208  30.318   5.859  0.00  0.00    -0.171 NA
ATOM     22  C   UNL     1     -31.932  29.648   4.951  0.00  0.00    +0.184 C 
ENDBRANCH  15  22
ENDBRANCH  12  13
ENDBRANCH   1  12
TORSDOF 7
ENDMDL
MODEL 2
REMARK VINA RESULT:      -5.3      4.717      7.533
REMARK  Name = 52445
REMARK  7 active torsions:
REMARK  status: ('A' for Active; 'I' for Inactive)
REMARK    1  A    between atoms: C_1  and  S_2
REMARK    2  A    between atoms: C_1  and  C_12
REMARK    3  A    between atoms: S_2  and  C_3
REMARK    4  A    between atoms: C_3  and  C_6
REMARK    5  A    between atoms: C_12  and  N_13
REMARK    6  A    between atoms: N_14  and  N_20
REMARK    7  A    between atoms: N_15  and  C_22
REMARK                            x       y       z     vdW  Elec       q    Type
REMARK                         _______ _______ _______ _____ _____    ______ ____
ROOT
ATOM      1  C   UNL     1     -37.967  24.502   0.643  0.00  0.00    +0.084 C 
ENDROOT
BRANCH   1   2
ATOM      2  S   UNL     1     -36.516  24.526   1.731  0.00  0.00    -0.132 S 
BRANCH   2   3
ATOM      3  C   UNL     1     -37.367  24.316   3.311  0.00  0.00    +0.099 C 
BRANCH   3   6
ATOM      4  N   UNL     1     -35.096  23.455   5.991  0.00  0.00    -0.319 N 
ATOM      5  N   UNL     1     -36.344  22.403   4.485  0.00  0.00    -0.318 N 
ATOM      6  C   UNL     1     -36.464  23.750   4.372  0.00  0.00    +0.043 C 
ATOM      7  C   UNL     1     -35.720  24.435   5.272  0.00  0.00    +0.033 C 
ATOM      8  C   UNL     1     -35.518  25.867   5.546  0.00  0.00    +0.048 C 
ATOM      9  C   UNL     1     -35.501  22.252   5.483  0.00  0.00    +0.181 C 
ATOM     10  H   UNL     1     -34.470  23.591   6.739  0.00  0.00    +0.148 HD
ATOM     11  H   UNL     1     -36.783  21.705   3.948  0.00  0.00    +0.148 HD
ENDBRANCH   3   6
ENDBRANCH   2   3
ENDBRANCH   1   2
BRANCH   1  12
ATOM     12  C   UNL     1     -37.972  23.250  -0.220  0.00  0.00    +0.140 C 
BRANCH  12  13
ATOM     13  N   UNL     1     -37.411  22.152   0.548  0.00  0.00    -0.237 NA
ATOM     14  N   UNL     1     -39.354  20.700   0.228  0.00  0.00    -0.217 N 
ATOM     15  N   UNL     1     -37.461  20.002   1.492  0.00  0.00    -0.262 N 
ATOM     16  C   UNL     1     -38.080  21.057   0.714  0.00  0.00    +0.228 C 
ATOM     17  C   UNL     1     -39.453  20.027  -1.080  0.00  0.00    +0.153 C 
ATOM     18  H   UNL     1     -37.946  19.172   1.703  0.00  0.00    +0.181 HD
BRANCH  14  20
ATOM     19  O   UNL     1     -40.274  21.136   2.162  0.00  0.00    -0.076 OA
ATOM     20  N   UNL     1     -40.448  21.099   0.938  0.00  0.00    +0.062 NA
ENDBRANCH  14  20
BRANCH  15  22
ATOM     21  N   UNL     1     -35.110  20.365   2.271  0.00  0.00    -0.171 NA
ATOM     22  C   UNL     1     -36.203  20.201   1.913  0.00  0.00    +0.184 C 
ENDBRANCH  15  22
ENDBRANCH  12  13
ENDBRANCH   1  12
TORSDOF 7
ENDMDL
MODEL 3
REMARK VINA RESULT:      -5.3      2.501      2.823
REMARK  Name = 52445
REMARK  7 active torsions:
REMARK  status: ('A' for Active; 'I' for Inactive)
REMARK    1  A    between atoms: C_1  and  S_2
REMARK    2  A    between atoms: C_1  and  C_12
REMARK    3  A    between atoms: S_2  and  C_3
REMARK    4  A    between atoms: C_3  and  C_6
REMARK    5  A    between atoms: C_12  and  N_13
REMARK    6  A    between atoms: N_14  and  N_20
REMARK    7  A    between atoms: N_15  and  C_22
REMARK                            x       y       z     vdW  Elec       q    Type
REMARK                         _______ _______ _______ _____ _____    ______ ____
ROOT
ATOM      1  C   UNL     1     -37.822  26.265   2.274  0.00  0.00    +0.084 C 
ENDROOT
BRANCH   1   2
ATOM      2  S   UNL     1     -38.070  24.769   3.270  0.00  0.00    -0.132 S 
BRANCH   2   3
ATOM      3  C   UNL     1     -36.513  23.936   2.887  0.00  0.00    +0.099 C 
BRANCH   3   6
ATOM      4  N   UNL     1     -35.340  21.427   5.214  0.00  0.00    -0.319 N 
ATOM      5  N   UNL     1     -36.034  23.536   5.274  0.00  0.00    -0.318 N 
ATOM      6  C   UNL     1     -36.054  23.046   4.009  0.00  0.00    +0.043 C 
ATOM      7  C   UNL     1     -35.638  21.760   3.922  0.00  0.00    +0.033 C 
ATOM      8  C   UNL     1     -35.483  20.813   2.806  0.00  0.00    +0.048 C 
ATOM      9  C   UNL     1     -35.594  22.524   5.989  0.00  0.00    +0.181 C 
ATOM     10  H   UNL     1     -35.005  20.555   5.528  0.00  0.00    +0.148 HD
ATOM     11  H   UNL     1     -36.288  24.435   5.583  0.00  0.00    +0.148 HD
ENDBRANCH   3   6
ENDBRANCH   2   3
ENDBRANCH   1   2
BRANCH   1  12
ATOM     12  C   UNL     1     -36.373  26.380   1.827  0.00  0.00    +0.140 C 
BRANCH  12  13
ATOM     13  N   UNL     1     -35.858  27.673   2.242  0.00  0.00    -0.237 NA
ATOM     14  N   UNL     1     -34.046  26.720   3.582  0.00  0.00    -0.217 N 
ATOM     15  N   UNL     1     -34.370  29.071   3.402  0.00  0.00    -0.262 N 
ATOM     16  C   UNL     1     -34.832  27.750   3.026  0.00  0.00    +0.228 C 
ATOM     17  C   UNL     1     -32.868  26.242   2.835  0.00  0.00    +0.153 C 
ATOM     18  H   UNL     1     -33.632  29.191   4.044  0.00  0.00    +0.181 HD
BRANCH  14  20
ATOM     19  O   UNL     1     -35.457  26.683   5.251  0.00  0.00    -0.076 OA
ATOM     20  N   UNL     1     -34.479  26.131   4.733  0.00  0.00    +0.062 NA
ENDBRANCH  14  20
BRANCH  15  22
ATOM     21  N   UNL     1     -35.525  31.029   2.355  0.00  0.00    -0.171 NA
ATOM     22  C   UNL     1     -34.985  30.124   2.843  0.00  0.00    +0.184 C 
ENDBRANCH  15  22
ENDBRANCH  12  13
ENDBRANCH   1  12
TORSDOF 7
ENDMDL
MODEL 4
REMARK VINA RESULT:      -5.2      4.418      5.727
REMARK  Name = 52445
REMARK  7 active torsions:
REMARK  status: ('A' for Active; 'I' for Inactive)
REMARK    1  A    between atoms: C_1  and  S_2
REMARK    2  A    between atoms: C_1  and  C_12
REMARK    3  A    between atoms: S_2  and  C_3
REMARK    4  A    between atoms: C_3  and  C_6
REMARK    5  A    between atoms: C_12  and  N_13
REMARK    6  A    between atoms: N_14  and  N_20
REMARK    7  A    between atoms: N_15  and  C_22
REMARK                            x       y       z     vdW  Elec       q    Type
REMARK                         _______ _______ _______ _____ _____    ______ ____
ROOT
ATOM      1  C   UNL     1     -35.320  23.019   0.836  0.00  0.00    +0.084 C 
ENDROOT
BRANCH   1   2
ATOM      2  S   UNL     1     -34.520  21.395   0.965  0.00  0.00    -0.132 S 
BRANCH   2   3
ATOM      3  C   UNL     1     -35.650  20.638   2.154  0.00  0.00    +0.099 C 
BRANCH   3   6
ATOM      4  N   UNL     1     -39.016  20.802   0.841  0.00  0.00    -0.319 N 
ATOM      5  N   UNL     1     -37.869  21.642   2.547  0.00  0.00    -0.318 N 
ATOM      6  C   UNL     1     -37.092  20.840   1.777  0.00  0.00    +0.043 C 
ATOM      7  C   UNL     1     -37.749  20.303   0.722  0.00  0.00    +0.033 C 
ATOM      8  C   UNL     1     -37.356  19.397  -0.369  0.00  0.00    +0.048 C 
ATOM      9  C   UNL     1     -39.040  21.600   1.950  0.00  0.00    +0.181 C 
ATOM     10  H   UNL     1     -39.773  20.619   0.237  0.00  0.00    +0.148 HD
ATOM     11  H   UNL     1     -37.617  22.137   3.359  0.00  0.00    +0.148 HD
ENDBRANCH   3   6
ENDBRANCH   2   3
ENDBRANCH   1   2
BRANCH   1  12
ATOM     12  C   UNL     1     -35.020  23.865   2.064  0.00  0.00    +0.140 C 
BRANCH  12  13
ATOM     13  N   UNL     1     -36.250  24.499   2.504  0.00  0.00    -0.237 NA
ATOM     14  N   UNL     1     -35.908  23.935   4.860  0.00  0.00    -0.217 N 
ATOM     15  N   UNL     1     -37.827  25.137   4.124  0.00  0.00    -0.262 N 
ATOM     16  C   UNL     1     -36.587  24.485   3.753  0.00  0.00    +0.228 C 
ATOM     17  C   UNL     1     -34.949  24.778   5.597  0.00  0.00    +0.153 C 
ATOM     18  H   UNL     1     -38.164  25.105   5.049  0.00  0.00    +0.181 HD
BRANCH  14  20
ATOM     19  O   UNL     1     -35.999  22.319   6.328  0.00  0.00    -0.076 OA
ATOM     20  N   UNL     1     -36.084  22.610   5.129  0.00  0.00    +0.062 NA
ENDBRANCH  14  20
BRANCH  15  22
ATOM     21  N   UNL     1     -39.088  26.343   2.330  0.00  0.00    -0.171 NA
ATOM     22  C   UNL     1     -38.498  25.784   3.159  0.00  0.00    +0.184 C 
ENDBRANCH  15  22
ENDBRANCH  12  13
ENDBRANCH   1  12
TORSDOF 7
ENDMDL
MODEL 5
REMARK VINA RESULT:      -5.0      3.873      5.679
REMARK  Name = 52445
REMARK  7 active torsions:
REMARK  status: ('A' for Active; 'I' for Inactive)
REMARK    1  A    between atoms: C_1  and  S_2
REMARK    2  A    between atoms: C_1  and  C_12
REMARK    3  A    between atoms: S_2  and  C_3
REMARK    4  A    between atoms: C_3  and  C_6
REMARK    5  A    between atoms: C_12  and  N_13
REMARK    6  A    between atoms: N_14  and  N_20
REMARK    7  A    between atoms: N_15  and  C_22
REMARK                            x       y       z     vdW  Elec       q    Type
REMARK                         _______ _______ _______ _____ _____    ______ ____
ROOT
ATOM      1  C   UNL     1     -35.468  22.706   2.847  0.00  0.00    +0.084 C 
ENDROOT
BRANCH   1   2
ATOM      2  S   UNL     1     -35.448  20.907   2.620  0.00  0.00    -0.132 S 
BRANCH   2   3
ATOM      3  C   UNL     1     -36.382  20.826   1.076  0.00  0.00    +0.099 C 
BRANCH   3   6
ATOM      4  N   UNL     1     -39.573  22.529   1.022  0.00  0.00    -0.319 N 
ATOM      5  N   UNL     1     -38.597  20.891   2.160  0.00  0.00    -0.318 N 
ATOM      6  C   UNL     1     -37.765  21.400   1.217  0.00  0.00    +0.043 C 
ATOM      7  C   UNL     1     -38.318  22.404   0.496  0.00  0.00    +0.033 C 
ATOM      8  C   UNL     1     -37.835  23.250  -0.607  0.00  0.00    +0.048 C 
ATOM      9  C   UNL     1     -39.695  21.601   2.018  0.00  0.00    +0.181 C 
ATOM     10  H   UNL     1     -40.263  23.171   0.735  0.00  0.00    +0.148 HD
ATOM     11  H   UNL     1     -38.421  20.163   2.799  0.00  0.00    +0.148 HD
ENDBRANCH   3   6
ENDBRANCH   2   3
ENDBRANCH   1   2
BRANCH   1  12
ATOM     12  C   UNL     1     -36.225  23.081   4.111  0.00  0.00    +0.140 C 
BRANCH  12  13
ATOM     13  N   UNL     1     -37.278  24.020   3.763  0.00  0.00    -0.237 NA
ATOM     14  N   UNL     1     -35.908  25.997   4.213  0.00  0.00    -0.217 N 
ATOM     15  N   UNL     1     -38.165  26.176   3.477  0.00  0.00    -0.262 N 
ATOM     16  C   UNL     1     -37.072  25.295   3.839  0.00  0.00    +0.228 C 
ATOM     17  C   UNL     1     -34.932  26.362   3.169  0.00  0.00    +0.153 C 
ATOM     18  H   UNL     1     -38.087  27.153   3.574  0.00  0.00    +0.181 HD
BRANCH  14  20
ATOM     19  O   UNL     1     -34.511  26.500   5.816  0.00  0.00    -0.076 OA
ATOM     20  N   UNL     1     -35.680  26.205   5.541  0.00  0.00    +0.062 NA
ENDBRANCH  14  20
BRANCH  15  22
ATOM     21  N   UNL     1     -40.254  25.110   2.603  0.00  0.00    -0.171 NA
ATOM     22  C   UNL     1     -39.286  25.609   3.006  0.00  0.00    +0.184 C 
ENDBRANCH  15  22
ENDBRANCH  12  13
ENDBRANCH   1  12
TORSDOF 7
ENDMDL
MODEL 6
REMARK VINA RESULT:      -5.0      3.310      6.283
REMARK  Name = 52445
REMARK  7 active torsions:
REMARK  status: ('A' for Active; 'I' for Inactive)
REMARK    1  A    between atoms: C_1  and  S_2
REMARK    2  A    between atoms: C_1  and  C_12
REMARK    3  A    between atoms: S_2  and  C_3
REMARK    4  A    between atoms: C_3  and  C_6
REMARK    5  A    between atoms: C_12  and  N_13
REMARK    6  A    between atoms: N_14  and  N_20
REMARK    7  A    between atoms: N_15  and  C_22
REMARK                            x       y       z     vdW  Elec       q    Type
REMARK                         _______ _______ _______ _____ _____    ______ ____
ROOT
ATOM      1  C   UNL     1     -34.342  25.069   1.165  0.00  0.00    +0.084 C 
ENDROOT
BRANCH   1   2
ATOM      2  S   UNL     1     -35.885  26.014   1.030  0.00  0.00    -0.132 S 
BRANCH   2   3
ATOM      3  C   UNL     1     -35.489  27.334   2.198  0.00  0.00    +0.099 C 
BRANCH   3   6
ATOM      4  N   UNL     1     -34.686  26.295   5.569  0.00  0.00    -0.319 N 
ATOM      5  N   UNL     1     -36.427  26.222   4.191  0.00  0.00    -0.318 N 
ATOM      6  C   UNL     1     -35.361  26.826   3.608  0.00  0.00    +0.043 C 
ATOM      7  C   UNL     1     -34.273  26.895   4.412  0.00  0.00    +0.033 C 
ATOM      8  C   UNL     1     -32.917  27.440   4.245  0.00  0.00    +0.048 C 
ATOM      9  C   UNL     1     -35.985  25.907   5.389  0.00  0.00    +0.181 C 
ATOM     10  H   UNL     1     -34.147  26.166   6.383  0.00  0.00    +0.148 HD
ATOM     11  H   UNL     1     -37.319  26.058   3.808  0.00  0.00    +0.148 HD
ENDBRANCH   3   6
ENDBRANCH   2   3
ENDBRANCH   1   2
BRANCH   1  12
ATOM     12  C   UNL     1     -34.568  23.775   1.931  0.00  0.00    +0.140 C 
BRANCH  12  13
ATOM     13  N   UNL     1     -35.991  23.624   2.180  0.00  0.00    -0.237 NA
ATOM     14  N   UNL     1     -35.693  21.850   3.840  0.00  0.00    -0.217 N 
ATOM     15  N   UNL     1     -37.852  22.648   3.231  0.00  0.00    -0.262 N 
ATOM     16  C   UNL     1     -36.420  22.747   3.030  0.00  0.00    +0.228 C 
ATOM     17  C   UNL     1     -35.278  22.284   5.186  0.00  0.00    +0.153 C 
ATOM     18  H   UNL     1     -38.239  21.959   3.818  0.00  0.00    +0.181 HD
BRANCH  14  20
ATOM     19  O   UNL     1     -36.147  20.146   2.549  0.00  0.00    -0.076 OA
ATOM     20  N   UNL     1     -35.306  20.662   3.295  0.00  0.00    +0.062 NA
ENDBRANCH  14  20
BRANCH  15  22
ATOM     21  N   UNL     1     -39.310  24.293   2.034  0.00  0.00    -0.171 NA
ATOM     22  C   UNL     1     -38.630  23.530   2.585  0.00  0.00    +0.184 C 
ENDBRANCH  15  22
ENDBRANCH  12  13
ENDBRANCH   1  12
TORSDOF 7
ENDMDL
MODEL 7
REMARK VINA RESULT:      -5.0      1.662      2.814
REMARK  Name = 52445
REMARK  7 active torsions:
REMARK  status: ('A' for Active; 'I' for Inactive)
REMARK    1  A    between atoms: C_1  and  S_2
REMARK    2  A    between atoms: C_1  and  C_12
REMARK    3  A    between atoms: S_2  and  C_3
REMARK    4  A    between atoms: C_3  and  C_6
REMARK    5  A    between atoms: C_12  and  N_13
REMARK    6  A    between atoms: N_14  and  N_20
REMARK    7  A    between atoms: N_15  and  C_22
REMARK                            x       y       z     vdW  Elec       q    Type
REMARK                         _______ _______ _______ _____ _____    ______ ____
ROOT
ATOM      1  C   UNL     1     -34.885  26.580   3.922  0.00  0.00    +0.084 C 
ENDROOT
BRANCH   1   2
ATOM      2  S   UNL     1     -36.327  25.753   4.647  0.00  0.00    -0.132 S 
BRANCH   2   3
ATOM      3  C   UNL     1     -36.233  24.202   3.724  0.00  0.00    +0.099 C 
BRANCH   3   6
ATOM      4  N   UNL     1     -35.207  21.149   5.371  0.00  0.00    -0.319 N 
ATOM      5  N   UNL     1     -35.759  23.224   5.939  0.00  0.00    -0.318 N 
ATOM      6  C   UNL     1     -35.823  23.047   4.595  0.00  0.00    +0.043 C 
ATOM      7  C   UNL     1     -35.494  21.794   4.200  0.00  0.00    +0.033 C 
ATOM      8  C   UNL     1     -35.413  21.127   2.891  0.00  0.00    +0.048 C 
ATOM      9  C   UNL     1     -35.380  22.047   6.387  0.00  0.00    +0.181 C 
ATOM     10  H   UNL     1     -34.927  20.209   5.464  0.00  0.00    +0.148 HD
ATOM     11  H   UNL     1     -35.950  24.040   6.455  0.00  0.00    +0.148 HD
ENDBRANCH   3   6
ENDBRANCH   2   3
ENDBRANCH   1   2
BRANCH   1  12
ATOM     12  C   UNL     1     -33.755  26.678   4.935  0.00  0.00    +0.140 C 
BRANCH  12  13
ATOM     13  N   UNL     1     -32.512  26.926   4.225  0.00  0.00    -0.237 NA
ATOM     14  N   UNL     1     -32.236  29.182   5.132  0.00  0.00    -0.217 N 
ATOM     15  N   UNL     1     -30.663  28.239   3.614  0.00  0.00    -0.262 N 
ATOM     16  C   UNL     1     -31.898  28.058   4.351  0.00  0.00    +0.228 C 
ATOM     17  C   UNL     1     -31.723  29.269   6.512  0.00  0.00    +0.153 C 
ATOM     18  H   UNL     1     -30.185  29.100   3.623  0.00  0.00    +0.181 HD
BRANCH  14  20
ATOM     19  O   UNL     1     -32.629  30.850   3.777  0.00  0.00    -0.076 OA
ATOM     20  N   UNL     1     -33.118  30.083   4.614  0.00  0.00    +0.062 NA
ENDBRANCH  14  20
BRANCH  15  22
ATOM     21  N   UNL     1     -29.786  26.279   2.328  0.00  0.00    -0.171 NA
ATOM     22  C   UNL     1     -30.197  27.189   2.921  0.00  0.00    +0.184 C 
ENDBRANCH  15  22
ENDBRANCH  12  13
ENDBRANCH   1  12
TORSDOF 7
ENDMDL
MODEL 8
REMARK VINA RESULT:      -4.9      4.241      5.555
REMARK  Name = 52445
REMARK  7 active torsions:
REMARK  status: ('A' for Active; 'I' for Inactive)
REMARK    1  A    between atoms: C_1  and  S_2
REMARK    2  A    between atoms: C_1  and  C_12
REMARK    3  A    between atoms: S_2  and  C_3
REMARK    4  A    between atoms: C_3  and  C_6
REMARK    5  A    between atoms: C_12  and  N_13
REMARK    6  A    between atoms: N_14  and  N_20
REMARK    7  A    between atoms: N_15  and  C_22
REMARK                            x       y       z     vdW  Elec       q    Type
REMARK                         _______ _______ _______ _____ _____    ______ ____
ROOT
ATOM      1  C   UNL     1     -34.879  24.792   0.639  0.00  0.00    +0.084 C 
ENDROOT
BRANCH   1   2
ATOM      2  S   UNL     1     -34.013  23.239   0.278  0.00  0.00    -0.132 S 
BRANCH   2   3
ATOM      3  C   UNL     1     -35.430  22.275  -0.297  0.00  0.00    +0.099 C 
BRANCH   3   6
ATOM      4  N   UNL     1     -37.054  20.753   2.554  0.00  0.00    -0.319 N 
ATOM      5  N   UNL     1     -37.518  22.287   1.016  0.00  0.00    -0.318 N 
ATOM      6  C   UNL     1     -36.275  21.773   0.841  0.00  0.00    +0.043 C 
ATOM      7  C   UNL     1     -35.946  20.831   1.758  0.00  0.00    +0.033 C 
ATOM      8  C   UNL     1     -34.749  20.006   1.985  0.00  0.00    +0.048 C 
ATOM      9  C   UNL     1     -37.971  21.645   2.071  0.00  0.00    +0.181 C 
ATOM     10  H   UNL     1     -37.170  20.163   3.334  0.00  0.00    +0.148 HD
ATOM     11  H   UNL     1     -37.973  22.977   0.482  0.00  0.00    +0.148 HD
ENDBRANCH   3   6
ENDBRANCH   2   3
ENDBRANCH   1   2
BRANCH   1  12
ATOM     12  C   UNL     1     -35.006  25.000   2.140  0.00  0.00    +0.140 C 
BRANCH  12  13
ATOM     13  N   UNL     1     -36.414  24.965   2.498  0.00  0.00    -0.237 NA
ATOM     14  N   UNL     1     -35.983  24.700   4.892  0.00  0.00    -0.217 N 
ATOM     15  N   UNL     1     -38.195  24.794   4.019  0.00  0.00    -0.262 N 
ATOM     16  C   UNL     1     -36.775  24.821   3.732  0.00  0.00    +0.228 C 
ATOM     17  C   UNL     1     -35.600  25.923   5.622  0.00  0.00    +0.153 C 
ATOM     18  H   UNL     1     -38.529  24.625   4.930  0.00  0.00    +0.181 HD
BRANCH  14  20
ATOM     19  O   UNL     1     -36.339  22.555   5.109  0.00  0.00    -0.076 OA
ATOM     20  N   UNL     1     -35.508  23.465   5.221  0.00  0.00    +0.062 NA
ENDBRANCH  14  20
BRANCH  15  22
ATOM     21  N   UNL     1     -39.774  25.191   2.118  0.00  0.00    -0.171 NA
ATOM     22  C   UNL     1     -39.037  25.006   2.996  0.00  0.00    +0.184 C 
ENDBRANCH  15  22
ENDBRANCH  12  13
ENDBRANCH   1  12
TORSDOF 7
ENDMDL
MODEL 9
REMARK VINA RESULT:      -4.9      3.566      5.315
REMARK  Name = 52445
REMARK  7 active torsions:
REMARK  status: ('A' for Active; 'I' for Inactive)
REMARK    1  A    between atoms: C_1  and  S_2
REMARK    2  A    between atoms: C_1  and  C_12
REMARK    3  A    between atoms: S_2  and  C_3
REMARK    4  A    between atoms: C_3  and  C_6
REMARK    5  A    between atoms: C_12  and  N_13
REMARK    6  A    between atoms: N_14  and  N_20
REMARK    7  A    between atoms: N_15  and  C_22
REMARK                            x       y       z     vdW  Elec       q    Type
REMARK                         _______ _______ _______ _____ _____    ______ ____
ROOT
ATOM      1  C   UNL     1     -34.096  23.680   0.922  0.00  0.00    +0.084 C 
ENDROOT
BRANCH   1   2
ATOM      2  S   UNL     1     -35.314  23.851  -0.412  0.00  0.00    -0.132 S 
BRANCH   2   3
ATOM      3  C   UNL     1     -35.819  22.120  -0.531  0.00  0.00    +0.099 C 
BRANCH   3   6
ATOM      4  N   UNL     1     -37.096  20.689   2.536  0.00  0.00    -0.319 N 
ATOM      5  N   UNL     1     -37.762  22.137   0.989  0.00  0.00    -0.318 N 
ATOM      6  C   UNL     1     -36.528  21.648   0.709  0.00  0.00    +0.043 C 
ATOM      7  C   UNL     1     -36.078  20.759   1.626  0.00  0.00    +0.033 C 
ATOM      8  C   UNL     1     -34.839  19.978   1.765  0.00  0.00    +0.048 C 
ATOM      9  C   UNL     1     -38.085  21.532   2.112  0.00  0.00    +0.181 C 
ATOM     10  H   UNL     1     -37.113  20.132   3.348  0.00  0.00    +0.148 HD
ATOM     11  H   UNL     1     -38.290  22.789   0.475  0.00  0.00    +0.148 HD
ENDBRANCH   3   6
ENDBRANCH   2   3
ENDBRANCH   1   2
BRANCH   1  12
ATOM     12  C   UNL     1     -34.433  24.606   2.080  0.00  0.00    +0.140 C 
BRANCH  12  13
ATOM     13  N   UNL     1     -34.835  23.801   3.220  0.00  0.00    -0.237 NA
ATOM     14  N   UNL     1     -36.340  25.506   4.121  0.00  0.00    -0.217 N 
ATOM     15  N   UNL     1     -36.032  23.408   5.202  0.00  0.00    -0.262 N 
ATOM     16  C   UNL     1     -35.675  24.264   4.089  0.00  0.00    +0.228 C 
ATOM     17  C   UNL     1     -37.653  25.627   3.462  0.00  0.00    +0.153 C 
ATOM     18  H   UNL     1     -36.618  23.729   5.926  0.00  0.00    +0.181 HD
BRANCH  14  20
ATOM     19  O   UNL     1     -35.010  26.301   5.662  0.00  0.00    -0.076 OA
ATOM     20  N   UNL     1     -35.684  26.573   4.662  0.00  0.00    +0.062 NA
ENDBRANCH  14  20
BRANCH  15  22
ATOM     21  N   UNL     1     -35.110  21.081   5.223  0.00  0.00    -0.171 NA
ATOM     22  C   UNL     1     -35.534  22.162   5.209  0.00  0.00    +0.184 C 
ENDBRANCH  15  22
ENDBRANCH  12  13
ENDBRANCH   1  12
TORSDOF 7
ENDMDL
