MODEL 1
REMARK VINA RESULT:      -6.8      0.000      0.000
REMARK  Name = 5583
REMARK  6 active torsions:
REMARK  status: ('A' for Active; 'I' for Inactive)
REMARK    1  A    between atoms: C_5  and  C_18
REMARK    2  A    between atoms: C_18  and  N_19
REMARK    3  A    between atoms: N_19  and  C_21
REMARK    4  A    between atoms: C_24  and  O_27
REMARK    5  A    between atoms: C_25  and  O_29
REMARK    6  A    between atoms: C_26  and  O_31
REMARK                            x       y       z     vdW  Elec       q    Type
REMARK                         _______ _______ _______ _____ _____    ______ ____
ROOT
ATOM      1  N   UNL     1     -30.548  17.259   1.132  0.00  0.00    -0.332 NA
ATOM      2  N   UNL     1     -28.842  18.447  -0.087  0.00  0.00    -0.317 NA
ATOM      3  N   UNL     1     -29.246  20.528  -1.035  0.00  0.00    -0.335 N 
ATOM      4  N   UNL     1     -28.403  16.348   0.857  0.00  0.00    -0.283 N 
ATOM      5  C   UNL     1     -33.255  20.356   0.459  0.00  0.00    -0.010 C 
ATOM      6  C   UNL     1     -31.960  20.448  -0.042  0.00  0.00    -0.032 C 
ATOM      7  C   UNL     1     -31.044  19.405   0.183  0.00  0.00    +0.139 C 
ATOM      8  C   UNL     1     -31.415  18.262   0.910  0.00  0.00    +0.134 C 
ATOM      9  C   UNL     1     -33.634  19.230   1.181  0.00  0.00    -0.001 C 
ATOM     10  C   UNL     1     -32.717  18.198   1.400  0.00  0.00    +0.029 C 
ATOM     11  C   UNL     1     -31.632  21.693  -0.810  0.00  0.00    +0.027 C 
ATOM     12  C   UNL     1     -29.736  19.433  -0.290  0.00  0.00    +0.178 C 
ATOM     13  C   UNL     1     -29.308  17.405   0.621  0.00  0.00    +0.197 C 
ATOM     14  H   UNL     1     -28.317  20.527  -1.361  0.00  0.00    +0.144 HD
ATOM     15  H   UNL     1     -29.834  21.293  -1.230  0.00  0.00    +0.144 HD
ATOM     16  H   UNL     1     -28.691  15.559   1.370  0.00  0.00    +0.156 HD
ATOM     17  H   UNL     1     -27.484  16.399   0.508  0.00  0.00    +0.156 HD
ENDROOT
BRANCH   5  18
ATOM     18  C   UNL     1     -34.259  21.440   0.244  0.00  0.00    +0.114 C 
BRANCH  18  19
ATOM     19  N   UNL     1     -35.359  21.315   1.174  0.00  0.00    -0.329 N 
ATOM     20  H   UNL     1     -35.897  20.492   1.151  0.00  0.00    +0.147 HD
BRANCH  19  21
ATOM     21  C   UNL     1     -35.696  22.290   2.099  0.00  0.00    +0.051 C 
ATOM     22  C   UNL     1     -36.011  23.599   1.688  0.00  0.00    +0.055 C 
ATOM     23  C   UNL     1     -35.733  21.999   3.476  0.00  0.00    +0.055 C 
ATOM     24  C   UNL     1     -36.071  22.981   4.407  0.00  0.00    +0.177 C 
ATOM     25  C   UNL     1     -36.350  24.582   2.618  0.00  0.00    +0.177 C 
ATOM     26  C   UNL     1     -36.380  24.272   3.977  0.00  0.00    +0.206 C 
BRANCH  24  27
ATOM     27  O   UNL     1     -36.097  22.666   5.732  0.00  0.00    -0.468 OA
ATOM     28  C   UNL     1     -35.072  21.800   6.212  0.00  0.00    +0.253 C 
ENDBRANCH  24  27
BRANCH  25  29
ATOM     29  O   UNL     1     -36.649  25.839   2.186  0.00  0.00    -0.468 OA
ATOM     30  C   UNL     1     -35.553  26.686   1.848  0.00  0.00    +0.253 C 
ENDBRANCH  25  29
BRANCH  26  31
ATOM     31  O   UNL     1     -36.712  25.232   4.888  0.00  0.00    -0.465 OA
ATOM     32  C   UNL     1     -35.637  25.934   5.509  0.00  0.00    +0.253 C 
ENDBRANCH  26  31
ENDBRANCH  19  21
ENDBRANCH  18  19
ENDBRANCH   5  18
TORSDOF 6
ENDMDL
MODEL 2
REMARK VINA RESULT:      -6.8      0.930      2.588
REMARK  Name = 5583
REMARK  6 active torsions:
REMARK  status: ('A' for Active; 'I' for Inactive)
REMARK    1  A    between atoms: C_5  and  C_18
REMARK    2  A    between atoms: C_18  and  N_19
REMARK    3  A    between atoms: N_19  and  C_21
REMARK    4  A    between atoms: C_24  and  O_27
REMARK    5  A    between atoms: C_25  and  O_29
REMARK    6  A    between atoms: C_26  and  O_31
REMARK                            x       y       z     vdW  Elec       q    Type
REMARK                         _______ _______ _______ _____ _____    ______ ____
ROOT
ATOM      1  N   UNL     1     -31.309  17.648   1.163  0.00  0.00    -0.332 NA
ATOM      2  N   UNL     1     -29.517  18.669  -0.083  0.00  0.00    -0.317 NA
ATOM      3  N   UNL     1     -29.756  20.754  -1.078  0.00  0.00    -0.335 N 
ATOM      4  N   UNL     1     -29.243  16.563   0.908  0.00  0.00    -0.283 N 
ATOM      5  C   UNL     1     -33.762  20.935   0.423  0.00  0.00    -0.010 C 
ATOM      6  C   UNL     1     -32.466  20.912  -0.081  0.00  0.00    -0.032 C 
ATOM      7  C   UNL     1     -31.635  19.805   0.166  0.00  0.00    +0.139 C 
ATOM      8  C   UNL     1     -32.094  18.711   0.920  0.00  0.00    +0.134 C 
ATOM      9  C   UNL     1     -34.227  19.859   1.170  0.00  0.00    -0.001 C 
ATOM     10  C   UNL     1     -33.396  18.762   1.412  0.00  0.00    +0.029 C 
ATOM     11  C   UNL     1     -32.042  22.110  -0.877  0.00  0.00    +0.027 C 
ATOM     12  C   UNL     1     -30.330  19.718  -0.308  0.00  0.00    +0.178 C 
ATOM     13  C   UNL     1     -30.062  17.684   0.648  0.00  0.00    +0.197 C 
ATOM     14  H   UNL     1     -28.831  20.671  -1.404  0.00  0.00    +0.144 HD
ATOM     15  H   UNL     1     -30.282  21.559  -1.290  0.00  0.00    +0.144 HD
ATOM     16  H   UNL     1     -29.592  15.812   1.438  0.00  0.00    +0.156 HD
ATOM     17  H   UNL     1     -28.324  16.534   0.557  0.00  0.00    +0.156 HD
ENDROOT
BRANCH   5  18
ATOM     18  C   UNL     1     -34.678  22.091   0.184  0.00  0.00    +0.114 C 
BRANCH  18  19
ATOM     19  N   UNL     1     -35.685  22.172   1.219  0.00  0.00    -0.329 N 
ATOM     20  H   UNL     1     -36.449  21.553   1.174  0.00  0.00    +0.147 HD
BRANCH  19  21
ATOM     21  C   UNL     1     -35.633  23.071   2.270  0.00  0.00    +0.051 C 
ATOM     22  C   UNL     1     -35.809  22.642   3.600  0.00  0.00    +0.055 C 
ATOM     23  C   UNL     1     -35.402  24.441   2.041  0.00  0.00    +0.055 C 
ATOM     24  C   UNL     1     -35.350  25.347   3.100  0.00  0.00    +0.177 C 
ATOM     25  C   UNL     1     -35.757  23.547   4.660  0.00  0.00    +0.177 C 
ATOM     26  C   UNL     1     -35.528  24.899   4.409  0.00  0.00    +0.206 C 
BRANCH  24  27
ATOM     27  O   UNL     1     -35.126  26.666   2.842  0.00  0.00    -0.468 OA
ATOM     28  C   UNL     1     -36.104  27.350   2.062  0.00  0.00    +0.253 C 
ENDBRANCH  24  27
BRANCH  25  29
ATOM     29  O   UNL     1     -35.932  23.097   5.934  0.00  0.00    -0.468 OA
ATOM     30  C   UNL     1     -35.262  21.890   6.293  0.00  0.00    +0.253 C 
ENDBRANCH  25  29
BRANCH  26  31
ATOM     31  O   UNL     1     -35.477  25.785   5.446  0.00  0.00    -0.465 OA
ATOM     32  C   UNL     1     -34.188  26.093   5.971  0.00  0.00    +0.253 C 
ENDBRANCH  26  31
ENDBRANCH  19  21
ENDBRANCH  18  19
ENDBRANCH   5  18
TORSDOF 6
ENDMDL
MODEL 3
REMARK VINA RESULT:      -6.5      1.998      3.470
REMARK  Name = 5583
REMARK  6 active torsions:
REMARK  status: ('A' for Active; 'I' for Inactive)
REMARK    1  A    between atoms: C_5  and  C_18
REMARK    2  A    between atoms: C_18  and  N_19
REMARK    3  A    between atoms: N_19  and  C_21
REMARK    4  A    between atoms: C_24  and  O_27
REMARK    5  A    between atoms: C_25  and  O_29
REMARK    6  A    between atoms: C_26  and  O_31
REMARK                            x       y       z     vdW  Elec       q    Type
REMARK                         _______ _______ _______ _____ _____    ______ ____
ROOT
ATOM      1  N   UNL     1     -30.328  17.859   0.585  0.00  0.00    -0.332 NA
ATOM      2  N   UNL     1     -30.854  15.566   0.063  0.00  0.00    -0.317 NA
ATOM      3  N   UNL     1     -33.035  14.876  -0.338  0.00  0.00    -0.335 N 
ATOM      4  N   UNL     1     -28.643  16.230   0.463  0.00  0.00    -0.283 N 
ATOM      5  C   UNL     1     -34.355  18.898   0.305  0.00  0.00    -0.010 C 
ATOM      6  C   UNL     1     -33.964  17.581   0.089  0.00  0.00    -0.032 C 
ATOM      7  C   UNL     1     -32.606  17.226   0.183  0.00  0.00    +0.139 C 
ATOM      8  C   UNL     1     -31.629  18.187   0.493  0.00  0.00    +0.134 C 
ATOM      9  C   UNL     1     -33.397  19.857   0.612  0.00  0.00    -0.001 C 
ATOM     10  C   UNL     1     -32.049  19.497   0.703  0.00  0.00    +0.029 C 
ATOM     11  C   UNL     1     -35.057  16.608  -0.237  0.00  0.00    +0.027 C 
ATOM     12  C   UNL     1     -32.148  15.929  -0.021  0.00  0.00    +0.178 C 
ATOM     13  C   UNL     1     -30.011  16.567   0.365  0.00  0.00    +0.197 C 
ATOM     14  H   UNL     1     -32.689  13.965  -0.478  0.00  0.00    +0.144 HD
ATOM     15  H   UNL     1     -34.000  15.053  -0.419  0.00  0.00    +0.144 HD
ATOM     16  H   UNL     1     -27.981  16.924   0.682  0.00  0.00    +0.156 HD
ATOM     17  H   UNL     1     -28.352  15.302   0.313  0.00  0.00    +0.156 HD
ENDROOT
BRANCH   5  18
ATOM     18  C   UNL     1     -35.786  19.318   0.215  0.00  0.00    +0.114 C 
BRANCH  18  19
ATOM     19  N   UNL     1     -36.374  19.425   1.531  0.00  0.00    -0.329 N 
ATOM     20  H   UNL     1     -36.633  18.597   1.995  0.00  0.00    +0.147 HD
BRANCH  19  21
ATOM     21  C   UNL     1     -36.593  20.631   2.177  0.00  0.00    +0.051 C 
ATOM     22  C   UNL     1     -35.697  21.100   3.157  0.00  0.00    +0.055 C 
ATOM     23  C   UNL     1     -37.717  21.422   1.872  0.00  0.00    +0.055 C 
ATOM     24  C   UNL     1     -37.938  22.635   2.524  0.00  0.00    +0.177 C 
ATOM     25  C   UNL     1     -35.917  22.313   3.809  0.00  0.00    +0.177 C 
ATOM     26  C   UNL     1     -37.037  23.081   3.491  0.00  0.00    +0.206 C 
BRANCH  24  27
ATOM     27  O   UNL     1     -39.036  23.375   2.205  0.00  0.00    -0.468 OA
ATOM     28  C   UNL     1     -39.919  22.837   1.223  0.00  0.00    +0.253 C 
ENDBRANCH  24  27
BRANCH  25  29
ATOM     29  O   UNL     1     -35.030  22.737   4.752  0.00  0.00    -0.468 OA
ATOM     30  C   UNL     1     -35.196  22.228   6.073  0.00  0.00    +0.253 C 
ENDBRANCH  25  29
BRANCH  26  31
ATOM     31  O   UNL     1     -37.252  24.268   4.128  0.00  0.00    -0.465 OA
ATOM     32  C   UNL     1     -36.688  25.433   3.533  0.00  0.00    +0.253 C 
ENDBRANCH  26  31
ENDBRANCH  19  21
ENDBRANCH  18  19
ENDBRANCH   5  18
TORSDOF 6
ENDMDL
MODEL 4
REMARK VINA RESULT:      -6.5      4.868      7.305
REMARK  Name = 5583
REMARK  6 active torsions:
REMARK  status: ('A' for Active; 'I' for Inactive)
REMARK    1  A    between atoms: C_5  and  C_18
REMARK    2  A    between atoms: C_18  and  N_19
REMARK    3  A    between atoms: N_19  and  C_21
REMARK    4  A    between atoms: C_24  and  O_27
REMARK    5  A    between atoms: C_25  and  O_29
REMARK    6  A    between atoms: C_26  and  O_31
REMARK                            x       y       z     vdW  Elec       q    Type
REMARK                         _______ _______ _______ _____ _____    ______ ____
ROOT
ATOM      1  N   UNL     1     -35.790  20.623   3.282  0.00  0.00    -0.332 NA
ATOM      2  N   UNL     1     -36.796  21.573   1.309  0.00  0.00    -0.317 NA
ATOM      3  N   UNL     1     -37.195  23.853   1.119  0.00  0.00    -0.335 N 
ATOM      4  N   UNL     1     -36.407  19.268   1.469  0.00  0.00    -0.283 N 
ATOM      5  C   UNL     1     -35.537  24.400   5.028  0.00  0.00    -0.010 C 
ATOM      6  C   UNL     1     -36.082  24.261   3.756  0.00  0.00    -0.032 C 
ATOM      7  C   UNL     1     -36.169  22.989   3.164  0.00  0.00    +0.139 C 
ATOM      8  C   UNL     1     -35.712  21.845   3.839  0.00  0.00    +0.134 C 
ATOM      9  C   UNL     1     -35.081  23.275   5.706  0.00  0.00    -0.001 C 
ATOM     10  C   UNL     1     -35.171  22.013   5.111  0.00  0.00    +0.029 C 
ATOM     11  C   UNL     1     -36.550  25.522   3.094  0.00  0.00    +0.027 C 
ATOM     12  C   UNL     1     -36.702  22.781   1.896  0.00  0.00    +0.178 C 
ATOM     13  C   UNL     1     -36.329  20.553   2.047  0.00  0.00    +0.197 C 
ATOM     14  H   UNL     1     -37.569  23.682   0.225  0.00  0.00    +0.144 HD
ATOM     15  H   UNL     1     -37.166  24.771   1.473  0.00  0.00    +0.144 HD
ATOM     16  H   UNL     1     -36.080  18.484   1.966  0.00  0.00    +0.156 HD
ATOM     17  H   UNL     1     -36.791  19.155   0.569  0.00  0.00    +0.156 HD
ENDROOT
BRANCH   5  18
ATOM     18  C   UNL     1     -35.424  25.732   5.695  0.00  0.00    +0.114 C 
BRANCH  18  19
ATOM     19  N   UNL     1     -34.061  25.991   6.102  0.00  0.00    -0.329 N 
ATOM     20  H   UNL     1     -33.664  25.412   6.792  0.00  0.00    +0.147 HD
BRANCH  19  21
ATOM     21  C   UNL     1     -33.283  27.006   5.573  0.00  0.00    +0.051 C 
ATOM     22  C   UNL     1     -32.339  27.684   6.369  0.00  0.00    +0.055 C 
ATOM     23  C   UNL     1     -33.412  27.390   4.225  0.00  0.00    +0.055 C 
ATOM     24  C   UNL     1     -32.629  28.414   3.693  0.00  0.00    +0.177 C 
ATOM     25  C   UNL     1     -31.554  28.707   5.837  0.00  0.00    +0.177 C 
ATOM     26  C   UNL     1     -31.700  29.072   4.499  0.00  0.00    +0.206 C 
BRANCH  24  27
ATOM     27  O   UNL     1     -32.780  28.761   2.384  0.00  0.00    -0.468 OA
ATOM     28  C   UNL     1     -33.958  29.486   2.038  0.00  0.00    +0.253 C 
ENDBRANCH  24  27
BRANCH  25  29
ATOM     29  O   UNL     1     -30.651  29.342   6.635  0.00  0.00    -0.468 OA
ATOM     30  C   UNL     1     -29.340  28.784   6.701  0.00  0.00    +0.253 C 
ENDBRANCH  25  29
BRANCH  26  31
ATOM     31  O   UNL     1     -30.932  30.073   3.978  0.00  0.00    -0.465 OA
ATOM     32  C   UNL     1     -31.428  31.402   4.110  0.00  0.00    +0.253 C 
ENDBRANCH  26  31
ENDBRANCH  19  21
ENDBRANCH  18  19
ENDBRANCH   5  18
TORSDOF 6
ENDMDL
MODEL 5
REMARK VINA RESULT:      -6.5      4.876      7.043
REMARK  Name = 5583
REMARK  6 active torsions:
REMARK  status: ('A' for Active; 'I' for Inactive)
REMARK    1  A    between atoms: C_5  and  C_18
REMARK    2  A    between atoms: C_18  and  N_19
REMARK    3  A    between atoms: N_19  and  C_21
REMARK    4  A    between atoms: C_24  and  O_27
REMARK    5  A    between atoms: C_25  and  O_29
REMARK    6  A    between atoms: C_26  and  O_31
REMARK                            x       y       z     vdW  Elec       q    Type
REMARK                         _______ _______ _______ _____ _____    ______ ____
ROOT
ATOM      1  N   UNL     1     -35.817  20.624   3.264  0.00  0.00    -0.332 NA
ATOM      2  N   UNL     1     -36.807  21.593   1.292  0.00  0.00    -0.317 NA
ATOM      3  N   UNL     1     -37.188  23.877   1.115  0.00  0.00    -0.335 N 
ATOM      4  N   UNL     1     -36.436  19.285   1.440  0.00  0.00    -0.283 N 
ATOM      5  C   UNL     1     -35.542  24.388   5.035  0.00  0.00    -0.010 C 
ATOM      6  C   UNL     1     -36.083  24.261   3.760  0.00  0.00    -0.032 C 
ATOM      7  C   UNL     1     -36.177  22.993   3.159  0.00  0.00    +0.139 C 
ATOM      8  C   UNL     1     -35.732  21.842   3.829  0.00  0.00    +0.134 C 
ATOM      9  C   UNL     1     -35.098  23.256   5.708  0.00  0.00    -0.001 C 
ATOM     10  C   UNL     1     -35.195  21.998   5.104  0.00  0.00    +0.029 C 
ATOM     11  C   UNL     1     -36.539  25.530   3.103  0.00  0.00    +0.027 C 
ATOM     12  C   UNL     1     -36.706  22.797   1.887  0.00  0.00    +0.178 C 
ATOM     13  C   UNL     1     -36.350  20.566   2.027  0.00  0.00    +0.197 C 
ATOM     14  H   UNL     1     -37.559  23.715   0.218  0.00  0.00    +0.144 HD
ATOM     15  H   UNL     1     -37.153  24.793   1.475  0.00  0.00    +0.144 HD
ATOM     16  H   UNL     1     -36.116  18.495   1.933  0.00  0.00    +0.156 HD
ATOM     17  H   UNL     1     -36.817  19.180   0.538  0.00  0.00    +0.156 HD
ENDROOT
BRANCH   5  18
ATOM     18  C   UNL     1     -35.423  25.715   5.710  0.00  0.00    +0.114 C 
BRANCH  18  19
ATOM     19  N   UNL     1     -34.054  25.974   6.098  0.00  0.00    -0.329 N 
ATOM     20  H   UNL     1     -33.647  25.395   6.782  0.00  0.00    +0.147 HD
BRANCH  19  21
ATOM     21  C   UNL     1     -33.284  26.991   5.559  0.00  0.00    +0.051 C 
ATOM     22  C   UNL     1     -33.395  27.340   4.199  0.00  0.00    +0.055 C 
ATOM     23  C   UNL     1     -32.368  27.704   6.355  0.00  0.00    +0.055 C 
ATOM     24  C   UNL     1     -31.591  28.728   5.812  0.00  0.00    +0.177 C 
ATOM     25  C   UNL     1     -32.619  28.363   3.655  0.00  0.00    +0.177 C 
ATOM     26  C   UNL     1     -31.717  29.057   4.462  0.00  0.00    +0.206 C 
BRANCH  24  27
ATOM     27  O   UNL     1     -30.714  29.398   6.610  0.00  0.00    -0.468 OA
ATOM     28  C   UNL     1     -29.393  28.870   6.708  0.00  0.00    +0.253 C 
ENDBRANCH  24  27
BRANCH  25  29
ATOM     29  O   UNL     1     -32.751  28.675   2.336  0.00  0.00    -0.468 OA
ATOM     30  C   UNL     1     -33.630  27.861   1.562  0.00  0.00    +0.253 C 
ENDBRANCH  25  29
BRANCH  26  31
ATOM     31  O   UNL     1     -30.958  30.058   3.930  0.00  0.00    -0.465 OA
ATOM     32  C   UNL     1     -31.485  31.380   4.008  0.00  0.00    +0.253 C 
ENDBRANCH  26  31
ENDBRANCH  19  21
ENDBRANCH  18  19
ENDBRANCH   5  18
TORSDOF 6
ENDMDL
MODEL 6
REMARK VINA RESULT:      -6.5      4.465      7.964
REMARK  Name = 5583
REMARK  6 active torsions:
REMARK  status: ('A' for Active; 'I' for Inactive)
REMARK    1  A    between atoms: C_5  and  C_18
REMARK    2  A    between atoms: C_18  and  N_19
REMARK    3  A    between atoms: N_19  and  C_21
REMARK    4  A    between atoms: C_24  and  O_27
REMARK    5  A    between atoms: C_25  and  O_29
REMARK    6  A    between atoms: C_26  and  O_31
REMARK                            x       y       z     vdW  Elec       q    Type
REMARK                         _______ _______ _______ _____ _____    ______ ____
ROOT
ATOM      1  N   UNL     1     -33.726  25.711   6.000  0.00  0.00    -0.332 NA
ATOM      2  N   UNL     1     -33.696  27.517   4.404  0.00  0.00    -0.317 NA
ATOM      3  N   UNL     1     -34.793  27.360   2.364  0.00  0.00    -0.335 N 
ATOM      4  N   UNL     1     -32.577  27.706   6.454  0.00  0.00    -0.283 N 
ATOM      5  C   UNL     1     -36.076  23.417   3.432  0.00  0.00    -0.010 C 
ATOM      6  C   UNL     1     -35.678  24.694   3.051  0.00  0.00    -0.032 C 
ATOM      7  C   UNL     1     -34.886  25.471   3.914  0.00  0.00    +0.139 C 
ATOM      8  C   UNL     1     -34.484  24.977   5.166  0.00  0.00    +0.134 C 
ATOM      9  C   UNL     1     -35.685  22.918   4.669  0.00  0.00    -0.001 C 
ATOM     10  C   UNL     1     -34.897  23.696   5.522  0.00  0.00    +0.029 C 
ATOM     11  C   UNL     1     -36.141  25.158   1.702  0.00  0.00    +0.027 C 
ATOM     12  C   UNL     1     -34.455  26.755   3.594  0.00  0.00    +0.178 C 
ATOM     13  C   UNL     1     -33.373  26.941   5.574  0.00  0.00    +0.197 C 
ATOM     14  H   UNL     1     -34.477  28.269   2.158  0.00  0.00    +0.144 HD
ATOM     15  H   UNL     1     -35.346  26.872   1.711  0.00  0.00    +0.144 HD
ATOM     16  H   UNL     1     -32.311  27.334   7.325  0.00  0.00    +0.156 HD
ATOM     17  H   UNL     1     -32.289  28.612   6.197  0.00  0.00    +0.156 HD
ENDROOT
BRANCH   5  18
ATOM     18  C   UNL     1     -36.918  22.558   2.547  0.00  0.00    +0.114 C 
BRANCH  18  19
ATOM     19  N   UNL     1     -36.690  21.157   2.821  0.00  0.00    -0.329 N 
ATOM     20  H   UNL     1     -36.981  20.800   3.690  0.00  0.00    +0.147 HD
BRANCH  19  21
ATOM     21  C   UNL     1     -36.087  20.289   1.927  0.00  0.00    +0.051 C 
ATOM     22  C   UNL     1     -34.702  20.039   1.982  0.00  0.00    +0.055 C 
ATOM     23  C   UNL     1     -36.841  19.631   0.936  0.00  0.00    +0.055 C 
ATOM     24  C   UNL     1     -36.233  18.757   0.035  0.00  0.00    +0.177 C 
ATOM     25  C   UNL     1     -34.094  19.165   1.082  0.00  0.00    +0.177 C 
ATOM     26  C   UNL     1     -34.860  18.524   0.108  0.00  0.00    +0.206 C 
BRANCH  24  27
ATOM     27  O   UNL     1     -36.992  18.137  -0.912  0.00  0.00    -0.468 OA
ATOM     28  C   UNL     1     -37.855  17.093  -0.469  0.00  0.00    +0.253 C 
ENDBRANCH  24  27
BRANCH  25  29
ATOM     29  O   UNL     1     -32.751  18.946   1.164  0.00  0.00    -0.468 OA
ATOM     30  C   UNL     1     -31.905  19.824   0.425  0.00  0.00    +0.253 C 
ENDBRANCH  25  29
BRANCH  26  31
ATOM     31  O   UNL     1     -34.265  17.669  -0.773  0.00  0.00    -0.465 OA
ATOM     32  C   UNL     1     -34.143  16.307  -0.370  0.00  0.00    +0.253 C 
ENDBRANCH  26  31
ENDBRANCH  19  21
ENDBRANCH  18  19
ENDBRANCH   5  18
TORSDOF 6
ENDMDL
MODEL 7
REMARK VINA RESULT:      -6.5      4.492      8.010
REMARK  Name = 5583
REMARK  6 active torsions:
REMARK  status: ('A' for Active; 'I' for Inactive)
REMARK    1  A    between atoms: C_5  and  C_18
REMARK    2  A    between atoms: C_18  and  N_19
REMARK    3  A    between atoms: N_19  and  C_21
REMARK    4  A    between atoms: C_24  and  O_27
REMARK    5  A    between atoms: C_25  and  O_29
REMARK    6  A    between atoms: C_26  and  O_31
REMARK                            x       y       z     vdW  Elec       q    Type
REMARK                         _______ _______ _______ _____ _____    ______ ____
ROOT
ATOM      1  N   UNL     1     -33.501  25.932   5.553  0.00  0.00    -0.332 NA
ATOM      2  N   UNL     1     -34.143  27.816   4.194  0.00  0.00    -0.317 NA
ATOM      3  N   UNL     1     -35.726  27.619   2.506  0.00  0.00    -0.335 N 
ATOM      4  N   UNL     1     -32.542  28.047   5.889  0.00  0.00    -0.283 N 
ATOM      5  C   UNL     1     -36.142  23.469   3.471  0.00  0.00    -0.010 C 
ATOM      6  C   UNL     1     -36.034  24.812   3.129  0.00  0.00    -0.032 C 
ATOM      7  C   UNL     1     -35.144  25.647   3.829  0.00  0.00    +0.139 C 
ATOM      8  C   UNL     1     -34.355  25.143   4.877  0.00  0.00    +0.134 C 
ATOM      9  C   UNL     1     -35.366  22.959   4.507  0.00  0.00    -0.001 C 
ATOM     10  C   UNL     1     -34.484  23.795   5.198  0.00  0.00    +0.029 C 
ATOM     11  C   UNL     1     -36.904  25.282   2.002  0.00  0.00    +0.027 C 
ATOM     12  C   UNL     1     -34.988  26.998   3.538  0.00  0.00    +0.178 C 
ATOM     13  C   UNL     1     -33.441  27.225   5.175  0.00  0.00    +0.197 C 
ATOM     14  H   UNL     1     -35.599  28.577   2.317  0.00  0.00    +0.144 HD
ATOM     15  H   UNL     1     -36.367  27.093   1.975  0.00  0.00    +0.144 HD
ATOM     16  H   UNL     1     -32.001  27.667   6.618  0.00  0.00    +0.156 HD
ATOM     17  H   UNL     1     -32.455  29.000   5.657  0.00  0.00    +0.156 HD
ENDROOT
BRANCH   5  18
ATOM     18  C   UNL     1     -37.074  22.547   2.755  0.00  0.00    +0.114 C 
BRANCH  18  19
ATOM     19  N   UNL     1     -36.707  21.167   2.978  0.00  0.00    -0.329 N 
ATOM     20  H   UNL     1     -36.874  20.778   3.867  0.00  0.00    +0.147 HD
BRANCH  19  21
ATOM     21  C   UNL     1     -36.134  20.359   2.010  0.00  0.00    +0.051 C 
ATOM     22  C   UNL     1     -36.916  19.796   0.983  0.00  0.00    +0.055 C 
ATOM     23  C   UNL     1     -34.755  20.079   2.024  0.00  0.00    +0.055 C 
ATOM     24  C   UNL     1     -34.178  19.265   1.049  0.00  0.00    +0.177 C 
ATOM     25  C   UNL     1     -36.340  18.982   0.008  0.00  0.00    +0.177 C 
ATOM     26  C   UNL     1     -34.971  18.717   0.041  0.00  0.00    +0.206 C 
BRANCH  24  27
ATOM     27  O   UNL     1     -32.840  19.014   1.093  0.00  0.00    -0.468 OA
ATOM     28  C   UNL     1     -31.986  19.926   0.404  0.00  0.00    +0.253 C 
ENDBRANCH  24  27
BRANCH  25  29
ATOM     29  O   UNL     1     -37.126  18.452  -0.972  0.00  0.00    -0.468 OA
ATOM     30  C   UNL     1     -37.978  17.369  -0.605  0.00  0.00    +0.253 C 
ENDBRANCH  25  29
BRANCH  26  31
ATOM     31  O   UNL     1     -34.408  17.921  -0.913  0.00  0.00    -0.465 OA
ATOM     32  C   UNL     1     -34.265  16.538  -0.600  0.00  0.00    +0.253 C 
ENDBRANCH  26  31
ENDBRANCH  19  21
ENDBRANCH  18  19
ENDBRANCH   5  18
TORSDOF 6
ENDMDL
MODEL 8
REMARK VINA RESULT:      -6.5      1.875      2.854
REMARK  Name = 5583
REMARK  6 active torsions:
REMARK  status: ('A' for Active; 'I' for Inactive)
REMARK    1  A    between atoms: C_5  and  C_18
REMARK    2  A    between atoms: C_18  and  N_19
REMARK    3  A    between atoms: N_19  and  C_21
REMARK    4  A    between atoms: C_24  and  O_27
REMARK    5  A    between atoms: C_25  and  O_29
REMARK    6  A    between atoms: C_26  and  O_31
REMARK                            x       y       z     vdW  Elec       q    Type
REMARK                         _______ _______ _______ _____ _____    ______ ____
ROOT
ATOM      1  N   UNL     1     -29.987  18.322   0.365  0.00  0.00    -0.332 NA
ATOM      2  N   UNL     1     -30.355  15.945   0.210  0.00  0.00    -0.317 NA
ATOM      3  N   UNL     1     -32.492  15.049   0.063  0.00  0.00    -0.335 N 
ATOM      4  N   UNL     1     -28.185  16.818   0.358  0.00  0.00    -0.283 N 
ATOM      5  C   UNL     1     -34.095  19.016   0.222  0.00  0.00    -0.010 C 
ATOM      6  C   UNL     1     -33.611  17.713   0.168  0.00  0.00    -0.032 C 
ATOM      7  C   UNL     1     -32.226  17.475   0.216  0.00  0.00    +0.139 C 
ATOM      8  C   UNL     1     -31.313  18.538   0.319  0.00  0.00    +0.134 C 
ATOM      9  C   UNL     1     -33.201  20.076   0.323  0.00  0.00    -0.001 C 
ATOM     10  C   UNL     1     -31.826  19.831   0.371  0.00  0.00    +0.029 C 
ATOM     11  C   UNL     1     -34.639  16.627   0.059  0.00  0.00    +0.027 C 
ATOM     12  C   UNL     1     -31.676  16.197   0.166  0.00  0.00    +0.178 C 
ATOM     13  C   UNL     1     -29.579  17.037   0.309  0.00  0.00    +0.197 C 
ATOM     14  H   UNL     1     -32.082  14.154   0.030  0.00  0.00    +0.144 HD
ATOM     15  H   UNL     1     -33.471  15.142   0.025  0.00  0.00    +0.144 HD
ATOM     16  H   UNL     1     -27.570  17.582   0.431  0.00  0.00    +0.156 HD
ATOM     17  H   UNL     1     -27.829  15.901   0.321  0.00  0.00    +0.156 HD
ENDROOT
BRANCH   5  18
ATOM     18  C   UNL     1     -35.557  19.314   0.174  0.00  0.00    +0.114 C 
BRANCH  18  19
ATOM     19  N   UNL     1     -36.112  19.391   1.507  0.00  0.00    -0.329 N 
ATOM     20  H   UNL     1     -36.271  18.550   1.994  0.00  0.00    +0.147 HD
BRANCH  19  21
ATOM     21  C   UNL     1     -36.431  20.581   2.137  0.00  0.00    +0.051 C 
ATOM     22  C   UNL     1     -37.600  21.289   1.800  0.00  0.00    +0.055 C 
ATOM     23  C   UNL     1     -35.595  21.118   3.135  0.00  0.00    +0.055 C 
ATOM     24  C   UNL     1     -35.915  22.318   3.770  0.00  0.00    +0.177 C 
ATOM     25  C   UNL     1     -37.922  22.489   2.434  0.00  0.00    +0.177 C 
ATOM     26  C   UNL     1     -37.079  23.003   3.419  0.00  0.00    +0.206 C 
BRANCH  24  27
ATOM     27  O   UNL     1     -35.084  22.810   4.730  0.00  0.00    -0.468 OA
ATOM     28  C   UNL     1     -35.194  22.245   6.034  0.00  0.00    +0.253 C 
ENDBRANCH  24  27
BRANCH  25  29
ATOM     29  O   UNL     1     -39.061  23.148   2.083  0.00  0.00    -0.468 OA
ATOM     30  C   UNL     1     -39.814  22.608   0.998  0.00  0.00    +0.253 C 
ENDBRANCH  25  29
BRANCH  26  31
ATOM     31  O   UNL     1     -37.393  24.176   4.040  0.00  0.00    -0.465 OA
ATOM     32  C   UNL     1     -36.884  25.373   3.457  0.00  0.00    +0.253 C 
ENDBRANCH  26  31
ENDBRANCH  19  21
ENDBRANCH  18  19
ENDBRANCH   5  18
TORSDOF 6
ENDMDL
MODEL 9
REMARK VINA RESULT:      -6.4      1.628      2.301
REMARK  Name = 5583
REMARK  6 active torsions:
REMARK  status: ('A' for Active; 'I' for Inactive)
REMARK    1  A    between atoms: C_5  and  C_18
REMARK    2  A    between atoms: C_18  and  N_19
REMARK    3  A    between atoms: N_19  and  C_21
REMARK    4  A    between atoms: C_24  and  O_27
REMARK    5  A    between atoms: C_25  and  O_29
REMARK    6  A    between atoms: C_26  and  O_31
REMARK                            x       y       z     vdW  Elec       q    Type
REMARK                         _______ _______ _______ _____ _____    ______ ____
ROOT
ATOM      1  N   UNL     1     -29.170  18.396   0.155  0.00  0.00    -0.332 NA
ATOM      2  N   UNL     1     -28.824  20.553  -0.862  0.00  0.00    -0.317 NA
ATOM      3  N   UNL     1     -30.555  22.084  -1.096  0.00  0.00    -0.335 N 
ATOM      4  N   UNL     1     -27.056  19.031  -0.643  0.00  0.00    -0.283 N 
ATOM      5  C   UNL     1     -33.197  19.279   0.771  0.00  0.00    -0.010 C 
ATOM      6  C   UNL     1     -32.369  20.215   0.161  0.00  0.00    -0.032 C 
ATOM      7  C   UNL     1     -31.010  19.922  -0.048  0.00  0.00    +0.139 C 
ATOM      8  C   UNL     1     -30.468  18.688   0.350  0.00  0.00    +0.134 C 
ATOM      9  C   UNL     1     -32.672  18.055   1.170  0.00  0.00    -0.001 C 
ATOM     10  C   UNL     1     -31.320  17.770   0.958  0.00  0.00    +0.029 C 
ATOM     11  C   UNL     1     -33.012  21.509  -0.239  0.00  0.00    +0.027 C 
ATOM     12  C   UNL     1     -30.128  20.813  -0.651  0.00  0.00    +0.178 C 
ATOM     13  C   UNL     1     -28.418  19.345  -0.441  0.00  0.00    +0.197 C 
ATOM     14  H   UNL     1     -29.914  22.699  -1.521  0.00  0.00    +0.144 HD
ATOM     15  H   UNL     1     -31.495  22.355  -0.981  0.00  0.00    +0.144 HD
ATOM     16  H   UNL     1     -26.704  18.159  -0.353  0.00  0.00    +0.156 HD
ATOM     17  H   UNL     1     -26.459  19.685  -1.073  0.00  0.00    +0.156 HD
ENDROOT
BRANCH   5  18
ATOM     18  C   UNL     1     -34.646  19.550   1.013  0.00  0.00    +0.114 C 
BRANCH  18  19
ATOM     19  N   UNL     1     -34.868  19.983   2.375  0.00  0.00    -0.329 N 
ATOM     20  H   UNL     1     -34.417  19.492   3.099  0.00  0.00    +0.147 HD
BRANCH  19  21
ATOM     21  C   UNL     1     -35.678  21.052   2.716  0.00  0.00    +0.051 C 
ATOM     22  C   UNL     1     -36.760  21.432   1.898  0.00  0.00    +0.055 C 
ATOM     23  C   UNL     1     -35.444  21.791   3.892  0.00  0.00    +0.055 C 
ATOM     24  C   UNL     1     -36.260  22.869   4.235  0.00  0.00    +0.177 C 
ATOM     25  C   UNL     1     -37.576  22.509   2.241  0.00  0.00    +0.177 C 
ATOM     26  C   UNL     1     -37.326  23.227   3.410  0.00  0.00    +0.206 C 
BRANCH  24  27
ATOM     27  O   UNL     1     -36.005  23.563   5.380  0.00  0.00    -0.468 OA
ATOM     28  C   UNL     1     -34.924  24.492   5.347  0.00  0.00    +0.253 C 
ENDBRANCH  24  27
BRANCH  25  29
ATOM     29  O   UNL     1     -38.614  22.849   1.426  0.00  0.00    -0.468 OA
ATOM     30  C   UNL     1     -39.708  21.937   1.355  0.00  0.00    +0.253 C 
ENDBRANCH  25  29
BRANCH  26  31
ATOM     31  O   UNL     1     -38.125  24.281   3.746  0.00  0.00    -0.465 OA
ATOM     32  C   UNL     1     -37.790  25.550   3.189  0.00  0.00    +0.253 C 
ENDBRANCH  26  31
ENDBRANCH  19  21
ENDBRANCH  18  19
ENDBRANCH   5  18
TORSDOF 6
ENDMDL
