MODEL 1
REMARK VINA RESULT:      -6.1      0.000      0.000
REMARK  Name = 5281786
REMARK  11 active torsions:
REMARK  status: ('A' for Active; 'I' for Inactive)
REMARK    1  A    between atoms: C_2  and  C_4
REMARK    2  A    between atoms: C_2  and  O_15
REMARK    3  A    between atoms: C_3  and  C_5
REMARK    4  A    between atoms: C_8  and  O_11
REMARK    5  A    between atoms: C_9  and  O_13
REMARK    6  A    between atoms: O_15  and  C_16
REMARK    7  A    between atoms: C_16  and  C_18
REMARK    8  A    between atoms: C_16  and  C_21
REMARK    9  A    between atoms: C_18  and  O_19
REMARK   10  A    between atoms: C_21  and  C_23
REMARK   11  A    between atoms: C_23  and  O_24
REMARK                            x       y       z     vdW  Elec       q    Type
REMARK                         _______ _______ _______ _____ _____    ______ ____
ROOT
ATOM      1  O   UNL     1     -35.899  22.200   6.568  0.00  0.00    -0.245 OA
ATOM      2  C   UNL     1     -35.501  22.474   5.447  0.00  0.00    +0.342 C 
ENDROOT
BRANCH   2   4
ATOM      3  C   UNL     1     -34.779  24.798   5.599  0.00  0.00    +0.007 C 
ATOM      4  C   UNL     1     -34.561  23.568   5.112  0.00  0.00    +0.082 C 
BRANCH   3   5
ATOM      5  C   UNL     1     -33.912  25.963   5.347  0.00  0.00    +0.003 C 
ATOM      6  C   UNL     1     -33.336  26.623   6.419  0.00  0.00    +0.040 C 
ATOM      7  C   UNL     1     -33.693  26.376   4.043  0.00  0.00    +0.003 C 
ATOM      8  C   UNL     1     -32.515  27.725   6.181  0.00  0.00    +0.167 C 
ATOM      9  C   UNL     1     -32.283  28.153   4.873  0.00  0.00    +0.167 C 
ATOM     10  C   UNL     1     -32.873  27.478   3.805  0.00  0.00    +0.040 C 
BRANCH   8  11
ATOM     11  O   UNL     1     -31.946  28.378   7.233  0.00  0.00    -0.503 OA
ATOM     12  H   UNL     1     -32.488  28.781   7.883  0.00  0.00    +0.292 HD
ENDBRANCH   8  11
BRANCH   9  13
ATOM     13  O   UNL     1     -31.483  29.228   4.628  0.00  0.00    -0.503 OA
ATOM     14  H   UNL     1     -31.858  30.084   4.555  0.00  0.00    +0.292 HD
ENDBRANCH   9  13
ENDBRANCH   3   5
ENDBRANCH   2   4
BRANCH   2  15
ATOM     15  O   UNL     1     -35.840  21.839   4.287  0.00  0.00    -0.437 OA
BRANCH  15  16
ATOM     16  C   UNL     1     -36.031  22.680   3.156  0.00  0.00    +0.277 C 
BRANCH  16  18
ATOM     17  O   UNL     1     -37.875  24.169   3.697  0.00  0.00    -0.246 OA
ATOM     18  C   UNL     1     -37.472  23.148   3.156  0.00  0.00    +0.355 C 
BRANCH  18  19
ATOM     19  O   UNL     1     -38.284  22.309   2.462  0.00  0.00    -0.478 OA
ATOM     20  H   UNL     1     -39.000  21.885   2.895  0.00  0.00    +0.295 HD
ENDBRANCH  18  19
ENDBRANCH  16  18
BRANCH  16  21
ATOM     21  C   UNL     1     -35.717  21.871   1.898  0.00  0.00    +0.165 C 
BRANCH  21  23
ATOM     22  O   UNL     1     -34.430  19.809   2.127  0.00  0.00    -0.250 OA
ATOM     23  C   UNL     1     -35.491  20.409   2.206  0.00  0.00    +0.318 C 
BRANCH  23  24
ATOM     24  O   UNL     1     -36.654  19.832   2.604  0.00  0.00    -0.480 OA
ATOM     25  H   UNL     1     -36.723  19.459   3.462  0.00  0.00    +0.295 HD
ENDBRANCH  23  24
ENDBRANCH  21  23
ENDBRANCH  16  21
ENDBRANCH  15  16
ENDBRANCH   2  15
TORSDOF 11
ENDMDL
MODEL 2
REMARK VINA RESULT:      -5.9      2.901      6.906
REMARK  Name = 5281786
REMARK  11 active torsions:
REMARK  status: ('A' for Active; 'I' for Inactive)
REMARK    1  A    between atoms: C_2  and  C_4
REMARK    2  A    between atoms: C_2  and  O_15
REMARK    3  A    between atoms: C_3  and  C_5
REMARK    4  A    between atoms: C_8  and  O_11
REMARK    5  A    between atoms: C_9  and  O_13
REMARK    6  A    between atoms: O_15  and  C_16
REMARK    7  A    between atoms: C_16  and  C_18
REMARK    8  A    between atoms: C_16  and  C_21
REMARK    9  A    between atoms: C_18  and  O_19
REMARK   10  A    between atoms: C_21  and  C_23
REMARK   11  A    between atoms: C_23  and  O_24
REMARK                            x       y       z     vdW  Elec       q    Type
REMARK                         _______ _______ _______ _____ _____    ______ ____
ROOT
ATOM      1  O   UNL     1     -37.856  21.768   2.144  0.00  0.00    -0.245 OA
ATOM      2  C   UNL     1     -36.805  22.092   2.673  0.00  0.00    +0.342 C 
ENDROOT
BRANCH   2   4
ATOM      3  C   UNL     1     -35.189  20.549   1.697  0.00  0.00    +0.007 C 
ATOM      4  C   UNL     1     -35.452  21.780   2.159  0.00  0.00    +0.082 C 
BRANCH   3   5
ATOM      5  C   UNL     1     -33.889  20.120   1.151  0.00  0.00    +0.003 C 
ATOM      6  C   UNL     1     -33.376  18.886   1.511  0.00  0.00    +0.040 C 
ATOM      7  C   UNL     1     -33.205  20.963   0.289  0.00  0.00    +0.003 C 
ATOM      8  C   UNL     1     -32.146  18.480   0.993  0.00  0.00    +0.167 C 
ATOM      9  C   UNL     1     -31.445  19.316   0.123  0.00  0.00    +0.167 C 
ATOM     10  C   UNL     1     -31.975  20.557  -0.228  0.00  0.00    +0.040 C 
BRANCH   8  11
ATOM     11  O   UNL     1     -31.638  17.266   1.345  0.00  0.00    -0.503 OA
ATOM     12  H   UNL     1     -32.082  16.739   1.980  0.00  0.00    +0.292 HD
ENDBRANCH   8  11
BRANCH   9  13
ATOM     13  O   UNL     1     -30.244  18.930  -0.390  0.00  0.00    -0.503 OA
ATOM     14  H   UNL     1     -30.176  18.131  -0.875  0.00  0.00    +0.292 HD
ENDBRANCH   9  13
ENDBRANCH   3   5
ENDBRANCH   2   4
BRANCH   2  15
ATOM     15  O   UNL     1     -36.662  22.797   3.833  0.00  0.00    -0.437 OA
BRANCH  15  16
ATOM     16  C   UNL     1     -35.390  22.704   4.461  0.00  0.00    +0.277 C 
BRANCH  16  18
ATOM     17  O   UNL     1     -36.003  22.292   6.777  0.00  0.00    -0.246 OA
ATOM     18  C   UNL     1     -35.546  21.876   5.720  0.00  0.00    +0.355 C 
BRANCH  18  19
ATOM     19  O   UNL     1     -35.135  20.594   5.547  0.00  0.00    -0.478 OA
ATOM     20  H   UNL     1     -35.031  20.031   6.289  0.00  0.00    +0.295 HD
ENDBRANCH  18  19
ENDBRANCH  16  18
BRANCH  16  21
ATOM     21  C   UNL     1     -34.911  24.117   4.789  0.00  0.00    +0.165 C 
BRANCH  21  23
ATOM     22  O   UNL     1     -35.855  25.967   3.504  0.00  0.00    -0.250 OA
ATOM     23  C   UNL     1     -35.937  25.163   4.420  0.00  0.00    +0.318 C 
BRANCH  23  24
ATOM     24  O   UNL     1     -37.001  25.086   5.260  0.00  0.00    -0.480 OA
ATOM     25  H   UNL     1     -37.215  25.811   5.815  0.00  0.00    +0.295 HD
ENDBRANCH  23  24
ENDBRANCH  21  23
ENDBRANCH  16  21
ENDBRANCH  15  16
ENDBRANCH   2  15
TORSDOF 11
ENDMDL
MODEL 3
REMARK VINA RESULT:      -5.7      2.569      7.694
REMARK  Name = 5281786
REMARK  11 active torsions:
REMARK  status: ('A' for Active; 'I' for Inactive)
REMARK    1  A    between atoms: C_2  and  C_4
REMARK    2  A    between atoms: C_2  and  O_15
REMARK    3  A    between atoms: C_3  and  C_5
REMARK    4  A    between atoms: C_8  and  O_11
REMARK    5  A    between atoms: C_9  and  O_13
REMARK    6  A    between atoms: O_15  and  C_16
REMARK    7  A    between atoms: C_16  and  C_18
REMARK    8  A    between atoms: C_16  and  C_21
REMARK    9  A    between atoms: C_18  and  O_19
REMARK   10  A    between atoms: C_21  and  C_23
REMARK   11  A    between atoms: C_23  and  O_24
REMARK                            x       y       z     vdW  Elec       q    Type
REMARK                         _______ _______ _______ _____ _____    ______ ____
ROOT
ATOM      1  O   UNL     1     -36.495  23.668   1.884  0.00  0.00    -0.245 OA
ATOM      2  C   UNL     1     -36.440  22.656   2.563  0.00  0.00    +0.342 C 
ENDROOT
BRANCH   2   4
ATOM      3  C   UNL     1     -34.938  20.978   1.628  0.00  0.00    +0.007 C 
ATOM      4  C   UNL     1     -36.170  21.292   2.052  0.00  0.00    +0.082 C 
BRANCH   3   5
ATOM      5  C   UNL     1     -34.542  19.656   1.111  0.00  0.00    +0.003 C 
ATOM      6  C   UNL     1     -33.325  19.116   1.489  0.00  0.00    +0.040 C 
ATOM      7  C   UNL     1     -35.397  18.980   0.254  0.00  0.00    +0.003 C 
ATOM      8  C   UNL     1     -32.951  17.864   1.000  0.00  0.00    +0.167 C 
ATOM      9  C   UNL     1     -33.801  17.170   0.137  0.00  0.00    +0.167 C 
ATOM     10  C   UNL     1     -35.023  17.729  -0.235  0.00  0.00    +0.040 C 
BRANCH   8  11
ATOM     11  O   UNL     1     -31.754  17.330   1.370  0.00  0.00    -0.503 OA
ATOM     12  H   UNL     1     -30.976  17.850   1.327  0.00  0.00    +0.292 HD
ENDBRANCH   8  11
BRANCH   9  13
ATOM     13  O   UNL     1     -33.447  15.947  -0.346  0.00  0.00    -0.503 OA
ATOM     14  H   UNL     1     -33.822  15.632  -1.145  0.00  0.00    +0.292 HD
ENDBRANCH   9  13
ENDBRANCH   3   5
ENDBRANCH   2   4
BRANCH   2  15
ATOM     15  O   UNL     1     -36.617  22.572   3.914  0.00  0.00    -0.437 OA
BRANCH  15  16
ATOM     16  C   UNL     1     -35.514  22.988   4.709  0.00  0.00    +0.277 C 
BRANCH  16  18
ATOM     17  O   UNL     1     -35.271  22.196   6.994  0.00  0.00    -0.246 OA
ATOM     18  C   UNL     1     -35.300  21.954   5.795  0.00  0.00    +0.355 C 
BRANCH  18  19
ATOM     19  O   UNL     1     -35.158  20.702   5.291  0.00  0.00    -0.478 OA
ATOM     20  H   UNL     1     -35.146  20.569   4.363  0.00  0.00    +0.295 HD
ENDBRANCH  18  19
ENDBRANCH  16  18
BRANCH  16  21
ATOM     21  C   UNL     1     -35.842  24.354   5.309  0.00  0.00    +0.165 C 
BRANCH  21  23
ATOM     22  O   UNL     1     -34.652  26.464   5.615  0.00  0.00    -0.250 OA
ATOM     23  C   UNL     1     -34.675  25.310   5.217  0.00  0.00    +0.318 C 
BRANCH  23  24
ATOM     24  O   UNL     1     -33.618  24.697   4.624  0.00  0.00    -0.480 OA
ATOM     25  H   UNL     1     -32.743  24.954   4.842  0.00  0.00    +0.295 HD
ENDBRANCH  23  24
ENDBRANCH  21  23
ENDBRANCH  16  21
ENDBRANCH  15  16
ENDBRANCH   2  15
TORSDOF 11
ENDMDL
MODEL 4
REMARK VINA RESULT:      -5.6      1.937      7.969
REMARK  Name = 5281786
REMARK  11 active torsions:
REMARK  status: ('A' for Active; 'I' for Inactive)
REMARK    1  A    between atoms: C_2  and  C_4
REMARK    2  A    between atoms: C_2  and  O_15
REMARK    3  A    between atoms: C_3  and  C_5
REMARK    4  A    between atoms: C_8  and  O_11
REMARK    5  A    between atoms: C_9  and  O_13
REMARK    6  A    between atoms: O_15  and  C_16
REMARK    7  A    between atoms: C_16  and  C_18
REMARK    8  A    between atoms: C_16  and  C_21
REMARK    9  A    between atoms: C_18  and  O_19
REMARK   10  A    between atoms: C_21  and  C_23
REMARK   11  A    between atoms: C_23  and  O_24
REMARK                            x       y       z     vdW  Elec       q    Type
REMARK                         _______ _______ _______ _____ _____    ______ ____
ROOT
ATOM      1  O   UNL     1     -32.865  27.537   7.479  0.00  0.00    -0.245 OA
ATOM      2  C   UNL     1     -32.681  27.396   6.281  0.00  0.00    +0.342 C 
ENDROOT
BRANCH   2   4
ATOM      3  C   UNL     1     -34.294  25.602   5.923  0.00  0.00    +0.007 C 
ATOM      4  C   UNL     1     -33.462  26.509   5.389  0.00  0.00    +0.082 C 
BRANCH   3   5
ATOM      5  C   UNL     1     -35.131  24.673   5.144  0.00  0.00    +0.003 C 
ATOM      6  C   UNL     1     -34.906  23.311   5.244  0.00  0.00    +0.040 C 
ATOM      7  C   UNL     1     -36.125  25.182   4.324  0.00  0.00    +0.003 C 
ATOM      8  C   UNL     1     -35.699  22.431   4.507  0.00  0.00    +0.167 C 
ATOM      9  C   UNL     1     -36.706  22.928   3.678  0.00  0.00    +0.167 C 
ATOM     10  C   UNL     1     -36.918  24.303   3.587  0.00  0.00    +0.040 C 
BRANCH   8  11
ATOM     11  O   UNL     1     -35.480  21.090   4.603  0.00  0.00    -0.503 OA
ATOM     12  H   UNL     1     -34.740  20.769   5.077  0.00  0.00    +0.292 HD
ENDBRANCH   8  11
BRANCH   9  13
ATOM     13  O   UNL     1     -37.487  22.079   2.953  0.00  0.00    -0.503 OA
ATOM     14  H   UNL     1     -37.601  22.217   2.033  0.00  0.00    +0.292 HD
ENDBRANCH   9  13
ENDBRANCH   3   5
ENDBRANCH   2   4
BRANCH   2  15
ATOM     15  O   UNL     1     -31.727  28.016   5.527  0.00  0.00    -0.437 OA
BRANCH  15  16
ATOM     16  C   UNL     1     -31.210  29.229   6.059  0.00  0.00    +0.277 C 
BRANCH  16  18
ATOM     17  O   UNL     1     -33.028  30.398   4.946  0.00  0.00    -0.246 OA
ATOM     18  C   UNL     1     -31.864  30.382   5.325  0.00  0.00    +0.355 C 
BRANCH  18  19
ATOM     19  O   UNL     1     -31.014  31.425   5.145  0.00  0.00    -0.478 OA
ATOM     20  H   UNL     1     -31.062  31.939   4.363  0.00  0.00    +0.295 HD
ENDBRANCH  18  19
ENDBRANCH  16  18
BRANCH  16  21
ATOM     21  C   UNL     1     -29.696  29.237   5.853  0.00  0.00    +0.165 C 
BRANCH  21  23
ATOM     22  O   UNL     1     -28.240  29.039   7.803  0.00  0.00    -0.250 OA
ATOM     23  C   UNL     1     -28.968  28.524   6.969  0.00  0.00    +0.318 C 
BRANCH  23  24
ATOM     24  O   UNL     1     -29.246  27.195   6.930  0.00  0.00    -0.480 OA
ATOM     25  H   UNL     1     -29.644  26.821   6.168  0.00  0.00    +0.295 HD
ENDBRANCH  23  24
ENDBRANCH  21  23
ENDBRANCH  16  21
ENDBRANCH  15  16
ENDBRANCH   2  15
TORSDOF 11
ENDMDL
MODEL 5
REMARK VINA RESULT:      -5.6      3.673      7.010
REMARK  Name = 5281786
REMARK  11 active torsions:
REMARK  status: ('A' for Active; 'I' for Inactive)
REMARK    1  A    between atoms: C_2  and  C_4
REMARK    2  A    between atoms: C_2  and  O_15
REMARK    3  A    between atoms: C_3  and  C_5
REMARK    4  A    between atoms: C_8  and  O_11
REMARK    5  A    between atoms: C_9  and  O_13
REMARK    6  A    between atoms: O_15  and  C_16
REMARK    7  A    between atoms: C_16  and  C_18
REMARK    8  A    between atoms: C_16  and  C_21
REMARK    9  A    between atoms: C_18  and  O_19
REMARK   10  A    between atoms: C_21  and  C_23
REMARK   11  A    between atoms: C_23  and  O_24
REMARK                            x       y       z     vdW  Elec       q    Type
REMARK                         _______ _______ _______ _____ _____    ______ ____
ROOT
ATOM      1  O   UNL     1     -37.356  20.709   1.661  0.00  0.00    -0.245 OA
ATOM      2  C   UNL     1     -36.229  21.095   1.929  0.00  0.00    +0.342 C 
ENDROOT
BRANCH   2   4
ATOM      3  C   UNL     1     -34.106  20.500   0.887  0.00  0.00    +0.007 C 
ATOM      4  C   UNL     1     -35.000  20.272   1.860  0.00  0.00    +0.082 C 
BRANCH   3   5
ATOM      5  C   UNL     1     -32.844  19.759   0.719  0.00  0.00    +0.003 C 
ATOM      6  C   UNL     1     -31.821  20.321  -0.026  0.00  0.00    +0.040 C 
ATOM      7  C   UNL     1     -32.706  18.514   1.310  0.00  0.00    +0.003 C 
ATOM      8  C   UNL     1     -30.626  19.620  -0.184  0.00  0.00    +0.167 C 
ATOM      9  C   UNL     1     -30.470  18.365   0.406  0.00  0.00    +0.167 C 
ATOM     10  C   UNL     1     -31.510  17.812   1.152  0.00  0.00    +0.040 C 
BRANCH   8  11
ATOM     11  O   UNL     1     -29.618  20.169  -0.917  0.00  0.00    -0.503 OA
ATOM     12  H   UNL     1     -29.624  21.086  -1.110  0.00  0.00    +0.292 HD
ENDBRANCH   8  11
BRANCH   9  13
ATOM     13  O   UNL     1     -29.307  17.671   0.259  0.00  0.00    -0.503 OA
ATOM     14  H   UNL     1     -28.678  17.941  -0.380  0.00  0.00    +0.292 HD
ENDBRANCH   9  13
ENDBRANCH   3   5
ENDBRANCH   2   4
BRANCH   2  15
ATOM     15  O   UNL     1     -35.876  22.346   2.345  0.00  0.00    -0.437 OA
BRANCH  15  16
ATOM     16  C   UNL     1     -36.453  22.776   3.571  0.00  0.00    +0.277 C 
BRANCH  16  18
ATOM     17  O   UNL     1     -37.326  24.609   2.235  0.00  0.00    -0.246 OA
ATOM     18  C   UNL     1     -37.112  24.120   3.335  0.00  0.00    +0.355 C 
BRANCH  18  19
ATOM     19  O   UNL     1     -37.464  24.729   4.497  0.00  0.00    -0.478 OA
ATOM     20  H   UNL     1     -37.903  25.557   4.476  0.00  0.00    +0.295 HD
ENDBRANCH  18  19
ENDBRANCH  16  18
BRANCH  16  21
ATOM     21  C   UNL     1     -35.342  22.885   4.613  0.00  0.00    +0.165 C 
BRANCH  21  23
ATOM     22  O   UNL     1     -36.035  22.138   6.833  0.00  0.00    -0.250 OA
ATOM     23  C   UNL     1     -35.528  21.902   5.747  0.00  0.00    +0.318 C 
BRANCH  23  24
ATOM     24  O   UNL     1     -35.054  20.682   5.387  0.00  0.00    -0.480 OA
ATOM     25  H   UNL     1     -34.177  20.436   5.608  0.00  0.00    +0.295 HD
ENDBRANCH  23  24
ENDBRANCH  21  23
ENDBRANCH  16  21
ENDBRANCH  15  16
ENDBRANCH   2  15
TORSDOF 11
ENDMDL
MODEL 6
REMARK VINA RESULT:      -5.6      2.507      7.161
REMARK  Name = 5281786
REMARK  11 active torsions:
REMARK  status: ('A' for Active; 'I' for Inactive)
REMARK    1  A    between atoms: C_2  and  C_4
REMARK    2  A    between atoms: C_2  and  O_15
REMARK    3  A    between atoms: C_3  and  C_5
REMARK    4  A    between atoms: C_8  and  O_11
REMARK    5  A    between atoms: C_9  and  O_13
REMARK    6  A    between atoms: O_15  and  C_16
REMARK    7  A    between atoms: C_16  and  C_18
REMARK    8  A    between atoms: C_16  and  C_21
REMARK    9  A    between atoms: C_18  and  O_19
REMARK   10  A    between atoms: C_21  and  C_23
REMARK   11  A    between atoms: C_23  and  O_24
REMARK                            x       y       z     vdW  Elec       q    Type
REMARK                         _______ _______ _______ _____ _____    ______ ____
ROOT
ATOM      1  O   UNL     1     -38.347  24.107   3.387  0.00  0.00    -0.245 OA
ATOM      2  C   UNL     1     -37.259  23.572   3.243  0.00  0.00    +0.342 C 
ENDROOT
BRANCH   2   4
ATOM      3  C   UNL     1     -35.799  22.027   2.048  0.00  0.00    +0.007 C 
ATOM      4  C   UNL     1     -37.017  22.290   2.542  0.00  0.00    +0.082 C 
BRANCH   3   5
ATOM      5  C   UNL     1     -35.432  20.787   1.343  0.00  0.00    +0.003 C 
ATOM      6  C   UNL     1     -36.231  20.333   0.307  0.00  0.00    +0.040 C 
ATOM      7  C   UNL     1     -34.294  20.097   1.732  0.00  0.00    +0.003 C 
ATOM      8  C   UNL     1     -35.883  19.159  -0.361  0.00  0.00    +0.167 C 
ATOM      9  C   UNL     1     -34.740  18.454   0.018  0.00  0.00    +0.167 C 
ATOM     10  C   UNL     1     -33.947  18.923   1.064  0.00  0.00    +0.040 C 
BRANCH   8  11
ATOM     11  O   UNL     1     -36.667  18.710  -1.380  0.00  0.00    -0.503 OA
ATOM     12  H   UNL     1     -36.296  18.183  -2.060  0.00  0.00    +0.292 HD
ENDBRANCH   8  11
BRANCH   9  13
ATOM     13  O   UNL     1     -34.389  17.306  -0.627  0.00  0.00    -0.503 OA
ATOM     14  H   UNL     1     -34.933  16.546  -0.559  0.00  0.00    +0.292 HD
ENDBRANCH   9  13
ENDBRANCH   3   5
ENDBRANCH   2   4
BRANCH   2  15
ATOM     15  O   UNL     1     -36.058  24.036   3.698  0.00  0.00    -0.437 OA
BRANCH  15  16
ATOM     16  C   UNL     1     -35.949  24.193   5.107  0.00  0.00    +0.277 C 
BRANCH  16  18
ATOM     17  O   UNL     1     -34.545  26.062   5.773  0.00  0.00    -0.246 OA
ATOM     18  C   UNL     1     -35.632  25.646   5.396  0.00  0.00    +0.355 C 
BRANCH  18  19
ATOM     19  O   UNL     1     -36.696  26.458   5.169  0.00  0.00    -0.478 OA
ATOM     20  H   UNL     1     -37.376  26.528   5.810  0.00  0.00    +0.295 HD
ENDBRANCH  18  19
ENDBRANCH  16  18
BRANCH  16  21
ATOM     21  C   UNL     1     -34.832  23.278   5.606  0.00  0.00    +0.165 C 
BRANCH  21  23
ATOM     22  O   UNL     1     -34.880  20.866   5.225  0.00  0.00    -0.250 OA
ATOM     23  C   UNL     1     -35.308  21.856   5.799  0.00  0.00    +0.318 C 
BRANCH  23  24
ATOM     24  O   UNL     1     -36.296  21.818   6.729  0.00  0.00    -0.480 OA
ATOM     25  H   UNL     1     -36.881  22.545   6.822  0.00  0.00    +0.295 HD
ENDBRANCH  23  24
ENDBRANCH  21  23
ENDBRANCH  16  21
ENDBRANCH  15  16
ENDBRANCH   2  15
TORSDOF 11
ENDMDL
MODEL 7
REMARK VINA RESULT:      -5.6      1.984      7.049
REMARK  Name = 5281786
REMARK  11 active torsions:
REMARK  status: ('A' for Active; 'I' for Inactive)
REMARK    1  A    between atoms: C_2  and  C_4
REMARK    2  A    between atoms: C_2  and  O_15
REMARK    3  A    between atoms: C_3  and  C_5
REMARK    4  A    between atoms: C_8  and  O_11
REMARK    5  A    between atoms: C_9  and  O_13
REMARK    6  A    between atoms: O_15  and  C_16
REMARK    7  A    between atoms: C_16  and  C_18
REMARK    8  A    between atoms: C_16  and  C_21
REMARK    9  A    between atoms: C_18  and  O_19
REMARK   10  A    between atoms: C_21  and  C_23
REMARK   11  A    between atoms: C_23  and  O_24
REMARK                            x       y       z     vdW  Elec       q    Type
REMARK                         _______ _______ _______ _____ _____    ______ ____
ROOT
ATOM      1  O   UNL     1     -34.887  28.191   2.319  0.00  0.00    -0.245 OA
ATOM      2  C   UNL     1     -34.343  27.881   3.367  0.00  0.00    +0.342 C 
ENDROOT
BRANCH   2   4
ATOM      3  C   UNL     1     -34.714  25.473   3.476  0.00  0.00    +0.007 C 
ATOM      4  C   UNL     1     -34.594  26.637   4.130  0.00  0.00    +0.082 C 
BRANCH   3   5
ATOM      5  C   UNL     1     -34.953  24.170   4.122  0.00  0.00    +0.003 C 
ATOM      6  C   UNL     1     -35.238  23.066   3.337  0.00  0.00    +0.040 C 
ATOM      7  C   UNL     1     -34.888  24.077   5.503  0.00  0.00    +0.003 C 
ATOM      8  C   UNL     1     -35.463  21.833   3.949  0.00  0.00    +0.167 C 
ATOM      9  C   UNL     1     -35.401  21.721   5.338  0.00  0.00    +0.167 C 
ATOM     10  C   UNL     1     -35.113  22.843   6.114  0.00  0.00    +0.040 C 
BRANCH   8  11
ATOM     11  O   UNL     1     -35.746  20.744   3.179  0.00  0.00    -0.503 OA
ATOM     12  H   UNL     1     -35.618  20.780   2.252  0.00  0.00    +0.292 HD
ENDBRANCH   8  11
BRANCH   9  13
ATOM     13  O   UNL     1     -35.618  20.522   5.947  0.00  0.00    -0.503 OA
ATOM     14  H   UNL     1     -36.132  20.480   6.729  0.00  0.00    +0.292 HD
ENDBRANCH   9  13
ENDBRANCH   3   5
ENDBRANCH   2   4
BRANCH   2  15
ATOM     15  O   UNL     1     -33.408  28.609   4.044  0.00  0.00    -0.437 OA
BRANCH  15  16
ATOM     16  C   UNL     1     -32.281  27.881   4.516  0.00  0.00    +0.277 C 
BRANCH  16  18
ATOM     17  O   UNL     1     -32.271  29.510   6.321  0.00  0.00    -0.246 OA
ATOM     18  C   UNL     1     -31.902  28.432   5.876  0.00  0.00    +0.355 C 
BRANCH  18  19
ATOM     19  O   UNL     1     -31.107  27.579   6.572  0.00  0.00    -0.478 OA
ATOM     20  H   UNL     1     -30.578  27.900   7.276  0.00  0.00    +0.295 HD
ENDBRANCH  18  19
ENDBRANCH  16  18
BRANCH  16  21
ATOM     21  C   UNL     1     -31.141  28.058   3.515  0.00  0.00    +0.165 C 
BRANCH  21  23
ATOM     22  O   UNL     1     -30.662  25.914   2.450  0.00  0.00    -0.250 OA
ATOM     23  C   UNL     1     -31.182  27.018   2.419  0.00  0.00    +0.318 C 
BRANCH  23  24
ATOM     24  O   UNL     1     -31.904  27.481   1.366  0.00  0.00    -0.480 OA
ATOM     25  H   UNL     1     -31.784  27.107   0.515  0.00  0.00    +0.295 HD
ENDBRANCH  23  24
ENDBRANCH  21  23
ENDBRANCH  16  21
ENDBRANCH  15  16
ENDBRANCH   2  15
TORSDOF 11
ENDMDL
MODEL 8
REMARK VINA RESULT:      -5.6      2.294      7.748
REMARK  Name = 5281786
REMARK  11 active torsions:
REMARK  status: ('A' for Active; 'I' for Inactive)
REMARK    1  A    between atoms: C_2  and  C_4
REMARK    2  A    between atoms: C_2  and  O_15
REMARK    3  A    between atoms: C_3  and  C_5
REMARK    4  A    between atoms: C_8  and  O_11
REMARK    5  A    between atoms: C_9  and  O_13
REMARK    6  A    between atoms: O_15  and  C_16
REMARK    7  A    between atoms: C_16  and  C_18
REMARK    8  A    between atoms: C_16  and  C_21
REMARK    9  A    between atoms: C_18  and  O_19
REMARK   10  A    between atoms: C_21  and  C_23
REMARK   11  A    between atoms: C_23  and  O_24
REMARK                            x       y       z     vdW  Elec       q    Type
REMARK                         _______ _______ _______ _____ _____    ______ ____
ROOT
ATOM      1  O   UNL     1     -33.680  27.669   1.588  0.00  0.00    -0.245 OA
ATOM      2  C   UNL     1     -33.756  27.527   2.798  0.00  0.00    +0.342 C 
ENDROOT
BRANCH   2   4
ATOM      3  C   UNL     1     -34.917  25.490   3.469  0.00  0.00    +0.007 C 
ATOM      4  C   UNL     1     -33.799  26.229   3.510  0.00  0.00    +0.082 C 
BRANCH   3   5
ATOM      5  C   UNL     1     -35.079  24.181   4.125  0.00  0.00    +0.003 C 
ATOM      6  C   UNL     1     -35.373  23.068   3.354  0.00  0.00    +0.040 C 
ATOM      7  C   UNL     1     -34.936  24.089   5.500  0.00  0.00    +0.003 C 
ATOM      8  C   UNL     1     -35.526  21.828   3.975  0.00  0.00    +0.167 C 
ATOM      9  C   UNL     1     -35.385  21.719   5.359  0.00  0.00    +0.167 C 
ATOM     10  C   UNL     1     -35.090  22.849   6.120  0.00  0.00    +0.040 C 
BRANCH   8  11
ATOM     11  O   UNL     1     -35.817  20.732   3.220  0.00  0.00    -0.503 OA
ATOM     12  H   UNL     1     -36.678  20.619   2.870  0.00  0.00    +0.292 HD
ENDBRANCH   8  11
BRANCH   9  13
ATOM     13  O   UNL     1     -35.531  20.513   5.976  0.00  0.00    -0.503 OA
ATOM     14  H   UNL     1     -35.141  19.746   5.606  0.00  0.00    +0.292 HD
ENDBRANCH   9  13
ENDBRANCH   3   5
ENDBRANCH   2   4
BRANCH   2  15
ATOM     15  O   UNL     1     -33.820  28.521   3.731  0.00  0.00    -0.437 OA
BRANCH  15  16
ATOM     16  C   UNL     1     -32.666  29.345   3.837  0.00  0.00    +0.277 C 
BRANCH  16  18
ATOM     17  O   UNL     1     -32.176  29.477   6.215  0.00  0.00    -0.246 OA
ATOM     18  C   UNL     1     -31.945  28.983   5.120  0.00  0.00    +0.355 C 
BRANCH  18  19
ATOM     19  O   UNL     1     -31.008  28.018   4.927  0.00  0.00    -0.478 OA
ATOM     20  H   UNL     1     -30.102  28.208   5.077  0.00  0.00    +0.295 HD
ENDBRANCH  18  19
ENDBRANCH  16  18
BRANCH  16  21
ATOM     21  C   UNL     1     -33.117  30.804   3.856  0.00  0.00    +0.165 C 
BRANCH  21  23
ATOM     22  O   UNL     1     -34.374  31.363   1.838  0.00  0.00    -0.250 OA
ATOM     23  C   UNL     1     -34.351  31.027   3.012  0.00  0.00    +0.318 C 
BRANCH  23  24
ATOM     24  O   UNL     1     -35.467  30.786   3.747  0.00  0.00    -0.480 OA
ATOM     25  H   UNL     1     -35.395  30.609   4.665  0.00  0.00    +0.295 HD
ENDBRANCH  23  24
ENDBRANCH  21  23
ENDBRANCH  16  21
ENDBRANCH  15  16
ENDBRANCH   2  15
TORSDOF 11
ENDMDL
MODEL 9
REMARK VINA RESULT:      -5.6      3.118      7.098
REMARK  Name = 5281786
REMARK  11 active torsions:
REMARK  status: ('A' for Active; 'I' for Inactive)
REMARK    1  A    between atoms: C_2  and  C_4
REMARK    2  A    between atoms: C_2  and  O_15
REMARK    3  A    between atoms: C_3  and  C_5
REMARK    4  A    between atoms: C_8  and  O_11
REMARK    5  A    between atoms: C_9  and  O_13
REMARK    6  A    between atoms: O_15  and  C_16
REMARK    7  A    between atoms: C_16  and  C_18
REMARK    8  A    between atoms: C_16  and  C_21
REMARK    9  A    between atoms: C_18  and  O_19
REMARK   10  A    between atoms: C_21  and  C_23
REMARK   11  A    between atoms: C_23  and  O_24
REMARK                            x       y       z     vdW  Elec       q    Type
REMARK                         _______ _______ _______ _____ _____    ______ ____
ROOT
ATOM      1  O   UNL     1     -36.801  22.851   1.286  0.00  0.00    -0.245 OA
ATOM      2  C   UNL     1     -36.276  22.305   2.243  0.00  0.00    +0.342 C 
ENDROOT
BRANCH   2   4
ATOM      3  C   UNL     1     -34.445  21.182   1.089  0.00  0.00    +0.007 C 
ATOM      4  C   UNL     1     -35.235  21.254   2.170  0.00  0.00    +0.082 C 
BRANCH   3   5
ATOM      5  C   UNL     1     -33.369  20.192   0.904  0.00  0.00    +0.003 C 
ATOM      6  C   UNL     1     -32.253  20.535   0.160  0.00  0.00    +0.040 C 
ATOM      7  C   UNL     1     -33.497  18.937   1.476  0.00  0.00    +0.003 C 
ATOM      8  C   UNL     1     -31.234  19.598  -0.015  0.00  0.00    +0.167 C 
ATOM      9  C   UNL     1     -31.348  18.330   0.556  0.00  0.00    +0.167 C 
ATOM     10  C   UNL     1     -32.479  18.000   1.300  0.00  0.00    +0.040 C 
BRANCH   8  11
ATOM     11  O   UNL     1     -30.135  19.932  -0.747  0.00  0.00    -0.503 OA
ATOM     12  H   UNL     1     -29.861  20.826  -0.800  0.00  0.00    +0.292 HD
ENDBRANCH   8  11
BRANCH   9  13
ATOM     13  O   UNL     1     -30.359  17.407   0.392  0.00  0.00    -0.503 OA
ATOM     14  H   UNL     1     -29.525  17.536   0.800  0.00  0.00    +0.292 HD
ENDBRANCH   9  13
ENDBRANCH   3   5
ENDBRANCH   2   4
BRANCH   2  15
ATOM     15  O   UNL     1     -36.541  22.544   3.561  0.00  0.00    -0.437 OA
BRANCH  15  16
ATOM     16  C   UNL     1     -35.408  22.783   4.386  0.00  0.00    +0.277 C 
BRANCH  16  18
ATOM     17  O   UNL     1     -35.948  22.261   6.698  0.00  0.00    -0.246 OA
ATOM     18  C   UNL     1     -35.521  21.898   5.610  0.00  0.00    +0.355 C 
BRANCH  18  19
ATOM     19  O   UNL     1     -35.108  20.628   5.365  0.00  0.00    -0.478 OA
ATOM     20  H   UNL     1     -34.680  20.137   6.039  0.00  0.00    +0.295 HD
ENDBRANCH  18  19
ENDBRANCH  16  18
BRANCH  16  21
ATOM     21  C   UNL     1     -35.401  24.261   4.776  0.00  0.00    +0.165 C 
BRANCH  21  23
ATOM     22  O   UNL     1     -36.165  25.787   3.029  0.00  0.00    -0.250 OA
ATOM     23  C   UNL     1     -36.407  25.061   3.981  0.00  0.00    +0.318 C 
BRANCH  23  24
ATOM     24  O   UNL     1     -37.657  24.856   4.471  0.00  0.00    -0.480 OA
ATOM     25  H   UNL     1     -37.795  24.227   5.153  0.00  0.00    +0.295 HD
ENDBRANCH  23  24
ENDBRANCH  21  23
ENDBRANCH  16  21
ENDBRANCH  15  16
ENDBRANCH   2  15
TORSDOF 11
ENDMDL
