MODEL 1
REMARK VINA RESULT:      -5.9      0.000      0.000
REMARK  Name = 5376265
REMARK  12 active torsions:
REMARK  status: ('A' for Active; 'I' for Inactive)
REMARK    1  A    between atoms: C_3  and  O_10
REMARK    2  A    between atoms: C_6  and  C_17
REMARK    3  A    between atoms: O_10  and  C_12
REMARK    4  A    between atoms: C_12  and  C_13
REMARK    5  A    between atoms: C_17  and  O_18
REMARK    6  A    between atoms: O_18  and  C_20
REMARK    7  A    between atoms: C_20  and  C_21
REMARK    8  A    between atoms: C_21  and  C_22
REMARK    9  A    between atoms: C_21  and  O_27
REMARK   10  A    between atoms: C_21  and  C_29
REMARK   11  A    between atoms: C_22  and  O_25
REMARK   12  A    between atoms: C_29  and  O_31
REMARK                            x       y       z     vdW  Elec       q    Type
REMARK                         _______ _______ _______ _____ _____    ______ ____
ROOT
ATOM      1  N   UNL     1     -38.748  20.593  -0.660  0.00  0.00    +0.396 N 
ATOM      2  C   UNL     1     -37.690  21.110   0.262  0.00  0.00    +0.006 C 
ATOM      3  C   UNL     1     -36.749  19.933   0.524  0.00  0.00    +0.152 C 
ATOM      4  C   UNL     1     -37.096  18.940  -0.573  0.00  0.00    +0.019 C 
ATOM      5  C   UNL     1     -38.592  19.131  -0.713  0.00  0.00    -0.073 C 
ATOM      6  C   UNL     1     -38.417  21.626   1.467  0.00  0.00    -0.023 C 
ATOM      7  C   UNL     1     -40.045  20.998  -0.075  0.00  0.00    -0.050 C 
ATOM      8  C   UNL     1     -39.737  21.562   1.270  0.00  0.00    -0.056 C 
ATOM      9  H   UNL     1     -38.685  20.957  -1.610  0.00  0.00    -0.079 HD
ENDROOT
BRANCH   3  10
ATOM     10  O   UNL     1     -35.395  20.338   0.429  0.00  0.00    -0.451 OA
BRANCH  10  12
ATOM     11  O   UNL     1     -34.928  20.041   2.663  0.00  0.00    -0.245 OA
ATOM     12  C   UNL     1     -34.592  20.017   1.488  0.00  0.00    +0.337 C 
BRANCH  12  13
ATOM     13  C   UNL     1     -33.231  19.635   1.001  0.00  0.00    +0.049 C 
ATOM     14  C   UNL     1     -32.493  20.602   0.123  0.00  0.00    +0.037 C 
ATOM     15  C   UNL     1     -32.793  18.419   1.376  0.00  0.00    -0.024 C 
ATOM     16  C   UNL     1     -31.475  17.793   1.050  0.00  0.00    +0.031 C 
ENDBRANCH  12  13
ENDBRANCH  10  12
ENDBRANCH   3  10
BRANCH   6  17
ATOM     17  C   UNL     1     -37.710  22.168   2.656  0.00  0.00    +0.229 C 
BRANCH  17  18
ATOM     18  O   UNL     1     -37.373  23.543   2.448  0.00  0.00    -0.442 OA
BRANCH  18  20
ATOM     19  O   UNL     1     -35.089  23.391   2.264  0.00  0.00    -0.247 OA
ATOM     20  C   UNL     1     -36.093  23.894   2.756  0.00  0.00    +0.346 C 
BRANCH  20  21
ATOM     21  C   UNL     1     -36.067  25.010   3.813  0.00  0.00    +0.224 C 
BRANCH  21  22
ATOM     22  C   UNL     1     -34.926  24.797   4.862  0.00  0.00    +0.123 C 
ATOM     23  C   UNL     1     -35.132  23.512   5.686  0.00  0.00    +0.032 C 
ATOM     24  C   UNL     1     -34.818  25.981   5.837  0.00  0.00    +0.032 C 
BRANCH  22  25
ATOM     25  O   UNL     1     -33.665  24.676   4.198  0.00  0.00    -0.384 OA
ATOM     26  H   UNL     1     -33.004  25.218   4.657  0.00  0.00    +0.210 HD
ENDBRANCH  22  25
ENDBRANCH  21  22
BRANCH  21  27
ATOM     27  O   UNL     1     -37.313  24.829   4.521  0.00  0.00    -0.373 OA
ATOM     28  H   UNL     1     -38.025  24.660   3.884  0.00  0.00    +0.211 HD
ENDBRANCH  21  27
BRANCH  21  29
ATOM     29  C   UNL     1     -36.153  26.421   3.166  0.00  0.00    +0.148 C 
ATOM     30  C   UNL     1     -35.331  26.681   1.910  0.00  0.00    +0.035 C 
BRANCH  29  31
ATOM     31  O   UNL     1     -37.523  26.728   2.868  0.00  0.00    -0.381 OA
ATOM     32  H   UNL     1     -37.986  26.970   3.685  0.00  0.00    +0.210 HD
ENDBRANCH  29  31
ENDBRANCH  21  29
ENDBRANCH  20  21
ENDBRANCH  18  20
ENDBRANCH  17  18
ENDBRANCH   6  17
TORSDOF 12
ENDMDL
MODEL 2
REMARK VINA RESULT:      -5.8      1.817      6.475
REMARK  Name = 5376265
REMARK  12 active torsions:
REMARK  status: ('A' for Active; 'I' for Inactive)
REMARK    1  A    between atoms: C_3  and  O_10
REMARK    2  A    between atoms: C_6  and  C_17
REMARK    3  A    between atoms: O_10  and  C_12
REMARK    4  A    between atoms: C_12  and  C_13
REMARK    5  A    between atoms: C_17  and  O_18
REMARK    6  A    between atoms: O_18  and  C_20
REMARK    7  A    between atoms: C_20  and  C_21
REMARK    8  A    between atoms: C_21  and  C_22
REMARK    9  A    between atoms: C_21  and  O_27
REMARK   10  A    between atoms: C_21  and  C_29
REMARK   11  A    between atoms: C_22  and  O_25
REMARK   12  A    between atoms: C_29  and  O_31
REMARK                            x       y       z     vdW  Elec       q    Type
REMARK                         _______ _______ _______ _____ _____    ______ ____
ROOT
ATOM      1  N   UNL     1     -40.026  22.605   1.965  0.00  0.00    +0.396 N 
ATOM      2  C   UNL     1     -38.660  22.678   2.570  0.00  0.00    +0.006 C 
ATOM      3  C   UNL     1     -38.392  24.163   2.825  0.00  0.00    +0.152 C 
ATOM      4  C   UNL     1     -39.767  24.802   2.724  0.00  0.00    +0.019 C 
ATOM      5  C   UNL     1     -40.419  23.983   1.630  0.00  0.00    -0.073 C 
ATOM      6  C   UNL     1     -37.742  22.023   1.583  0.00  0.00    -0.023 C 
ATOM      7  C   UNL     1     -39.905  21.749   0.765  0.00  0.00    -0.050 C 
ATOM      8  C   UNL     1     -38.446  21.503   0.575  0.00  0.00    -0.056 C 
ATOM      9  H   UNL     1     -40.734  22.211   2.583  0.00  0.00    -0.079 HD
ENDROOT
BRANCH   3  10
ATOM     10  O   UNL     1     -37.836  24.362   4.112  0.00  0.00    -0.451 OA
BRANCH  10  12
ATOM     11  O   UNL     1     -36.453  26.109   3.536  0.00  0.00    -0.245 OA
ATOM     12  C   UNL     1     -36.676  25.086   4.164  0.00  0.00    +0.337 C 
BRANCH  12  13
ATOM     13  C   UNL     1     -35.711  24.437   5.103  0.00  0.00    +0.049 C 
ATOM     14  C   UNL     1     -34.599  25.270   5.668  0.00  0.00    +0.037 C 
ATOM     15  C   UNL     1     -35.911  23.127   5.339  0.00  0.00    -0.024 C 
ATOM     16  C   UNL     1     -35.116  22.238   6.241  0.00  0.00    +0.031 C 
ENDBRANCH  12  13
ENDBRANCH  10  12
ENDBRANCH   3  10
BRANCH   6  17
ATOM     17  C   UNL     1     -36.272  21.951   1.785  0.00  0.00    +0.229 C 
BRANCH  17  18
ATOM     18  O   UNL     1     -35.694  21.004   0.883  0.00  0.00    -0.442 OA
BRANCH  18  20
ATOM     19  O   UNL     1     -34.686  19.937   2.649  0.00  0.00    -0.247 OA
ATOM     20  C   UNL     1     -34.962  20.007   1.457  0.00  0.00    +0.346 C 
BRANCH  20  21
ATOM     21  C   UNL     1     -34.518  18.975   0.407  0.00  0.00    +0.224 C 
BRANCH  21  22
ATOM     22  C   UNL     1     -35.738  18.251  -0.254  0.00  0.00    +0.123 C 
ATOM     23  C   UNL     1     -35.466  16.752  -0.476  0.00  0.00    +0.032 C 
ATOM     24  C   UNL     1     -36.110  18.878  -1.608  0.00  0.00    +0.032 C 
BRANCH  22  25
ATOM     25  O   UNL     1     -36.887  18.352   0.592  0.00  0.00    -0.384 OA
ATOM     26  H   UNL     1     -37.456  17.578   0.459  0.00  0.00    +0.210 HD
ENDBRANCH  22  25
ENDBRANCH  21  22
BRANCH  21  27
ATOM     27  O   UNL     1     -33.824  17.979   1.189  0.00  0.00    -0.373 OA
ATOM     28  H   UNL     1     -33.049  17.666   0.696  0.00  0.00    +0.211 HD
ENDBRANCH  21  27
BRANCH  21  29
ATOM     29  C   UNL     1     -33.456  19.561  -0.566  0.00  0.00    +0.148 C 
ATOM     30  C   UNL     1     -32.471  20.585  -0.015  0.00  0.00    +0.035 C 
BRANCH  29  31
ATOM     31  O   UNL     1     -32.698  18.489  -1.147  0.00  0.00    -0.381 OA
ATOM     32  H   UNL     1     -32.704  17.727  -0.548  0.00  0.00    +0.210 HD
ENDBRANCH  29  31
ENDBRANCH  21  29
ENDBRANCH  20  21
ENDBRANCH  18  20
ENDBRANCH  17  18
ENDBRANCH   6  17
TORSDOF 12
ENDMDL
MODEL 3
REMARK VINA RESULT:      -5.8      4.906      7.888
REMARK  Name = 5376265
REMARK  12 active torsions:
REMARK  status: ('A' for Active; 'I' for Inactive)
REMARK    1  A    between atoms: C_3  and  O_10
REMARK    2  A    between atoms: C_6  and  C_17
REMARK    3  A    between atoms: O_10  and  C_12
REMARK    4  A    between atoms: C_12  and  C_13
REMARK    5  A    between atoms: C_17  and  O_18
REMARK    6  A    between atoms: O_18  and  C_20
REMARK    7  A    between atoms: C_20  and  C_21
REMARK    8  A    between atoms: C_21  and  C_22
REMARK    9  A    between atoms: C_21  and  O_27
REMARK   10  A    between atoms: C_21  and  C_29
REMARK   11  A    between atoms: C_22  and  O_25
REMARK   12  A    between atoms: C_29  and  O_31
REMARK                            x       y       z     vdW  Elec       q    Type
REMARK                         _______ _______ _______ _____ _____    ______ ____
ROOT
ATOM      1  N   UNL     1     -32.019  25.426   0.864  0.00  0.00    +0.396 N 
ATOM      2  C   UNL     1     -32.040  26.001   2.245  0.00  0.00    +0.006 C 
ATOM      3  C   UNL     1     -33.391  25.603   2.844  0.00  0.00    +0.152 C 
ATOM      4  C   UNL     1     -33.883  24.497   1.927  0.00  0.00    +0.019 C 
ATOM      5  C   UNL     1     -33.384  24.960   0.574  0.00  0.00    -0.073 C 
ATOM      6  C   UNL     1     -31.825  27.475   2.076  0.00  0.00    -0.023 C 
ATOM      7  C   UNL     1     -31.597  26.521  -0.037  0.00  0.00    -0.050 C 
ATOM      8  C   UNL     1     -31.576  27.759   0.795  0.00  0.00    -0.056 C 
ATOM      9  H   UNL     1     -31.380  24.639   0.751  0.00  0.00    -0.079 HD
ENDROOT
BRANCH   3  10
ATOM     10  O   UNL     1     -33.235  25.128   4.170  0.00  0.00    -0.451 OA
BRANCH  10  12
ATOM     11  O   UNL     1     -34.132  26.637   5.658  0.00  0.00    -0.245 OA
ATOM     12  C   UNL     1     -34.159  25.561   5.080  0.00  0.00    +0.337 C 
BRANCH  12  13
ATOM     13  C   UNL     1     -35.213  24.519   5.272  0.00  0.00    +0.049 C 
ATOM     14  C   UNL     1     -36.618  24.843   4.856  0.00  0.00    +0.037 C 
ATOM     15  C   UNL     1     -34.806  23.370   5.843  0.00  0.00    -0.024 C 
ATOM     16  C   UNL     1     -35.637  22.162   6.136  0.00  0.00    +0.031 C 
ENDBRANCH  12  13
ENDBRANCH  10  12
ENDBRANCH   3  10
BRANCH   6  17
ATOM     17  C   UNL     1     -31.847  28.422   3.220  0.00  0.00    +0.229 C 
BRANCH  17  18
ATOM     18  O   UNL     1     -31.039  27.922   4.291  0.00  0.00    -0.442 OA
BRANCH  18  20
ATOM     19  O   UNL     1     -29.195  29.222   3.865  0.00  0.00    -0.247 OA
ATOM     20  C   UNL     1     -29.980  28.702   4.649  0.00  0.00    +0.346 C 
BRANCH  20  21
ATOM     21  C   UNL     1     -29.894  28.844   6.177  0.00  0.00    +0.224 C 
BRANCH  21  22
ATOM     22  C   UNL     1     -28.512  29.418   6.635  0.00  0.00    +0.123 C 
ATOM     23  C   UNL     1     -28.366  29.416   8.168  0.00  0.00    +0.032 C 
ATOM     24  C   UNL     1     -28.296  30.857   6.133  0.00  0.00    +0.032 C 
BRANCH  22  25
ATOM     25  O   UNL     1     -27.449  28.620   6.107  0.00  0.00    -0.384 OA
ATOM     26  H   UNL     1     -27.664  28.354   5.199  0.00  0.00    +0.210 HD
ENDBRANCH  22  25
ENDBRANCH  21  22
BRANCH  21  27
ATOM     27  O   UNL     1     -29.945  27.479   6.644  0.00  0.00    -0.373 OA
ATOM     28  H   UNL     1     -30.844  27.276   6.948  0.00  0.00    +0.211 HD
ENDBRANCH  21  27
BRANCH  21  29
ATOM     29  C   UNL     1     -31.155  29.537   6.766  0.00  0.00    +0.148 C 
ATOM     30  C   UNL     1     -31.786  30.670   5.965  0.00  0.00    +0.035 C 
BRANCH  29  31
ATOM     31  O   UNL     1     -32.171  28.553   7.011  0.00  0.00    -0.381 OA
ATOM     32  H   UNL     1     -31.836  27.676   6.768  0.00  0.00    +0.210 HD
ENDBRANCH  29  31
ENDBRANCH  21  29
ENDBRANCH  20  21
ENDBRANCH  18  20
ENDBRANCH  17  18
ENDBRANCH   6  17
TORSDOF 12
ENDMDL
MODEL 4
REMARK VINA RESULT:      -5.8      1.208      1.621
REMARK  Name = 5376265
REMARK  12 active torsions:
REMARK  status: ('A' for Active; 'I' for Inactive)
REMARK    1  A    between atoms: C_3  and  O_10
REMARK    2  A    between atoms: C_6  and  C_17
REMARK    3  A    between atoms: O_10  and  C_12
REMARK    4  A    between atoms: C_12  and  C_13
REMARK    5  A    between atoms: C_17  and  O_18
REMARK    6  A    between atoms: O_18  and  C_20
REMARK    7  A    between atoms: C_20  and  C_21
REMARK    8  A    between atoms: C_21  and  C_22
REMARK    9  A    between atoms: C_21  and  O_27
REMARK   10  A    between atoms: C_21  and  C_29
REMARK   11  A    between atoms: C_22  and  O_25
REMARK   12  A    between atoms: C_29  and  O_31
REMARK                            x       y       z     vdW  Elec       q    Type
REMARK                         _______ _______ _______ _____ _____    ______ ____
ROOT
ATOM      1  N   UNL     1     -37.841  22.045  -0.867  0.00  0.00    +0.396 N 
ATOM      2  C   UNL     1     -36.836  22.092   0.239  0.00  0.00    +0.006 C 
ATOM      3  C   UNL     1     -36.207  20.698   0.295  0.00  0.00    +0.152 C 
ATOM      4  C   UNL     1     -36.600  20.069  -1.031  0.00  0.00    +0.019 C 
ATOM      5  C   UNL     1     -37.989  20.632  -1.251  0.00  0.00    -0.073 C 
ATOM      6  C   UNL     1     -37.598  22.499   1.464  0.00  0.00    -0.023 C 
ATOM      7  C   UNL     1     -39.092  22.611  -0.319  0.00  0.00    -0.050 C 
ATOM      8  C   UNL     1     -38.862  22.790   1.144  0.00  0.00    -0.056 C 
ATOM      9  H   UNL     1     -37.573  22.576  -1.696  0.00  0.00    -0.079 HD
ENDROOT
BRANCH   3  10
ATOM     10  O   UNL     1     -34.799  20.784   0.417  0.00  0.00    -0.451 OA
BRANCH  10  12
ATOM     11  O   UNL     1     -34.707  19.863   2.525  0.00  0.00    -0.245 OA
ATOM     12  C   UNL     1     -34.231  20.038   1.413  0.00  0.00    +0.337 C 
BRANCH  12  13
ATOM     13  C   UNL     1     -32.932  19.466   0.945  0.00  0.00    +0.049 C 
ATOM     14  C   UNL     1     -32.575  18.072   1.368  0.00  0.00    +0.037 C 
ATOM     15  C   UNL     1     -32.166  20.283   0.197  0.00  0.00    -0.024 C 
ATOM     16  C   UNL     1     -30.837  19.969  -0.413  0.00  0.00    +0.031 C 
ENDBRANCH  12  13
ENDBRANCH  10  12
ENDBRANCH   3  10
BRANCH   6  17
ATOM     17  C   UNL     1     -36.964  22.596   2.804  0.00  0.00    +0.229 C 
BRANCH  17  18
ATOM     18  O   UNL     1     -36.291  23.850   2.943  0.00  0.00    -0.442 OA
BRANCH  18  20
ATOM     19  O   UNL     1     -38.024  24.696   4.189  0.00  0.00    -0.247 OA
ATOM     20  C   UNL     1     -36.860  24.737   3.808  0.00  0.00    +0.346 C 
BRANCH  20  21
ATOM     21  C   UNL     1     -35.847  25.808   4.244  0.00  0.00    +0.224 C 
BRANCH  21  22
ATOM     22  C   UNL     1     -34.623  25.186   4.995  0.00  0.00    +0.123 C 
ATOM     23  C   UNL     1     -35.004  23.899   5.750  0.00  0.00    +0.032 C 
ATOM     24  C   UNL     1     -34.011  26.172   6.004  0.00  0.00    +0.032 C 
BRANCH  22  25
ATOM     25  O   UNL     1     -33.598  24.841   4.060  0.00  0.00    -0.384 OA
ATOM     26  H   UNL     1     -33.972  24.810   3.166  0.00  0.00    +0.210 HD
ENDBRANCH  22  25
ENDBRANCH  21  22
BRANCH  21  27
ATOM     27  O   UNL     1     -36.577  26.582   5.221  0.00  0.00    -0.373 OA
ATOM     28  H   UNL     1     -36.150  27.446   5.332  0.00  0.00    +0.211 HD
ENDBRANCH  21  27
BRANCH  21  29
ATOM     29  C   UNL     1     -35.517  26.796   3.089  0.00  0.00    +0.148 C 
ATOM     30  C   UNL     1     -36.547  26.966   1.979  0.00  0.00    +0.035 C 
BRANCH  29  31
ATOM     31  O   UNL     1     -35.238  28.093   3.634  0.00  0.00    -0.381 OA
ATOM     32  H   UNL     1     -34.784  27.996   4.486  0.00  0.00    +0.210 HD
ENDBRANCH  29  31
ENDBRANCH  21  29
ENDBRANCH  20  21
ENDBRANCH  18  20
ENDBRANCH  17  18
ENDBRANCH   6  17
TORSDOF 12
ENDMDL
MODEL 5
REMARK VINA RESULT:      -5.8      3.737      6.378
REMARK  Name = 5376265
REMARK  12 active torsions:
REMARK  status: ('A' for Active; 'I' for Inactive)
REMARK    1  A    between atoms: C_3  and  O_10
REMARK    2  A    between atoms: C_6  and  C_17
REMARK    3  A    between atoms: O_10  and  C_12
REMARK    4  A    between atoms: C_12  and  C_13
REMARK    5  A    between atoms: C_17  and  O_18
REMARK    6  A    between atoms: O_18  and  C_20
REMARK    7  A    between atoms: C_20  and  C_21
REMARK    8  A    between atoms: C_21  and  C_22
REMARK    9  A    between atoms: C_21  and  O_27
REMARK   10  A    between atoms: C_21  and  C_29
REMARK   11  A    between atoms: C_22  and  O_25
REMARK   12  A    between atoms: C_29  and  O_31
REMARK                            x       y       z     vdW  Elec       q    Type
REMARK                         _______ _______ _______ _____ _____    ______ ____
ROOT
ATOM      1  N   UNL     1     -36.552  22.482   4.223  0.00  0.00    +0.396 N 
ATOM      2  C   UNL     1     -36.857  23.921   4.492  0.00  0.00    +0.006 C 
ATOM      3  C   UNL     1     -37.038  24.576   3.121  0.00  0.00    +0.152 C 
ATOM      4  C   UNL     1     -37.222  23.398   2.178  0.00  0.00    +0.019 C 
ATOM      5  C   UNL     1     -36.295  22.362   2.779  0.00  0.00    -0.073 C 
ATOM      6  C   UNL     1     -35.704  24.437   5.299  0.00  0.00    -0.023 C 
ATOM      7  C   UNL     1     -35.361  22.149   5.033  0.00  0.00    -0.050 C 
ATOM      8  C   UNL     1     -34.870  23.439   5.601  0.00  0.00    -0.056 C 
ATOM      9  H   UNL     1     -37.308  21.844   4.469  0.00  0.00    -0.079 HD
ENDROOT
BRANCH   3  10
ATOM     10  O   UNL     1     -38.178  25.416   3.108  0.00  0.00    -0.451 OA
BRANCH  10  12
ATOM     11  O   UNL     1     -37.341  27.208   1.930  0.00  0.00    -0.245 OA
ATOM     12  C   UNL     1     -38.212  26.375   2.133  0.00  0.00    +0.337 C 
BRANCH  12  13
ATOM     13  C   UNL     1     -39.479  26.261   1.350  0.00  0.00    +0.049 C 
ATOM     14  C   UNL     1     -39.617  27.075   0.098  0.00  0.00    +0.037 C 
ATOM     15  C   UNL     1     -40.417  25.444   1.865  0.00  0.00    -0.024 C 
ATOM     16  C   UNL     1     -41.761  25.131   1.287  0.00  0.00    +0.031 C 
ENDBRANCH  12  13
ENDBRANCH  10  12
ENDBRANCH   3  10
BRANCH   6  17
ATOM     17  C   UNL     1     -35.594  25.859   5.716  0.00  0.00    +0.229 C 
BRANCH  17  18
ATOM     18  O   UNL     1     -35.358  26.692   4.577  0.00  0.00    -0.442 OA
BRANCH  18  20
ATOM     19  O   UNL     1     -33.092  26.460   4.863  0.00  0.00    -0.247 OA
ATOM     20  C   UNL     1     -34.053  26.992   4.321  0.00  0.00    +0.346 C 
BRANCH  20  21
ATOM     21  C   UNL     1     -33.941  28.096   3.257  0.00  0.00    +0.224 C 
BRANCH  21  22
ATOM     22  C   UNL     1     -32.916  29.204   3.669  0.00  0.00    +0.123 C 
ATOM     23  C   UNL     1     -33.442  30.618   3.359  0.00  0.00    +0.032 C 
ATOM     24  C   UNL     1     -31.565  29.027   2.955  0.00  0.00    +0.032 C 
BRANCH  22  25
ATOM     25  O   UNL     1     -32.667  29.144   5.075  0.00  0.00    -0.384 OA
ATOM     26  H   UNL     1     -31.910  29.710   5.294  0.00  0.00    +0.210 HD
ENDBRANCH  22  25
ENDBRANCH  21  22
BRANCH  21  27
ATOM     27  O   UNL     1     -35.245  28.716   3.278  0.00  0.00    -0.373 OA
ATOM     28  H   UNL     1     -35.695  28.548   2.435  0.00  0.00    +0.211 HD
ENDBRANCH  21  27
BRANCH  21  29
ATOM     29  C   UNL     1     -33.780  27.506   1.827  0.00  0.00    +0.148 C 
ATOM     30  C   UNL     1     -33.908  25.997   1.659  0.00  0.00    +0.035 C 
BRANCH  29  31
ATOM     31  O   UNL     1     -34.723  28.130   0.943  0.00  0.00    -0.381 OA
ATOM     32  H   UNL     1     -34.770  27.628   0.115  0.00  0.00    +0.210 HD
ENDBRANCH  29  31
ENDBRANCH  21  29
ENDBRANCH  20  21
ENDBRANCH  18  20
ENDBRANCH  17  18
ENDBRANCH   6  17
TORSDOF 12
ENDMDL
MODEL 6
REMARK VINA RESULT:      -5.7      2.580      6.943
REMARK  Name = 5376265
REMARK  12 active torsions:
REMARK  status: ('A' for Active; 'I' for Inactive)
REMARK    1  A    between atoms: C_3  and  O_10
REMARK    2  A    between atoms: C_6  and  C_17
REMARK    3  A    between atoms: O_10  and  C_12
REMARK    4  A    between atoms: C_12  and  C_13
REMARK    5  A    between atoms: C_17  and  O_18
REMARK    6  A    between atoms: O_18  and  C_20
REMARK    7  A    between atoms: C_20  and  C_21
REMARK    8  A    between atoms: C_21  and  C_22
REMARK    9  A    between atoms: C_21  and  O_27
REMARK   10  A    between atoms: C_21  and  C_29
REMARK   11  A    between atoms: C_22  and  O_25
REMARK   12  A    between atoms: C_29  and  O_31
REMARK                            x       y       z     vdW  Elec       q    Type
REMARK                         _______ _______ _______ _____ _____    ______ ____
ROOT
ATOM      1  N   UNL     1     -34.520  28.030   1.022  0.00  0.00    +0.396 N 
ATOM      2  C   UNL     1     -34.829  26.922   1.978  0.00  0.00    +0.006 C 
ATOM      3  C   UNL     1     -33.983  27.194   3.224  0.00  0.00    +0.152 C 
ATOM      4  C   UNL     1     -33.555  28.643   3.062  0.00  0.00    +0.019 C 
ATOM      5  C   UNL     1     -33.358  28.751   1.565  0.00  0.00    -0.073 C 
ATOM      6  C   UNL     1     -34.503  25.653   1.249  0.00  0.00    -0.023 C 
ATOM      7  C   UNL     1     -34.226  27.390  -0.278  0.00  0.00    -0.050 C 
ATOM      8  C   UNL     1     -34.167  25.923  -0.016  0.00  0.00    -0.056 C 
ATOM      9  H   UNL     1     -35.283  28.696   0.898  0.00  0.00    -0.079 HD
ENDROOT
BRANCH   3  10
ATOM     10  O   UNL     1     -34.750  27.021   4.402  0.00  0.00    -0.451 OA
BRANCH  10  12
ATOM     11  O   UNL     1     -33.241  26.213   5.941  0.00  0.00    -0.245 OA
ATOM     12  C   UNL     1     -34.277  26.106   5.302  0.00  0.00    +0.337 C 
BRANCH  12  13
ATOM     13  C   UNL     1     -35.214  24.945   5.390  0.00  0.00    +0.049 C 
ATOM     14  C   UNL     1     -36.647  25.157   5.002  0.00  0.00    +0.037 C 
ATOM     15  C   UNL     1     -34.684  23.796   5.850  0.00  0.00    -0.024 C 
ATOM     16  C   UNL     1     -35.380  22.485   6.023  0.00  0.00    +0.031 C 
ENDBRANCH  12  13
ENDBRANCH  10  12
ENDBRANCH   3  10
BRANCH   6  17
ATOM     17  C   UNL     1     -34.611  24.315   1.886  0.00  0.00    +0.229 C 
BRANCH  17  18
ATOM     18  O   UNL     1     -35.979  23.902   1.941  0.00  0.00    -0.442 OA
BRANCH  18  20
ATOM     19  O   UNL     1     -36.096  22.935  -0.138  0.00  0.00    -0.247 OA
ATOM     20  C   UNL     1     -36.340  22.925   1.063  0.00  0.00    +0.346 C 
BRANCH  20  21
ATOM     21  C   UNL     1     -37.105  21.798   1.777  0.00  0.00    +0.224 C 
BRANCH  21  22
ATOM     22  C   UNL     1     -38.607  21.741   1.340  0.00  0.00    +0.123 C 
ATOM     23  C   UNL     1     -38.789  21.002   0.001  0.00  0.00    +0.032 C 
ATOM     24  C   UNL     1     -39.215  23.147   1.199  0.00  0.00    +0.032 C 
BRANCH  22  25
ATOM     25  O   UNL     1     -39.377  21.040   2.319  0.00  0.00    -0.384 OA
ATOM     26  H   UNL     1     -38.802  20.427   2.805  0.00  0.00    +0.210 HD
ENDBRANCH  22  25
ENDBRANCH  21  22
BRANCH  21  27
ATOM     27  O   UNL     1     -37.097  22.212   3.161  0.00  0.00    -0.373 OA
ATOM     28  H   UNL     1     -37.972  22.556   3.399  0.00  0.00    +0.211 HD
ENDBRANCH  21  27
BRANCH  21  29
ATOM     29  C   UNL     1     -36.325  20.454   1.737  0.00  0.00    +0.148 C 
ATOM     30  C   UNL     1     -34.822  20.493   1.986  0.00  0.00    +0.035 C 
BRANCH  29  31
ATOM     31  O   UNL     1     -36.903  19.537   2.677  0.00  0.00    -0.381 OA
ATOM     32  H   UNL     1     -37.408  18.860   2.200  0.00  0.00    +0.210 HD
ENDBRANCH  29  31
ENDBRANCH  21  29
ENDBRANCH  20  21
ENDBRANCH  18  20
ENDBRANCH  17  18
ENDBRANCH   6  17
TORSDOF 12
ENDMDL
MODEL 7
REMARK VINA RESULT:      -5.7      1.414      2.664
REMARK  Name = 5376265
REMARK  12 active torsions:
REMARK  status: ('A' for Active; 'I' for Inactive)
REMARK    1  A    between atoms: C_3  and  O_10
REMARK    2  A    between atoms: C_6  and  C_17
REMARK    3  A    between atoms: O_10  and  C_12
REMARK    4  A    between atoms: C_12  and  C_13
REMARK    5  A    between atoms: C_17  and  O_18
REMARK    6  A    between atoms: O_18  and  C_20
REMARK    7  A    between atoms: C_20  and  C_21
REMARK    8  A    between atoms: C_21  and  C_22
REMARK    9  A    between atoms: C_21  and  O_27
REMARK   10  A    between atoms: C_21  and  C_29
REMARK   11  A    between atoms: C_22  and  O_25
REMARK   12  A    between atoms: C_29  and  O_31
REMARK                            x       y       z     vdW  Elec       q    Type
REMARK                         _______ _______ _______ _____ _____    ______ ____
ROOT
ATOM      1  N   UNL     1     -37.669  20.978  -1.486  0.00  0.00    +0.396 N 
ATOM      2  C   UNL     1     -36.364  21.041  -0.757  0.00  0.00    +0.006 C 
ATOM      3  C   UNL     1     -36.444  19.976   0.339  0.00  0.00    +0.152 C 
ATOM      4  C   UNL     1     -37.616  19.107  -0.084  0.00  0.00    +0.019 C 
ATOM      5  C   UNL     1     -38.563  20.122  -0.690  0.00  0.00    -0.073 C 
ATOM      6  C   UNL     1     -36.238  22.452  -0.269  0.00  0.00    -0.023 C 
ATOM      7  C   UNL     1     -38.161  22.369  -1.580  0.00  0.00    -0.050 C 
ATOM      8  C   UNL     1     -37.247  23.192  -0.735  0.00  0.00    -0.056 C 
ATOM      9  H   UNL     1     -37.602  20.586  -2.425  0.00  0.00    -0.079 HD
ENDROOT
BRANCH   3  10
ATOM     10  O   UNL     1     -35.248  19.219   0.396  0.00  0.00    -0.451 OA
BRANCH  10  12
ATOM     11  O   UNL     1     -34.709  19.928   2.518  0.00  0.00    -0.245 OA
ATOM     12  C   UNL     1     -34.384  19.527   1.410  0.00  0.00    +0.337 C 
BRANCH  12  13
ATOM     13  C   UNL     1     -32.975  19.308   0.966  0.00  0.00    +0.049 C 
ATOM     14  C   UNL     1     -32.277  18.054   1.404  0.00  0.00    +0.037 C 
ATOM     15  C   UNL     1     -32.433  20.290   0.222  0.00  0.00    -0.024 C 
ATOM     16  C   UNL     1     -31.059  20.327  -0.367  0.00  0.00    +0.031 C 
ENDBRANCH  12  13
ENDBRANCH  10  12
ENDBRANCH   3  10
BRANCH   6  17
ATOM     17  C   UNL     1     -35.098  22.910   0.567  0.00  0.00    +0.229 C 
BRANCH  17  18
ATOM     18  O   UNL     1     -35.565  23.338   1.849  0.00  0.00    -0.442 OA
BRANCH  18  20
ATOM     19  O   UNL     1     -33.791  24.781   2.063  0.00  0.00    -0.247 OA
ATOM     20  C   UNL     1     -34.718  24.144   2.550  0.00  0.00    +0.346 C 
BRANCH  20  21
ATOM     21  C   UNL     1     -35.075  24.149   4.046  0.00  0.00    +0.224 C 
BRANCH  21  22
ATOM     22  C   UNL     1     -36.111  25.268   4.397  0.00  0.00    +0.123 C 
ATOM     23  C   UNL     1     -36.173  26.357   3.310  0.00  0.00    +0.032 C 
ATOM     24  C   UNL     1     -35.785  25.947   5.739  0.00  0.00    +0.032 C 
BRANCH  22  25
ATOM     25  O   UNL     1     -37.421  24.707   4.511  0.00  0.00    -0.384 OA
ATOM     26  H   UNL     1     -37.974  25.284   5.061  0.00  0.00    +0.210 HD
ENDBRANCH  22  25
ENDBRANCH  21  22
BRANCH  21  27
ATOM     27  O   UNL     1     -33.836  24.522   4.686  0.00  0.00    -0.373 OA
ATOM     28  H   UNL     1     -33.654  25.459   4.514  0.00  0.00    +0.211 HD
ENDBRANCH  21  27
BRANCH  21  29
ATOM     29  C   UNL     1     -35.403  22.720   4.566  0.00  0.00    +0.148 C 
ATOM     30  C   UNL     1     -35.371  22.485   6.071  0.00  0.00    +0.035 C 
BRANCH  29  31
ATOM     31  O   UNL     1     -36.694  22.320   4.085  0.00  0.00    -0.381 OA
ATOM     32  H   UNL     1     -37.349  22.996   4.318  0.00  0.00    +0.210 HD
ENDBRANCH  29  31
ENDBRANCH  21  29
ENDBRANCH  20  21
ENDBRANCH  18  20
ENDBRANCH  17  18
ENDBRANCH   6  17
TORSDOF 12
ENDMDL
MODEL 8
REMARK VINA RESULT:      -5.7      4.079      6.619
REMARK  Name = 5376265
REMARK  12 active torsions:
REMARK  status: ('A' for Active; 'I' for Inactive)
REMARK    1  A    between atoms: C_3  and  O_10
REMARK    2  A    between atoms: C_6  and  C_17
REMARK    3  A    between atoms: O_10  and  C_12
REMARK    4  A    between atoms: C_12  and  C_13
REMARK    5  A    between atoms: C_17  and  O_18
REMARK    6  A    between atoms: O_18  and  C_20
REMARK    7  A    between atoms: C_20  and  C_21
REMARK    8  A    between atoms: C_21  and  C_22
REMARK    9  A    between atoms: C_21  and  O_27
REMARK   10  A    between atoms: C_21  and  C_29
REMARK   11  A    between atoms: C_22  and  O_25
REMARK   12  A    between atoms: C_29  and  O_31
REMARK                            x       y       z     vdW  Elec       q    Type
REMARK                         _______ _______ _______ _____ _____    ______ ____
ROOT
ATOM      1  N   UNL     1     -35.749  26.300   0.154  0.00  0.00    +0.396 N 
ATOM      2  C   UNL     1     -35.462  25.704   1.495  0.00  0.00    +0.006 C 
ATOM      3  C   UNL     1     -36.491  26.307   2.453  0.00  0.00    +0.152 C 
ATOM      4  C   UNL     1     -37.544  26.896   1.529  0.00  0.00    +0.019 C 
ATOM      5  C   UNL     1     -36.708  27.395   0.370  0.00  0.00    -0.073 C 
ATOM      6  C   UNL     1     -34.033  26.044   1.795  0.00  0.00    -0.023 C 
ATOM      7  C   UNL     1     -34.455  26.784  -0.373  0.00  0.00    -0.050 C 
ATOM      8  C   UNL     1     -33.474  26.648   0.743  0.00  0.00    -0.056 C 
ATOM      9  H   UNL     1     -36.155  25.645  -0.514  0.00  0.00    -0.079 HD
ENDROOT
BRANCH   3  10
ATOM     10  O   UNL     1     -37.051  25.309   3.287  0.00  0.00    -0.451 OA
BRANCH  10  12
ATOM     11  O   UNL     1     -36.171  25.957   5.313  0.00  0.00    -0.245 OA
ATOM     12  C   UNL     1     -36.421  25.097   4.482  0.00  0.00    +0.337 C 
BRANCH  12  13
ATOM     13  C   UNL     1     -36.073  23.650   4.626  0.00  0.00    +0.049 C 
ATOM     14  C   UNL     1     -36.450  22.714   3.516  0.00  0.00    +0.037 C 
ATOM     15  C   UNL     1     -35.466  23.303   5.777  0.00  0.00    -0.024 C 
ATOM     16  C   UNL     1     -34.995  21.942   6.176  0.00  0.00    +0.031 C 
ENDBRANCH  12  13
ENDBRANCH  10  12
ENDBRANCH   3  10
BRANCH   6  17
ATOM     17  C   UNL     1     -33.378  25.684   3.079  0.00  0.00    +0.229 C 
BRANCH  17  18
ATOM     18  O   UNL     1     -32.402  26.669   3.430  0.00  0.00    -0.442 OA
BRANCH  18  20
ATOM     19  O   UNL     1     -34.025  28.130   4.140  0.00  0.00    -0.247 OA
ATOM     20  C   UNL     1     -32.864  27.736   4.141  0.00  0.00    +0.346 C 
BRANCH  20  21
ATOM     21  C   UNL     1     -31.732  28.390   4.950  0.00  0.00    +0.224 C 
BRANCH  21  22
ATOM     22  C   UNL     1     -31.607  29.921   4.649  0.00  0.00    +0.123 C 
ATOM     23  C   UNL     1     -30.172  30.316   4.256  0.00  0.00    +0.032 C 
ATOM     24  C   UNL     1     -32.026  30.777   5.857  0.00  0.00    +0.032 C 
BRANCH  22  25
ATOM     25  O   UNL     1     -32.459  30.279   3.558  0.00  0.00    -0.384 OA
ATOM     26  H   UNL     1     -31.924  30.409   2.759  0.00  0.00    +0.210 HD
ENDBRANCH  22  25
ENDBRANCH  21  22
BRANCH  21  27
ATOM     27  O   UNL     1     -30.540  27.771   4.420  0.00  0.00    -0.373 OA
ATOM     28  H   UNL     1     -29.760  28.259   4.726  0.00  0.00    +0.211 HD
ENDBRANCH  21  27
BRANCH  21  29
ATOM     29  C   UNL     1     -31.784  27.985   6.450  0.00  0.00    +0.148 C 
ATOM     30  C   UNL     1     -32.863  27.001   6.886  0.00  0.00    +0.035 C 
BRANCH  29  31
ATOM     31  O   UNL     1     -30.513  27.450   6.845  0.00  0.00    -0.381 OA
ATOM     32  H   UNL     1     -30.142  27.991   7.560  0.00  0.00    +0.210 HD
ENDBRANCH  29  31
ENDBRANCH  21  29
ENDBRANCH  20  21
ENDBRANCH  18  20
ENDBRANCH  17  18
ENDBRANCH   6  17
TORSDOF 12
ENDMDL
MODEL 9
REMARK VINA RESULT:      -5.6      1.146      2.409
REMARK  Name = 5376265
REMARK  12 active torsions:
REMARK  status: ('A' for Active; 'I' for Inactive)
REMARK    1  A    between atoms: C_3  and  O_10
REMARK    2  A    between atoms: C_6  and  C_17
REMARK    3  A    between atoms: O_10  and  C_12
REMARK    4  A    between atoms: C_12  and  C_13
REMARK    5  A    between atoms: C_17  and  O_18
REMARK    6  A    between atoms: O_18  and  C_20
REMARK    7  A    between atoms: C_20  and  C_21
REMARK    8  A    between atoms: C_21  and  C_22
REMARK    9  A    between atoms: C_21  and  O_27
REMARK   10  A    between atoms: C_21  and  C_29
REMARK   11  A    between atoms: C_22  and  O_25
REMARK   12  A    between atoms: C_29  and  O_31
REMARK                            x       y       z     vdW  Elec       q    Type
REMARK                         _______ _______ _______ _____ _____    ______ ____
ROOT
ATOM      1  N   UNL     1     -38.808  20.676  -0.920  0.00  0.00    +0.396 N 
ATOM      2  C   UNL     1     -38.143  21.433   0.186  0.00  0.00    +0.006 C 
ATOM      3  C   UNL     1     -37.153  20.458   0.826  0.00  0.00    +0.152 C 
ATOM      4  C   UNL     1     -37.025  19.345  -0.201  0.00  0.00    +0.019 C 
ATOM      5  C   UNL     1     -38.431  19.263  -0.759  0.00  0.00    -0.073 C 
ATOM      6  C   UNL     1     -39.251  21.899   1.082  0.00  0.00    -0.023 C 
ATOM      7  C   UNL     1     -40.262  20.891  -0.757  0.00  0.00    -0.050 C 
ATOM      8  C   UNL     1     -40.435  21.594   0.546  0.00  0.00    -0.056 C 
ATOM      9  H   UNL     1     -38.531  20.978  -1.855  0.00  0.00    -0.079 HD
ENDROOT
BRANCH   3  10
ATOM     10  O   UNL     1     -35.902  21.083   1.052  0.00  0.00    -0.451 OA
BRANCH  10  12
ATOM     11  O   UNL     1     -35.279  20.251   3.105  0.00  0.00    -0.245 OA
ATOM     12  C   UNL     1     -35.057  20.449   1.920  0.00  0.00    +0.337 C 
BRANCH  12  13
ATOM     13  C   UNL     1     -33.810  20.035   1.208  0.00  0.00    +0.049 C 
ATOM     14  C   UNL     1     -33.243  18.677   1.498  0.00  0.00    +0.037 C 
ATOM     15  C   UNL     1     -33.278  20.949   0.375  0.00  0.00    -0.024 C 
ATOM     16  C   UNL     1     -32.054  20.798  -0.471  0.00  0.00    +0.031 C 
ENDBRANCH  12  13
ENDBRANCH  10  12
ENDBRANCH   3  10
BRANCH   6  17
ATOM     17  C   UNL     1     -38.997  22.639   2.346  0.00  0.00    +0.229 C 
BRANCH  17  18
ATOM     18  O   UNL     1     -37.899  23.540   2.180  0.00  0.00    -0.442 OA
BRANCH  18  20
ATOM     19  O   UNL     1     -38.342  24.750   4.081  0.00  0.00    -0.247 OA
ATOM     20  C   UNL     1     -37.551  24.260   3.284  0.00  0.00    +0.346 C 
BRANCH  20  21
ATOM     21  C   UNL     1     -36.023  24.384   3.400  0.00  0.00    +0.224 C 
BRANCH  21  22
ATOM     22  C   UNL     1     -35.560  25.878   3.465  0.00  0.00    +0.123 C 
ATOM     23  C   UNL     1     -36.012  26.676   2.228  0.00  0.00    +0.032 C 
ATOM     24  C   UNL     1     -34.030  25.998   3.581  0.00  0.00    +0.032 C 
BRANCH  22  25
ATOM     25  O   UNL     1     -36.125  26.518   4.612  0.00  0.00    -0.384 OA
ATOM     26  H   UNL     1     -36.922  27.006   4.351  0.00  0.00    +0.210 HD
ENDBRANCH  22  25
ENDBRANCH  21  22
BRANCH  21  27
ATOM     27  O   UNL     1     -35.547  23.863   2.140  0.00  0.00    -0.373 OA
ATOM     28  H   UNL     1     -34.745  23.338   2.291  0.00  0.00    +0.211 HD
ENDBRANCH  21  27
BRANCH  21  29
ATOM     29  C   UNL     1     -35.447  23.437   4.491  0.00  0.00    +0.148 C 
ATOM     30  C   UNL     1     -35.186  24.018   5.875  0.00  0.00    +0.035 C 
BRANCH  29  31
ATOM     31  O   UNL     1     -36.312  22.303   4.644  0.00  0.00    -0.381 OA
ATOM     32  H   UNL     1     -35.899  21.659   5.240  0.00  0.00    +0.210 HD
ENDBRANCH  29  31
ENDBRANCH  21  29
ENDBRANCH  20  21
ENDBRANCH  18  20
ENDBRANCH  17  18
ENDBRANCH   6  17
TORSDOF 12
ENDMDL
