MODEL 1
REMARK VINA RESULT:      -5.8      0.000      0.000
REMARK  Name = 5487427
REMARK  6 active torsions:
REMARK  status: ('A' for Active; 'I' for Inactive)
REMARK    1  A    between atoms: C_2  and  O_3
REMARK    2  A    between atoms: C_2  and  C_15
REMARK    3  A    between atoms: O_3  and  C_12
REMARK    4  A    between atoms: C_15  and  C_17
REMARK    5  A    between atoms: C_15  and  C_22
REMARK    6  A    between atoms: C_15  and  O_26
REMARK                            x       y       z     vdW  Elec       q    Type
REMARK                         _______ _______ _______ _____ _____    ______ ____
ROOT
ATOM      1  O   UNL     1     -35.147  20.966   4.146  0.00  0.00    -0.247 OA
ATOM      2  C   UNL     1     -35.918  21.493   3.352  0.00  0.00    +0.350 C 
ENDROOT
BRANCH   2   3
ATOM      3  O   UNL     1     -36.454  22.747   3.502  0.00  0.00    -0.450 OA
BRANCH   3  12
ATOM      4  O   UNL     1     -33.071  26.857   4.721  0.00  0.00    -0.358 OA
ATOM      5  N   UNL     1     -35.393  26.648   3.140  0.00  0.00    +0.393 N 
ATOM      6  C   UNL     1     -34.207  25.701   2.772  0.00  0.00    -0.020 C 
ATOM      7  C   UNL     1     -35.527  26.233   4.640  0.00  0.00    -0.020 C 
ATOM      8  C   UNL     1     -33.278  25.658   3.977  0.00  0.00    +0.122 C 
ATOM      9  C   UNL     1     -34.119  25.997   5.166  0.00  0.00    +0.122 C 
ATOM     10  C   UNL     1     -34.790  24.279   2.595  0.00  0.00    +0.026 C 
ATOM     11  C   UNL     1     -36.263  24.873   4.677  0.00  0.00    +0.026 C 
ATOM     12  C   UNL     1     -35.537  23.777   3.857  0.00  0.00    +0.165 C 
ATOM     13  C   UNL     1     -36.657  26.499   2.288  0.00  0.00    -0.095 C 
ATOM     14  C   UNL     1     -35.014  28.132   2.984  0.00  0.00    -0.095 C 
ENDBRANCH   3  12
ENDBRANCH   2   3
BRANCH   2  15
ATOM     15  C   UNL     1     -36.387  20.860   2.042  0.00  0.00    +0.227 C 
BRANCH  15  17
ATOM     16  S   UNL     1     -35.147  19.114   0.301  0.00  0.00    -0.088 S 
ATOM     17  C   UNL     1     -35.167  20.565   1.163  0.00  0.00    +0.046 C 
ATOM     18  C   UNL     1     -34.086  21.349   0.998  0.00  0.00    +0.006 C 
ATOM     19  C   UNL     1     -33.163  20.733   0.104  0.00  0.00    +0.007 C 
ATOM     20  C   UNL     1     -33.615  19.514  -0.349  0.00  0.00    +0.035 C 
ENDBRANCH  15  17
BRANCH  15  22
ATOM     21  S   UNL     1     -39.066  21.488   1.829  0.00  0.00    -0.088 S 
ATOM     22  C   UNL     1     -37.465  21.689   1.336  0.00  0.00    +0.046 C 
ATOM     23  C   UNL     1     -37.275  22.579   0.346  0.00  0.00    +0.006 C 
ATOM     24  C   UNL     1     -38.519  23.149  -0.052  0.00  0.00    +0.007 C 
ATOM     25  C   UNL     1     -39.575  22.644   0.672  0.00  0.00    +0.035 C 
ENDBRANCH  15  22
BRANCH  15  26
ATOM     26  O   UNL     1     -36.989  19.611   2.398  0.00  0.00    -0.369 OA
ATOM     27  H   UNL     1     -36.518  19.230   3.156  0.00  0.00    +0.212 HD
ENDBRANCH  15  26
ENDBRANCH   2  15
TORSDOF 6
ENDMDL
MODEL 2
REMARK VINA RESULT:      -5.8      4.391      8.038
REMARK  Name = 5487427
REMARK  6 active torsions:
REMARK  status: ('A' for Active; 'I' for Inactive)
REMARK    1  A    between atoms: C_2  and  O_3
REMARK    2  A    between atoms: C_2  and  C_15
REMARK    3  A    between atoms: O_3  and  C_12
REMARK    4  A    between atoms: C_15  and  C_17
REMARK    5  A    between atoms: C_15  and  C_22
REMARK    6  A    between atoms: C_15  and  O_26
REMARK                            x       y       z     vdW  Elec       q    Type
REMARK                         _______ _______ _______ _____ _____    ______ ____
ROOT
ATOM      1  O   UNL     1     -32.293  27.301   6.735  0.00  0.00    -0.247 OA
ATOM      2  C   UNL     1     -32.456  27.625   5.565  0.00  0.00    +0.350 C 
ENDROOT
BRANCH   2   3
ATOM      3  O   UNL     1     -33.614  27.426   4.855  0.00  0.00    -0.450 OA
BRANCH   3  12
ATOM      4  O   UNL     1     -35.978  22.507   5.053  0.00  0.00    -0.358 OA
ATOM      5  N   UNL     1     -36.256  24.737   3.353  0.00  0.00    +0.393 N 
ATOM      6  C   UNL     1     -36.500  24.982   4.875  0.00  0.00    -0.020 C 
ATOM      7  C   UNL     1     -34.826  24.121   3.472  0.00  0.00    -0.020 C 
ATOM      8  C   UNL     1     -35.878  23.811   5.624  0.00  0.00    +0.122 C 
ATOM      9  C   UNL     1     -34.811  23.263   4.729  0.00  0.00    +0.122 C 
ATOM     10  C   UNL     1     -35.707  26.249   5.271  0.00  0.00    +0.026 C 
ATOM     11  C   UNL     1     -33.840  25.290   3.706  0.00  0.00    +0.026 C 
ATOM     12  C   UNL     1     -34.193  26.130   4.959  0.00  0.00    +0.165 C 
ATOM     13  C   UNL     1     -36.384  25.966   2.448  0.00  0.00    -0.095 C 
ATOM     14  C   UNL     1     -37.266  23.736   2.762  0.00  0.00    -0.095 C 
ENDBRANCH   3  12
ENDBRANCH   2   3
BRANCH   2  15
ATOM     15  C   UNL     1     -31.413  28.338   4.704  0.00  0.00    +0.227 C 
BRANCH  15  17
ATOM     16  S   UNL     1     -28.701  28.108   5.159  0.00  0.00    -0.088 S 
ATOM     17  C   UNL     1     -30.216  28.720   5.581  0.00  0.00    +0.046 C 
ATOM     18  C   UNL     1     -30.237  29.505   6.673  0.00  0.00    +0.006 C 
ATOM     19  C   UNL     1     -28.927  29.625   7.220  0.00  0.00    +0.007 C 
ATOM     20  C   UNL     1     -27.996  28.916   6.494  0.00  0.00    +0.035 C 
ENDBRANCH  15  17
BRANCH  15  22
ATOM     21  S   UNL     1     -31.959  29.440   2.233  0.00  0.00    -0.088 S 
ATOM     22  C   UNL     1     -31.998  29.516   3.919  0.00  0.00    +0.046 C 
ATOM     23  C   UNL     1     -32.551  30.630   4.431  0.00  0.00    +0.006 C 
ATOM     24  C   UNL     1     -32.981  31.496   3.385  0.00  0.00    +0.007 C 
ATOM     25  C   UNL     1     -32.719  30.971   2.139  0.00  0.00    +0.035 C 
ENDBRANCH  15  22
BRANCH  15  26
ATOM     26  O   UNL     1     -30.968  27.375   3.742  0.00  0.00    -0.369 OA
ATOM     27  H   UNL     1     -29.998  27.368   3.717  0.00  0.00    +0.212 HD
ENDBRANCH  15  26
ENDBRANCH   2  15
TORSDOF 6
ENDMDL
MODEL 3
REMARK VINA RESULT:      -5.7      3.340      7.076
REMARK  Name = 5487427
REMARK  6 active torsions:
REMARK  status: ('A' for Active; 'I' for Inactive)
REMARK    1  A    between atoms: C_2  and  O_3
REMARK    2  A    between atoms: C_2  and  C_15
REMARK    3  A    between atoms: O_3  and  C_12
REMARK    4  A    between atoms: C_15  and  C_17
REMARK    5  A    between atoms: C_15  and  C_22
REMARK    6  A    between atoms: C_15  and  O_26
REMARK                            x       y       z     vdW  Elec       q    Type
REMARK                         _______ _______ _______ _____ _____    ______ ____
ROOT
ATOM      1  O   UNL     1     -34.353  22.307   1.245  0.00  0.00    -0.247 OA
ATOM      2  C   UNL     1     -35.149  21.386   1.390  0.00  0.00    +0.350 C 
ENDROOT
BRANCH   2   3
ATOM      3  O   UNL     1     -35.117  20.210   0.683  0.00  0.00    -0.450 OA
BRANCH   3  12
ATOM      4  O   UNL     1     -30.249  18.063  -0.550  0.00  0.00    -0.358 OA
ATOM      5  N   UNL     1     -32.822  16.976  -0.177  0.00  0.00    +0.393 N 
ATOM      6  C   UNL     1     -32.228  17.792   1.013  0.00  0.00    -0.020 C 
ATOM      7  C   UNL     1     -32.679  18.080  -1.273  0.00  0.00    -0.020 C 
ATOM      8  C   UNL     1     -31.087  18.632   0.456  0.00  0.00    +0.122 C 
ATOM      9  C   UNL     1     -31.375  18.815  -1.001  0.00  0.00    +0.122 C 
ATOM     10  C   UNL     1     -33.324  18.773   1.492  0.00  0.00    +0.026 C 
ATOM     11  C   UNL     1     -33.828  19.092  -1.057  0.00  0.00    +0.026 C 
ATOM     12  C   UNL     1     -33.823  19.711   0.363  0.00  0.00    +0.165 C 
ATOM     13  C   UNL     1     -34.232  16.417   0.032  0.00  0.00    -0.095 C 
ATOM     14  C   UNL     1     -31.975  15.731  -0.501  0.00  0.00    -0.095 C 
ENDBRANCH   3  12
ENDBRANCH   2   3
BRANCH   2  15
ATOM     15  C   UNL     1     -36.291  21.371   2.406  0.00  0.00    +0.227 C 
BRANCH  15  17
ATOM     16  S   UNL     1     -37.373  22.941   0.411  0.00  0.00    -0.088 S 
ATOM     17  C   UNL     1     -37.558  21.925   1.745  0.00  0.00    +0.046 C 
ATOM     18  C   UNL     1     -38.828  21.687   2.117  0.00  0.00    +0.006 C 
ATOM     19  C   UNL     1     -39.731  22.379   1.259  0.00  0.00    +0.007 C 
ATOM     20  C   UNL     1     -39.072  23.100   0.288  0.00  0.00    +0.035 C 
ENDBRANCH  15  17
BRANCH  15  22
ATOM     21  S   UNL     1     -36.293  23.715   3.863  0.00  0.00    -0.088 S 
ATOM     22  C   UNL     1     -35.926  22.074   3.717  0.00  0.00    +0.046 C 
ATOM     23  C   UNL     1     -35.332  21.520   4.789  0.00  0.00    +0.006 C 
ATOM     24  C   UNL     1     -35.157  22.493   5.816  0.00  0.00    +0.007 C 
ATOM     25  C   UNL     1     -35.634  23.729   5.444  0.00  0.00    +0.035 C 
ENDBRANCH  15  22
BRANCH  15  26
ATOM     26  O   UNL     1     -36.522  19.994   2.722  0.00  0.00    -0.369 OA
ATOM     27  H   UNL     1     -35.672  19.534   2.806  0.00  0.00    +0.212 HD
ENDBRANCH  15  26
ENDBRANCH   2  15
TORSDOF 6
ENDMDL
MODEL 4
REMARK VINA RESULT:      -5.6      3.572      6.108
REMARK  Name = 5487427
REMARK  6 active torsions:
REMARK  status: ('A' for Active; 'I' for Inactive)
REMARK    1  A    between atoms: C_2  and  O_3
REMARK    2  A    between atoms: C_2  and  C_15
REMARK    3  A    between atoms: O_3  and  C_12
REMARK    4  A    between atoms: C_15  and  C_17
REMARK    5  A    between atoms: C_15  and  C_22
REMARK    6  A    between atoms: C_15  and  O_26
REMARK                            x       y       z     vdW  Elec       q    Type
REMARK                         _______ _______ _______ _____ _____    ______ ____
ROOT
ATOM      1  O   UNL     1     -35.037  26.621   5.770  0.00  0.00    -0.247 OA
ATOM      2  C   UNL     1     -34.291  26.181   4.903  0.00  0.00    +0.350 C 
ENDROOT
BRANCH   2   3
ATOM      3  O   UNL     1     -32.949  26.458   4.817  0.00  0.00    -0.450 OA
BRANCH   3  12
ATOM      4  O   UNL     1     -31.340  31.666   5.153  0.00  0.00    -0.358 OA
ATOM      5  N   UNL     1     -30.013  29.195   5.416  0.00  0.00    +0.393 N 
ATOM      6  C   UNL     1     -31.224  29.444   6.369  0.00  0.00    -0.020 C 
ATOM      7  C   UNL     1     -30.759  29.449   4.067  0.00  0.00    -0.020 C 
ATOM      8  C   UNL     1     -32.036  30.585   5.773  0.00  0.00    +0.122 C 
ATOM      9  C   UNL     1     -31.740  30.588   4.307  0.00  0.00    +0.122 C 
ATOM     10  C   UNL     1     -32.114  28.180   6.325  0.00  0.00    +0.026 C 
ATOM     11  C   UNL     1     -31.595  28.185   3.758  0.00  0.00    +0.026 C 
ATOM     12  C   UNL     1     -32.591  27.834   4.891  0.00  0.00    +0.165 C 
ATOM     13  C   UNL     1     -29.322  27.835   5.553  0.00  0.00    -0.095 C 
ATOM     14  C   UNL     1     -28.880  30.211   5.647  0.00  0.00    -0.095 C 
ENDBRANCH   3  12
ENDBRANCH   2   3
BRANCH   2  15
ATOM     15  C   UNL     1     -34.715  25.221   3.792  0.00  0.00    +0.227 C 
BRANCH  15  17
ATOM     16  S   UNL     1     -35.591  26.891   1.777  0.00  0.00    -0.088 S 
ATOM     17  C   UNL     1     -35.910  25.820   3.041  0.00  0.00    +0.046 C 
ATOM     18  C   UNL     1     -37.211  25.583   3.283  0.00  0.00    +0.006 C 
ATOM     19  C   UNL     1     -38.024  26.324   2.377  0.00  0.00    +0.007 C 
ATOM     20  C   UNL     1     -37.271  27.077   1.503  0.00  0.00    +0.035 C 
ENDBRANCH  15  17
BRANCH  15  22
ATOM     21  S   UNL     1     -35.293  22.598   3.161  0.00  0.00    -0.088 S 
ATOM     22  C   UNL     1     -34.961  23.798   4.300  0.00  0.00    +0.046 C 
ATOM     23  C   UNL     1     -34.943  23.386   5.581  0.00  0.00    +0.006 C 
ATOM     24  C   UNL     1     -35.218  21.990   5.656  0.00  0.00    +0.007 C 
ATOM     25  C   UNL     1     -35.428  21.437   4.412  0.00  0.00    +0.035 C 
ENDBRANCH  15  22
BRANCH  15  26
ATOM     26  O   UNL     1     -33.610  25.155   2.883  0.00  0.00    -0.369 OA
ATOM     27  H   UNL     1     -32.855  24.733   3.323  0.00  0.00    +0.212 HD
ENDBRANCH  15  26
ENDBRANCH   2  15
TORSDOF 6
ENDMDL
MODEL 5
REMARK VINA RESULT:      -5.6      2.166      3.025
REMARK  Name = 5487427
REMARK  6 active torsions:
REMARK  status: ('A' for Active; 'I' for Inactive)
REMARK    1  A    between atoms: C_2  and  O_3
REMARK    2  A    between atoms: C_2  and  C_15
REMARK    3  A    between atoms: O_3  and  C_12
REMARK    4  A    between atoms: C_15  and  C_17
REMARK    5  A    between atoms: C_15  and  C_22
REMARK    6  A    between atoms: C_15  and  O_26
REMARK                            x       y       z     vdW  Elec       q    Type
REMARK                         _______ _______ _______ _____ _____    ______ ____
ROOT
ATOM      1  O   UNL     1     -36.811  22.196  -0.147  0.00  0.00    -0.247 OA
ATOM      2  C   UNL     1     -36.765  21.542   0.888  0.00  0.00    +0.350 C 
ENDROOT
BRANCH   2   3
ATOM      3  O   UNL     1     -36.984  22.051   2.143  0.00  0.00    -0.450 OA
BRANCH   3  12
ATOM      4  O   UNL     1     -35.164  27.085   3.227  0.00  0.00    -0.358 OA
ATOM      5  N   UNL     1     -35.386  24.723   4.747  0.00  0.00    +0.393 N 
ATOM      6  C   UNL     1     -36.701  25.271   4.109  0.00  0.00    -0.020 C 
ATOM      7  C   UNL     1     -34.543  24.636   3.434  0.00  0.00    -0.020 C 
ATOM      8  C   UNL     1     -36.295  26.242   3.008  0.00  0.00    +0.122 C 
ATOM      9  C   UNL     1     -34.920  25.837   2.580  0.00  0.00    +0.122 C 
ATOM     10  C   UNL     1     -37.412  24.080   3.424  0.00  0.00    +0.026 C 
ATOM     11  C   UNL     1     -35.006  23.371   2.674  0.00  0.00    +0.026 C 
ATOM     12  C   UNL     1     -36.524  23.381   2.364  0.00  0.00    +0.165 C 
ATOM     13  C   UNL     1     -35.520  23.423   5.545  0.00  0.00    -0.095 C 
ATOM     14  C   UNL     1     -34.779  25.716   5.755  0.00  0.00    -0.095 C 
ENDBRANCH   3  12
ENDBRANCH   2   3
BRANCH   2  15
ATOM     15  C   UNL     1     -36.493  20.039   0.959  0.00  0.00    +0.227 C 
BRANCH  15  17
ATOM     16  S   UNL     1     -34.500  19.883  -0.943  0.00  0.00    -0.088 S 
ATOM     17  C   UNL     1     -35.011  19.783   0.661  0.00  0.00    +0.046 C 
ATOM     18  C   UNL     1     -34.052  19.482   1.555  0.00  0.00    +0.006 C 
ATOM     19  C   UNL     1     -32.799  19.315   0.897  0.00  0.00    +0.007 C 
ATOM     20  C   UNL     1     -32.900  19.505  -0.464  0.00  0.00    +0.035 C 
ENDBRANCH  15  17
BRANCH  15  22
ATOM     21  S   UNL     1     -37.100  17.586  -0.151  0.00  0.00    -0.088 S 
ATOM     22  C   UNL     1     -37.444  19.222   0.080  0.00  0.00    +0.046 C 
ATOM     23  C   UNL     1     -38.548  19.671  -0.545  0.00  0.00    +0.006 C 
ATOM     24  C   UNL     1     -39.171  18.614  -1.269  0.00  0.00    +0.007 C 
ATOM     25  C   UNL     1     -38.487  17.426  -1.142  0.00  0.00    +0.035 C 
ENDBRANCH  15  22
BRANCH  15  26
ATOM     26  O   UNL     1     -36.744  19.654   2.315  0.00  0.00    -0.369 OA
ATOM     27  H   UNL     1     -37.608  19.998   2.594  0.00  0.00    +0.212 HD
ENDBRANCH  15  26
ENDBRANCH   2  15
TORSDOF 6
ENDMDL
MODEL 6
REMARK VINA RESULT:      -5.5      4.430      8.131
REMARK  Name = 5487427
REMARK  6 active torsions:
REMARK  status: ('A' for Active; 'I' for Inactive)
REMARK    1  A    between atoms: C_2  and  O_3
REMARK    2  A    between atoms: C_2  and  C_15
REMARK    3  A    between atoms: O_3  and  C_12
REMARK    4  A    between atoms: C_15  and  C_17
REMARK    5  A    between atoms: C_15  and  C_22
REMARK    6  A    between atoms: C_15  and  O_26
REMARK                            x       y       z     vdW  Elec       q    Type
REMARK                         _______ _______ _______ _____ _____    ______ ____
ROOT
ATOM      1  O   UNL     1     -32.196  26.920   6.571  0.00  0.00    -0.247 OA
ATOM      2  C   UNL     1     -32.528  27.584   5.597  0.00  0.00    +0.350 C 
ENDROOT
BRANCH   2   3
ATOM      3  O   UNL     1     -33.678  27.387   4.875  0.00  0.00    -0.450 OA
BRANCH   3  12
ATOM      4  O   UNL     1     -35.974  22.432   4.932  0.00  0.00    -0.358 OA
ATOM      5  N   UNL     1     -36.354  24.739   3.360  0.00  0.00    +0.393 N 
ATOM      6  C   UNL     1     -36.532  24.905   4.901  0.00  0.00    -0.020 C 
ATOM      7  C   UNL     1     -34.913  24.137   3.384  0.00  0.00    -0.020 C 
ATOM      8  C   UNL     1     -35.863  23.708   5.562  0.00  0.00    +0.122 C 
ATOM      9  C   UNL     1     -34.832  23.219   4.595  0.00  0.00    +0.122 C 
ATOM     10  C   UNL     1     -35.736  26.162   5.324  0.00  0.00    +0.026 C 
ATOM     11  C   UNL     1     -33.931  25.307   3.632  0.00  0.00    +0.026 C 
ATOM     12  C   UNL     1     -34.237  26.079   4.939  0.00  0.00    +0.165 C 
ATOM     13  C   UNL     1     -36.536  26.009   2.524  0.00  0.00    -0.095 C 
ATOM     14  C   UNL     1     -37.378  23.754   2.765  0.00  0.00    -0.095 C 
ENDBRANCH   3  12
ENDBRANCH   2   3
BRANCH   2  15
ATOM     15  C   UNL     1     -31.739  28.769   5.038  0.00  0.00    +0.227 C 
BRANCH  15  17
ATOM     16  S   UNL     1     -32.025  29.989   2.579  0.00  0.00    -0.088 S 
ATOM     17  C   UNL     1     -31.647  28.636   3.514  0.00  0.00    +0.046 C 
ATOM     18  C   UNL     1     -31.291  27.538   2.823  0.00  0.00    +0.006 C 
ATOM     19  C   UNL     1     -31.324  27.804   1.424  0.00  0.00    +0.007 C 
ATOM     20  C   UNL     1     -31.707  29.099   1.152  0.00  0.00    +0.035 C 
ENDBRANCH  15  17
BRANCH  15  22
ATOM     21  S   UNL     1     -29.015  28.339   4.943  0.00  0.00    -0.088 S 
ATOM     22  C   UNL     1     -30.381  28.952   5.722  0.00  0.00    +0.046 C 
ATOM     23  C   UNL     1     -30.147  29.557   6.900  0.00  0.00    +0.006 C 
ATOM     24  C   UNL     1     -28.756  29.529   7.204  0.00  0.00    +0.007 C 
ATOM     25  C   UNL     1     -28.025  28.895   6.224  0.00  0.00    +0.035 C 
ENDBRANCH  15  22
BRANCH  15  26
ATOM     26  O   UNL     1     -32.515  29.936   5.334  0.00  0.00    -0.369 OA
ATOM     27  H   UNL     1     -33.330  29.675   5.792  0.00  0.00    +0.212 HD
ENDBRANCH  15  26
ENDBRANCH   2  15
TORSDOF 6
ENDMDL
MODEL 7
REMARK VINA RESULT:      -5.5      3.629      5.244
REMARK  Name = 5487427
REMARK  6 active torsions:
REMARK  status: ('A' for Active; 'I' for Inactive)
REMARK    1  A    between atoms: C_2  and  O_3
REMARK    2  A    between atoms: C_2  and  C_15
REMARK    3  A    between atoms: O_3  and  C_12
REMARK    4  A    between atoms: C_15  and  C_17
REMARK    5  A    between atoms: C_15  and  C_22
REMARK    6  A    between atoms: C_15  and  O_26
REMARK                            x       y       z     vdW  Elec       q    Type
REMARK                         _______ _______ _______ _____ _____    ______ ____
ROOT
ATOM      1  O   UNL     1     -33.150  25.529   3.894  0.00  0.00    -0.247 OA
ATOM      2  C   UNL     1     -34.141  26.210   4.131  0.00  0.00    +0.350 C 
ENDROOT
BRANCH   2   3
ATOM      3  O   UNL     1     -34.129  27.571   4.303  0.00  0.00    -0.450 OA
BRANCH   3  12
ATOM      4  O   UNL     1     -30.043  30.424   2.069  0.00  0.00    -0.358 OA
ATOM      5  N   UNL     1     -32.706  31.041   2.752  0.00  0.00    +0.393 N 
ATOM      6  C   UNL     1     -32.494  29.851   1.765  0.00  0.00    -0.020 C 
ATOM      7  C   UNL     1     -31.790  30.517   3.904  0.00  0.00    -0.020 C 
ATOM      8  C   UNL     1     -31.040  29.418   1.889  0.00  0.00    +0.122 C 
ATOM      9  C   UNL     1     -30.592  29.843   3.252  0.00  0.00    +0.122 C 
ATOM     10  C   UNL     1     -33.363  28.674   2.269  0.00  0.00    +0.026 C 
ATOM     11  C   UNL     1     -32.579  29.418   4.654  0.00  0.00    +0.026 C 
ATOM     12  C   UNL     1     -33.026  28.262   3.725  0.00  0.00    +0.165 C 
ATOM     13  C   UNL     1     -34.157  31.344   3.135  0.00  0.00    -0.095 C 
ATOM     14  C   UNL     1     -32.192  32.370   2.169  0.00  0.00    -0.095 C 
ENDBRANCH   3  12
ENDBRANCH   2   3
BRANCH   2  15
ATOM     15  C   UNL     1     -35.566  25.666   4.241  0.00  0.00    +0.227 C 
BRANCH  15  17
ATOM     16  S   UNL     1     -35.578  22.991   3.563  0.00  0.00    -0.088 S 
ATOM     17  C   UNL     1     -35.513  24.213   4.725  0.00  0.00    +0.046 C 
ATOM     18  C   UNL     1     -35.418  23.793   5.999  0.00  0.00    +0.006 C 
ATOM     19  C   UNL     1     -35.396  22.370   6.049  0.00  0.00    +0.007 C 
ATOM     20  C   UNL     1     -35.477  21.806   4.794  0.00  0.00    +0.035 C 
ENDBRANCH  15  17
BRANCH  15  22
ATOM     21  S   UNL     1     -38.055  25.766   3.052  0.00  0.00    -0.088 S 
ATOM     22  C   UNL     1     -36.372  25.854   2.952  0.00  0.00    +0.046 C 
ATOM     23  C   UNL     1     -35.881  26.084   1.721  0.00  0.00    +0.006 C 
ATOM     24  C   UNL     1     -36.942  26.202   0.778  0.00  0.00    +0.007 C 
ATOM     25  C   UNL     1     -38.177  26.049   1.368  0.00  0.00    +0.035 C 
ENDBRANCH  15  22
BRANCH  15  26
ATOM     26  O   UNL     1     -36.211  26.447   5.253  0.00  0.00    -0.369 OA
ATOM     27  H   UNL     1     -37.163  26.489   5.072  0.00  0.00    +0.212 HD
ENDBRANCH  15  26
ENDBRANCH   2  15
TORSDOF 6
ENDMDL
MODEL 8
REMARK VINA RESULT:      -5.5      3.714      5.530
REMARK  Name = 5487427
REMARK  6 active torsions:
REMARK  status: ('A' for Active; 'I' for Inactive)
REMARK    1  A    between atoms: C_2  and  O_3
REMARK    2  A    between atoms: C_2  and  C_15
REMARK    3  A    between atoms: O_3  and  C_12
REMARK    4  A    between atoms: C_15  and  C_17
REMARK    5  A    between atoms: C_15  and  C_22
REMARK    6  A    between atoms: C_15  and  O_26
REMARK                            x       y       z     vdW  Elec       q    Type
REMARK                         _______ _______ _______ _____ _____    ______ ____
ROOT
ATOM      1  O   UNL     1     -32.941  25.513   3.443  0.00  0.00    -0.247 OA
ATOM      2  C   UNL     1     -33.790  26.206   3.990  0.00  0.00    +0.350 C 
ENDROOT
BRANCH   2   3
ATOM      3  O   UNL     1     -33.559  27.451   4.519  0.00  0.00    -0.450 OA
BRANCH   3  12
ATOM      4  O   UNL     1     -28.388  28.937   5.458  0.00  0.00    -0.358 OA
ATOM      5  N   UNL     1     -30.743  30.356   4.843  0.00  0.00    +0.393 N 
ATOM      6  C   UNL     1     -30.305  29.252   3.829  0.00  0.00    -0.020 C 
ATOM      7  C   UNL     1     -30.780  29.457   6.120  0.00  0.00    -0.020 C 
ATOM      8  C   UNL     1     -29.318  28.346   4.552  0.00  0.00    +0.122 C 
ATOM      9  C   UNL     1     -29.621  28.477   6.011  0.00  0.00    +0.122 C 
ATOM     10  C   UNL     1     -31.555  28.399   3.507  0.00  0.00    +0.026 C 
ATOM     11  C   UNL     1     -32.085  28.629   6.061  0.00  0.00    +0.026 C 
ATOM     12  C   UNL     1     -32.196  27.775   4.773  0.00  0.00    +0.165 C 
ATOM     13  C   UNL     1     -32.040  31.097   4.506  0.00  0.00    -0.095 C 
ATOM     14  C   UNL     1     -29.696  31.478   4.959  0.00  0.00    -0.095 C 
ENDBRANCH   3  12
ENDBRANCH   2   3
BRANCH   2  15
ATOM     15  C   UNL     1     -35.262  25.822   4.145  0.00  0.00    +0.227 C 
BRANCH  15  17
ATOM     16  S   UNL     1     -35.544  23.184   3.385  0.00  0.00    -0.088 S 
ATOM     17  C   UNL     1     -35.354  24.356   4.583  0.00  0.00    +0.046 C 
ATOM     18  C   UNL     1     -35.300  23.889   5.843  0.00  0.00    +0.006 C 
ATOM     19  C   UNL     1     -35.422  22.470   5.849  0.00  0.00    +0.007 C 
ATOM     20  C   UNL     1     -35.560  21.957   4.578  0.00  0.00    +0.035 C 
ENDBRANCH  15  17
BRANCH  15  22
ATOM     21  S   UNL     1     -37.770  25.991   3.004  0.00  0.00    -0.088 S 
ATOM     22  C   UNL     1     -36.092  26.142   2.898  0.00  0.00    +0.046 C 
ATOM     23  C   UNL     1     -35.625  26.537   1.700  0.00  0.00    +0.006 C 
ATOM     24  C   UNL     1     -36.703  26.738   0.790  0.00  0.00    +0.007 C 
ATOM     25  C   UNL     1     -37.924  26.476   1.369  0.00  0.00    +0.035 C 
ENDBRANCH  15  22
BRANCH  15  26
ATOM     26  O   UNL     1     -35.774  26.634   5.206  0.00  0.00    -0.369 OA
ATOM     27  H   UNL     1     -35.175  26.587   5.967  0.00  0.00    +0.212 HD
ENDBRANCH  15  26
ENDBRANCH   2  15
TORSDOF 6
ENDMDL
MODEL 9
REMARK VINA RESULT:      -5.4      3.121      6.652
REMARK  Name = 5487427
REMARK  6 active torsions:
REMARK  status: ('A' for Active; 'I' for Inactive)
REMARK    1  A    between atoms: C_2  and  O_3
REMARK    2  A    between atoms: C_2  and  C_15
REMARK    3  A    between atoms: O_3  and  C_12
REMARK    4  A    between atoms: C_15  and  C_17
REMARK    5  A    between atoms: C_15  and  C_22
REMARK    6  A    between atoms: C_15  and  O_26
REMARK                            x       y       z     vdW  Elec       q    Type
REMARK                         _______ _______ _______ _____ _____    ______ ____
ROOT
ATOM      1  O   UNL     1     -35.281  20.445   3.216  0.00  0.00    -0.247 OA
ATOM      2  C   UNL     1     -35.283  21.235   2.280  0.00  0.00    +0.350 C 
ENDROOT
BRANCH   2   3
ATOM      3  O   UNL     1     -34.724  20.989   1.051  0.00  0.00    -0.450 OA
BRANCH   3  12
ATOM      4  O   UNL     1     -31.657  16.513   0.429  0.00  0.00    -0.358 OA
ATOM      5  N   UNL     1     -32.670  18.445  -1.354  0.00  0.00    +0.393 N 
ATOM      6  C   UNL     1     -33.715  17.681  -0.481  0.00  0.00    -0.020 C 
ATOM      7  C   UNL     1     -31.774  18.970  -0.186  0.00  0.00    -0.020 C 
ATOM      8  C   UNL     1     -32.956  17.050   0.677  0.00  0.00    +0.122 C 
ATOM      9  C   UNL     1     -31.720  17.871   0.864  0.00  0.00    +0.122 C 
ATOM     10  C   UNL     1     -34.671  18.737   0.122  0.00  0.00    +0.026 C 
ATOM     11  C   UNL     1     -32.507  20.174   0.450  0.00  0.00    +0.026 C 
ATOM     12  C   UNL     1     -33.927  19.813   0.954  0.00  0.00    +0.165 C 
ATOM     13  C   UNL     1     -33.236  19.512  -2.296  0.00  0.00    -0.095 C 
ATOM     14  C   UNL     1     -31.899  17.497  -2.290  0.00  0.00    -0.095 C 
ENDBRANCH   3  12
ENDBRANCH   2   3
BRANCH   2  15
ATOM     15  C   UNL     1     -35.939  22.616   2.305  0.00  0.00    +0.227 C 
BRANCH  15  17
ATOM     16  S   UNL     1     -34.470  24.733   3.293  0.00  0.00    -0.088 S 
ATOM     17  C   UNL     1     -35.448  23.381   3.540  0.00  0.00    +0.046 C 
ATOM     18  C   UNL     1     -35.716  23.090   4.825  0.00  0.00    +0.006 C 
ATOM     19  C   UNL     1     -35.082  24.030   5.687  0.00  0.00    +0.007 C 
ATOM     20  C   UNL     1     -34.371  24.978   4.984  0.00  0.00    +0.035 C 
ENDBRANCH  15  17
BRANCH  15  22
ATOM     21  S   UNL     1     -38.338  23.974   2.421  0.00  0.00    -0.088 S 
ATOM     22  C   UNL     1     -37.465  22.549   2.192  0.00  0.00    +0.046 C 
ATOM     23  C   UNL     1     -38.205  21.458   1.925  0.00  0.00    +0.006 C 
ATOM     24  C   UNL     1     -39.589  21.792   1.902  0.00  0.00    +0.007 C 
ATOM     25  C   UNL     1     -39.803  23.128   2.156  0.00  0.00    +0.035 C 
ENDBRANCH  15  22
BRANCH  15  26
ATOM     26  O   UNL     1     -35.464  23.302   1.142  0.00  0.00    -0.369 OA
ATOM     27  H   UNL     1     -36.007  24.090   0.987  0.00  0.00    +0.212 HD
ENDBRANCH  15  26
ENDBRANCH   2  15
TORSDOF 6
ENDMDL
