MODEL 1
REMARK VINA RESULT:      -5.9      0.000      0.000
REMARK  Name = 5390110
REMARK  8 active torsions:
REMARK  status: ('A' for Active; 'I' for Inactive)
REMARK    1  A    between atoms: C_1  and  C_12
REMARK    2  A    between atoms: C_2  and  C_16
REMARK    3  A    between atoms: C_3  and  O_7
REMARK    4  A    between atoms: C_4  and  O_9
REMARK    5  A    between atoms: C_12  and  O_13
REMARK    6  A    between atoms: N_15  and  C_16
REMARK    7  A    between atoms: N_15  and  N_18
REMARK    8  A    between atoms: C_19  and  C_22
REMARK                            x       y       z     vdW  Elec       q    Type
REMARK                         _______ _______ _______ _____ _____    ______ ____
ROOT
ATOM      1  C   UNL     1     -35.586  23.221   3.148  0.00  0.00    +0.110 C 
ATOM      2  C   UNL     1     -35.026  23.901   2.067  0.00  0.00    +0.006 C 
ATOM      3  C   UNL     1     -35.359  23.670   4.448  0.00  0.00    +0.178 C 
ATOM      4  C   UNL     1     -34.570  24.800   4.668  0.00  0.00    +0.173 C 
ATOM      5  C   UNL     1     -34.237  25.030   2.286  0.00  0.00    +0.001 C 
ATOM      6  C   UNL     1     -34.009  25.480   3.587  0.00  0.00    +0.040 C 
ENDROOT
BRANCH   3   7
ATOM      7  O   UNL     1     -35.901  23.012   5.513  0.00  0.00    -0.468 OA
ATOM      8  C   UNL     1     -35.142  21.938   6.064  0.00  0.00    +0.253 C 
ENDBRANCH   3   7
BRANCH   4   9
ATOM      9  O   UNL     1     -34.340  25.251   5.933  0.00  0.00    -0.468 OA
ATOM     10  C   UNL     1     -33.623  26.476   6.064  0.00  0.00    +0.253 C 
ENDBRANCH   4   9
BRANCH   1  12
ATOM     11  O   UNL     1     -35.990  20.927   2.602  0.00  0.00    -0.245 OA
ATOM     12  C   UNL     1     -36.413  22.038   2.928  0.00  0.00    +0.341 C 
BRANCH  12  13
ATOM     13  O   UNL     1     -37.734  22.288   3.123  0.00  0.00    -0.477 OA
ATOM     14  H   UNL     1     -38.088  22.287   3.991  0.00  0.00    +0.295 HD
ENDBRANCH  12  13
ENDBRANCH   1  12
BRANCH   2  15
ATOM     15  C   UNL     1     -35.241  23.458   0.696  0.00  0.00    +0.138 C 
BRANCH  15  16
ATOM     16  N   UNL     1     -34.285  22.979  -0.045  0.00  0.00    -0.126 NA
BRANCH  16  18
ATOM     17  O   UNL     1     -31.847  22.012  -0.828  0.00  0.00    -0.269 OA
ATOM     18  N   UNL     1     -33.833  21.761   0.337  0.00  0.00    -0.228 N 
ATOM     19  C   UNL     1     -32.589  21.351  -0.105  0.00  0.00    +0.260 C 
ATOM     20  H   UNL     1     -34.378  21.180   0.915  0.00  0.00    +0.171 HD
BRANCH  19  22
ATOM     21  N   UNL     1     -31.368  17.477   1.144  0.00  0.00    -0.242 NA
ATOM     22  C   UNL     1     -32.162  19.996   0.331  0.00  0.00    +0.058 C 
ATOM     23  C   UNL     1     -30.893  19.566   0.024  0.00  0.00    +0.025 C 
ATOM     24  C   UNL     1     -33.048  19.212   1.031  0.00  0.00    +0.025 C 
ATOM     25  C   UNL     1     -30.544  18.297   0.453  0.00  0.00    +0.099 C 
ATOM     26  C   UNL     1     -32.603  17.957   1.415  0.00  0.00    +0.099 C 
ENDBRANCH  19  22
ENDBRANCH  16  18
ENDBRANCH  15  16
ENDBRANCH   2  15
TORSDOF 8
ENDMDL
MODEL 2
REMARK VINA RESULT:      -5.8      4.061      7.872
REMARK  Name = 5390110
REMARK  8 active torsions:
REMARK  status: ('A' for Active; 'I' for Inactive)
REMARK    1  A    between atoms: C_1  and  C_12
REMARK    2  A    between atoms: C_2  and  C_16
REMARK    3  A    between atoms: C_3  and  O_7
REMARK    4  A    between atoms: C_4  and  O_9
REMARK    5  A    between atoms: C_12  and  O_13
REMARK    6  A    between atoms: N_15  and  C_16
REMARK    7  A    between atoms: N_15  and  N_18
REMARK    8  A    between atoms: C_19  and  C_22
REMARK                            x       y       z     vdW  Elec       q    Type
REMARK                         _______ _______ _______ _____ _____    ______ ____
ROOT
ATOM      1  C   UNL     1     -35.964  24.735   3.995  0.00  0.00    +0.110 C 
ATOM      2  C   UNL     1     -35.244  24.575   5.178  0.00  0.00    +0.006 C 
ATOM      3  C   UNL     1     -36.353  23.617   3.258  0.00  0.00    +0.178 C 
ATOM      4  C   UNL     1     -36.022  22.338   3.705  0.00  0.00    +0.173 C 
ATOM      5  C   UNL     1     -34.912  23.296   5.626  0.00  0.00    +0.001 C 
ATOM      6  C   UNL     1     -35.301  22.178   4.889  0.00  0.00    +0.040 C 
ENDROOT
BRANCH   3   7
ATOM      7  O   UNL     1     -37.057  23.762   2.099  0.00  0.00    -0.468 OA
ATOM      8  C   UNL     1     -36.303  23.855   0.893  0.00  0.00    +0.253 C 
ENDBRANCH   3   7
BRANCH   4   9
ATOM      9  O   UNL     1     -36.395  21.236   2.996  0.00  0.00    -0.468 OA
ATOM     10  C   UNL     1     -35.360  20.502   2.347  0.00  0.00    +0.253 C 
ENDBRANCH   4   9
BRANCH   1  12
ATOM     11  O   UNL     1     -35.526  26.882   3.035  0.00  0.00    -0.245 OA
ATOM     12  C   UNL     1     -36.316  26.070   3.520  0.00  0.00    +0.341 C 
BRANCH  12  13
ATOM     13  O   UNL     1     -37.640  26.338   3.668  0.00  0.00    -0.477 OA
ATOM     14  H   UNL     1     -38.001  26.455   4.525  0.00  0.00    +0.295 HD
ENDBRANCH  12  13
ENDBRANCH   1  12
BRANCH   2  15
ATOM     15  C   UNL     1     -34.820  25.722   5.972  0.00  0.00    +0.138 C 
BRANCH  15  16
ATOM     16  N   UNL     1     -33.590  26.144   5.992  0.00  0.00    -0.126 NA
BRANCH  16  18
ATOM     17  O   UNL     1     -31.285  27.584   6.312  0.00  0.00    -0.269 OA
ATOM     18  N   UNL     1     -33.397  27.343   5.392  0.00  0.00    -0.228 N 
ATOM     19  C   UNL     1     -32.202  28.003   5.608  0.00  0.00    +0.260 C 
ATOM     20  H   UNL     1     -34.091  27.735   4.816  0.00  0.00    +0.171 HD
BRANCH  19  22
ATOM     21  N   UNL     1     -31.801  31.776   3.695  0.00  0.00    -0.242 NA
ATOM     22  C   UNL     1     -32.062  29.323   4.940  0.00  0.00    +0.058 C 
ATOM     23  C   UNL     1     -31.294  30.294   5.536  0.00  0.00    +0.025 C 
ATOM     24  C   UNL     1     -32.704  29.534   3.743  0.00  0.00    +0.025 C 
ATOM     25  C   UNL     1     -31.195  31.506   4.874  0.00  0.00    +0.099 C 
ATOM     26  C   UNL     1     -32.542  30.781   3.159  0.00  0.00    +0.099 C 
ENDBRANCH  19  22
ENDBRANCH  16  18
ENDBRANCH  15  16
ENDBRANCH   2  15
TORSDOF 8
ENDMDL
MODEL 3
REMARK VINA RESULT:      -5.8      2.795      4.663
REMARK  Name = 5390110
REMARK  8 active torsions:
REMARK  status: ('A' for Active; 'I' for Inactive)
REMARK    1  A    between atoms: C_1  and  C_12
REMARK    2  A    between atoms: C_2  and  C_16
REMARK    3  A    between atoms: C_3  and  O_7
REMARK    4  A    between atoms: C_4  and  O_9
REMARK    5  A    between atoms: C_12  and  O_13
REMARK    6  A    between atoms: N_15  and  C_16
REMARK    7  A    between atoms: N_15  and  N_18
REMARK    8  A    between atoms: C_19  and  C_22
REMARK                            x       y       z     vdW  Elec       q    Type
REMARK                         _______ _______ _______ _____ _____    ______ ____
ROOT
ATOM      1  C   UNL     1     -35.364  26.659   3.421  0.00  0.00    +0.110 C 
ATOM      2  C   UNL     1     -36.037  25.907   4.383  0.00  0.00    +0.006 C 
ATOM      3  C   UNL     1     -34.086  27.150   3.687  0.00  0.00    +0.178 C 
ATOM      4  C   UNL     1     -33.482  26.889   4.917  0.00  0.00    +0.173 C 
ATOM      5  C   UNL     1     -35.434  25.647   5.613  0.00  0.00    +0.001 C 
ATOM      6  C   UNL     1     -34.156  26.138   5.880  0.00  0.00    +0.040 C 
ENDROOT
BRANCH   3   7
ATOM      7  O   UNL     1     -33.419  27.886   2.753  0.00  0.00    -0.468 OA
ATOM      8  C   UNL     1     -33.378  29.297   2.953  0.00  0.00    +0.253 C 
ENDBRANCH   3   7
BRANCH   4   9
ATOM      9  O   UNL     1     -32.234  27.361   5.192  0.00  0.00    -0.468 OA
ATOM     10  C   UNL     1     -32.062  28.064   6.420  0.00  0.00    +0.253 C 
ENDBRANCH   4   9
BRANCH   1  12
ATOM     11  O   UNL     1     -36.037  26.152   1.182  0.00  0.00    -0.245 OA
ATOM     12  C   UNL     1     -35.989  26.937   2.131  0.00  0.00    +0.341 C 
BRANCH  12  13
ATOM     13  O   UNL     1     -36.528  28.183   2.076  0.00  0.00    -0.477 OA
ATOM     14  H   UNL     1     -36.010  28.906   1.783  0.00  0.00    +0.295 HD
ENDBRANCH  12  13
ENDBRANCH   1  12
BRANCH   2  15
ATOM     15  C   UNL     1     -37.375  25.381   4.139  0.00  0.00    +0.138 C 
BRANCH  15  16
ATOM     16  N   UNL     1     -37.621  24.107   4.049  0.00  0.00    -0.126 NA
BRANCH  16  18
ATOM     17  O   UNL     1     -35.812  22.140   4.638  0.00  0.00    -0.269 OA
ATOM     18  N   UNL     1     -36.914  23.464   3.090  0.00  0.00    -0.228 N 
ATOM     19  C   UNL     1     -36.021  22.482   3.477  0.00  0.00    +0.260 C 
ATOM     20  H   UNL     1     -37.032  23.689   2.139  0.00  0.00    +0.171 HD
BRANCH  19  22
ATOM     21  N   UNL     1     -33.848  20.618   0.336  0.00  0.00    -0.242 NA
ATOM     22  C   UNL     1     -35.261  21.830   2.379  0.00  0.00    +0.058 C 
ATOM     23  C   UNL     1     -35.107  20.464   2.394  0.00  0.00    +0.025 C 
ATOM     24  C   UNL     1     -34.732  22.612   1.379  0.00  0.00    +0.025 C 
ATOM     25  C   UNL     1     -34.391  19.905   1.348  0.00  0.00    +0.099 C 
ATOM     26  C   UNL     1     -34.033  21.957   0.378  0.00  0.00    +0.099 C 
ENDBRANCH  19  22
ENDBRANCH  16  18
ENDBRANCH  15  16
ENDBRANCH   2  15
TORSDOF 8
ENDMDL
MODEL 4
REMARK VINA RESULT:      -5.8      5.210      8.720
REMARK  Name = 5390110
REMARK  8 active torsions:
REMARK  status: ('A' for Active; 'I' for Inactive)
REMARK    1  A    between atoms: C_1  and  C_12
REMARK    2  A    between atoms: C_2  and  C_16
REMARK    3  A    between atoms: C_3  and  O_7
REMARK    4  A    between atoms: C_4  and  O_9
REMARK    5  A    between atoms: C_12  and  O_13
REMARK    6  A    between atoms: N_15  and  C_16
REMARK    7  A    between atoms: N_15  and  N_18
REMARK    8  A    between atoms: C_19  and  C_22
REMARK                            x       y       z     vdW  Elec       q    Type
REMARK                         _______ _______ _______ _____ _____    ______ ____
ROOT
ATOM      1  C   UNL     1     -36.087  25.538   3.444  0.00  0.00    +0.110 C 
ATOM      2  C   UNL     1     -34.923  26.203   3.828  0.00  0.00    +0.006 C 
ATOM      3  C   UNL     1     -36.492  24.392   4.127  0.00  0.00    +0.178 C 
ATOM      4  C   UNL     1     -35.734  23.910   5.194  0.00  0.00    +0.173 C 
ATOM      5  C   UNL     1     -34.164  25.723   4.894  0.00  0.00    +0.001 C 
ATOM      6  C   UNL     1     -34.569  24.576   5.577  0.00  0.00    +0.040 C 
ENDROOT
BRANCH   3   7
ATOM      7  O   UNL     1     -37.629  23.733   3.760  0.00  0.00    -0.468 OA
ATOM      8  C   UNL     1     -37.487  22.683   2.806  0.00  0.00    +0.253 C 
ENDBRANCH   3   7
BRANCH   4   9
ATOM      9  O   UNL     1     -36.117  22.792   5.870  0.00  0.00    -0.468 OA
ATOM     10  C   UNL     1     -35.199  21.702   5.894  0.00  0.00    +0.253 C 
ENDBRANCH   4   9
BRANCH   1  12
ATOM     11  O   UNL     1     -36.630  25.862   1.137  0.00  0.00    -0.245 OA
ATOM     12  C   UNL     1     -36.888  26.035   2.329  0.00  0.00    +0.341 C 
BRANCH  12  13
ATOM     13  O   UNL     1     -37.980  26.727   2.747  0.00  0.00    -0.477 OA
ATOM     14  H   UNL     1     -37.911  27.321   3.469  0.00  0.00    +0.295 HD
ENDBRANCH  12  13
ENDBRANCH   1  12
BRANCH   2  15
ATOM     15  C   UNL     1     -34.469  27.403   3.135  0.00  0.00    +0.138 C 
BRANCH  15  16
ATOM     16  N   UNL     1     -34.461  28.576   3.697  0.00  0.00    -0.126 NA
BRANCH  16  18
ATOM     17  O   UNL     1     -33.477  31.117   3.436  0.00  0.00    -0.269 OA
ATOM     18  N   UNL     1     -35.114  29.538   3.002  0.00  0.00    -0.228 N 
ATOM     19  C   UNL     1     -34.545  30.794   2.921  0.00  0.00    +0.260 C 
ATOM     20  H   UNL     1     -35.975  29.346   2.565  0.00  0.00    +0.171 HD
BRANCH  19  22
ATOM     21  N   UNL     1     -36.768  33.697   0.755  0.00  0.00    -0.242 NA
ATOM     22  C   UNL     1     -35.322  31.809   2.163  0.00  0.00    +0.058 C 
ATOM     23  C   UNL     1     -36.687  31.671   2.071  0.00  0.00    +0.025 C 
ATOM     24  C   UNL     1     -34.655  32.858   1.577  0.00  0.00    +0.025 C 
ATOM     25  C   UNL     1     -37.366  32.642   1.354  0.00  0.00    +0.099 C 
ATOM     26  C   UNL     1     -35.425  33.777   0.881  0.00  0.00    +0.099 C 
ENDBRANCH  19  22
ENDBRANCH  16  18
ENDBRANCH  15  16
ENDBRANCH   2  15
TORSDOF 8
ENDMDL
MODEL 5
REMARK VINA RESULT:      -5.7      3.935      6.812
REMARK  Name = 5390110
REMARK  8 active torsions:
REMARK  status: ('A' for Active; 'I' for Inactive)
REMARK    1  A    between atoms: C_1  and  C_12
REMARK    2  A    between atoms: C_2  and  C_16
REMARK    3  A    between atoms: C_3  and  O_7
REMARK    4  A    between atoms: C_4  and  O_9
REMARK    5  A    between atoms: C_12  and  O_13
REMARK    6  A    between atoms: N_15  and  C_16
REMARK    7  A    between atoms: N_15  and  N_18
REMARK    8  A    between atoms: C_19  and  C_22
REMARK                            x       y       z     vdW  Elec       q    Type
REMARK                         _______ _______ _______ _____ _____    ______ ____
ROOT
ATOM      1  C   UNL     1     -36.765  24.003   3.847  0.00  0.00    +0.110 C 
ATOM      2  C   UNL     1     -35.992  24.189   4.993  0.00  0.00    +0.006 C 
ATOM      3  C   UNL     1     -36.731  22.782   3.173  0.00  0.00    +0.178 C 
ATOM      4  C   UNL     1     -35.923  21.748   3.645  0.00  0.00    +0.173 C 
ATOM      5  C   UNL     1     -35.184  23.156   5.465  0.00  0.00    +0.001 C 
ATOM      6  C   UNL     1     -35.149  21.935   4.791  0.00  0.00    +0.040 C 
ENDROOT
BRANCH   3   7
ATOM      7  O   UNL     1     -37.482  22.589   2.052  0.00  0.00    -0.468 OA
ATOM      8  C   UNL     1     -38.702  21.869   2.207  0.00  0.00    +0.253 C 
ENDBRANCH   3   7
BRANCH   4   9
ATOM      9  O   UNL     1     -35.879  20.550   2.998  0.00  0.00    -0.468 OA
ATOM     10  C   UNL     1     -34.807  20.348   2.079  0.00  0.00    +0.253 C 
ENDBRANCH   4   9
BRANCH   1  12
ATOM     11  O   UNL     1     -37.241  25.993   2.608  0.00  0.00    -0.245 OA
ATOM     12  C   UNL     1     -37.614  25.080   3.346  0.00  0.00    +0.341 C 
BRANCH  12  13
ATOM     13  O   UNL     1     -38.896  24.973   3.786  0.00  0.00    -0.477 OA
ATOM     14  H   UNL     1     -39.157  25.402   4.577  0.00  0.00    +0.295 HD
ENDBRANCH  12  13
ENDBRANCH   1  12
BRANCH   2  15
ATOM     15  C   UNL     1     -36.003  25.452   5.720  0.00  0.00    +0.138 C 
BRANCH  15  16
ATOM     16  N   UNL     1     -35.019  26.303   5.663  0.00  0.00    -0.126 NA
BRANCH  16  18
ATOM     17  O   UNL     1     -33.010  26.290   3.805  0.00  0.00    -0.269 OA
ATOM     18  N   UNL     1     -35.035  27.109   4.575  0.00  0.00    -0.228 N 
ATOM     19  C   UNL     1     -33.979  27.037   3.687  0.00  0.00    +0.260 C 
ATOM     20  H   UNL     1     -35.781  27.731   4.420  0.00  0.00    +0.171 HD
BRANCH  19  22
ATOM     21  N   UNL     1     -34.172  29.684   0.368  0.00  0.00    -0.242 NA
ATOM     22  C   UNL     1     -34.046  27.963   2.526  0.00  0.00    +0.058 C 
ATOM     23  C   UNL     1     -33.097  27.862   1.537  0.00  0.00    +0.025 C 
ATOM     24  C   UNL     1     -35.055  28.894   2.475  0.00  0.00    +0.025 C 
ATOM     25  C   UNL     1     -33.204  28.747   0.477  0.00  0.00    +0.099 C 
ATOM     26  C   UNL     1     -35.075  29.734   1.373  0.00  0.00    +0.099 C 
ENDBRANCH  19  22
ENDBRANCH  16  18
ENDBRANCH  15  16
ENDBRANCH   2  15
TORSDOF 8
ENDMDL
MODEL 6
REMARK VINA RESULT:      -5.7      2.378      7.188
REMARK  Name = 5390110
REMARK  8 active torsions:
REMARK  status: ('A' for Active; 'I' for Inactive)
REMARK    1  A    between atoms: C_1  and  C_12
REMARK    2  A    between atoms: C_2  and  C_16
REMARK    3  A    between atoms: C_3  and  O_7
REMARK    4  A    between atoms: C_4  and  O_9
REMARK    5  A    between atoms: C_12  and  O_13
REMARK    6  A    between atoms: N_15  and  C_16
REMARK    7  A    between atoms: N_15  and  N_18
REMARK    8  A    between atoms: C_19  and  C_22
REMARK                            x       y       z     vdW  Elec       q    Type
REMARK                         _______ _______ _______ _____ _____    ______ ____
ROOT
ATOM      1  C   UNL     1     -33.263  20.809   0.385  0.00  0.00    +0.110 C 
ATOM      2  C   UNL     1     -33.930  19.869   1.170  0.00  0.00    +0.006 C 
ATOM      3  C   UNL     1     -31.966  20.551  -0.059  0.00  0.00    +0.178 C 
ATOM      4  C   UNL     1     -31.337  19.354   0.281  0.00  0.00    +0.173 C 
ATOM      5  C   UNL     1     -33.302  18.672   1.512  0.00  0.00    +0.001 C 
ATOM      6  C   UNL     1     -32.005  18.414   1.067  0.00  0.00    +0.040 C 
ENDROOT
BRANCH   3   7
ATOM      7  O   UNL     1     -31.304  21.463  -0.827  0.00  0.00    -0.468 OA
ATOM      8  C   UNL     1     -31.251  21.211  -2.229  0.00  0.00    +0.253 C 
ENDBRANCH   3   7
BRANCH   4   9
ATOM      9  O   UNL     1     -30.071  19.088  -0.146  0.00  0.00    -0.468 OA
ATOM     10  C   UNL     1     -29.359  18.060   0.538  0.00  0.00    +0.253 C 
ENDBRANCH   4   9
BRANCH   1  12
ATOM     11  O   UNL     1     -34.011  23.050   0.756  0.00  0.00    -0.245 OA
ATOM     12  C   UNL     1     -33.913  22.065   0.023  0.00  0.00    +0.341 C 
BRANCH  12  13
ATOM     13  O   UNL     1     -34.415  22.040  -1.240  0.00  0.00    -0.477 OA
ATOM     14  H   UNL     1     -34.661  21.224  -1.631  0.00  0.00    +0.295 HD
ENDBRANCH  12  13
ENDBRANCH   1  12
BRANCH   2  15
ATOM     15  C   UNL     1     -35.285  20.107   1.654  0.00  0.00    +0.138 C 
BRANCH  15  16
ATOM     16  N   UNL     1     -35.546  20.399   2.894  0.00  0.00    -0.126 NA
BRANCH  16  18
ATOM     17  O   UNL     1     -35.125  21.425   5.396  0.00  0.00    -0.269 OA
ATOM     18  N   UNL     1     -35.624  21.726   3.155  0.00  0.00    -0.228 N 
ATOM     19  C   UNL     1     -35.397  22.157   4.448  0.00  0.00    +0.260 C 
ATOM     20  H   UNL     1     -35.839  22.368   2.441  0.00  0.00    +0.171 HD
BRANCH  19  22
ATOM     21  N   UNL     1     -35.749  26.344   5.090  0.00  0.00    -0.242 NA
ATOM     22  C   UNL     1     -35.520  23.621   4.672  0.00  0.00    +0.058 C 
ATOM     23  C   UNL     1     -36.587  24.292   4.124  0.00  0.00    +0.025 C 
ATOM     24  C   UNL     1     -34.563  24.263   5.422  0.00  0.00    +0.025 C 
ATOM     25  C   UNL     1     -36.656  25.655   4.361  0.00  0.00    +0.099 C 
ATOM     26  C   UNL     1     -34.723  25.628   5.602  0.00  0.00    +0.099 C 
ENDBRANCH  19  22
ENDBRANCH  16  18
ENDBRANCH  15  16
ENDBRANCH   2  15
TORSDOF 8
ENDMDL
MODEL 7
REMARK VINA RESULT:      -5.6      3.737      7.029
REMARK  Name = 5390110
REMARK  8 active torsions:
REMARK  status: ('A' for Active; 'I' for Inactive)
REMARK    1  A    between atoms: C_1  and  C_12
REMARK    2  A    between atoms: C_2  and  C_16
REMARK    3  A    between atoms: C_3  and  O_7
REMARK    4  A    between atoms: C_4  and  O_9
REMARK    5  A    between atoms: C_12  and  O_13
REMARK    6  A    between atoms: N_15  and  C_16
REMARK    7  A    between atoms: N_15  and  N_18
REMARK    8  A    between atoms: C_19  and  C_22
REMARK                            x       y       z     vdW  Elec       q    Type
REMARK                         _______ _______ _______ _____ _____    ______ ____
ROOT
ATOM      1  C   UNL     1     -35.747  24.784   3.433  0.00  0.00    +0.110 C 
ATOM      2  C   UNL     1     -35.279  25.146   2.170  0.00  0.00    +0.006 C 
ATOM      3  C   UNL     1     -35.823  23.439   3.790  0.00  0.00    +0.178 C 
ATOM      4  C   UNL     1     -35.431  22.453   2.884  0.00  0.00    +0.173 C 
ATOM      5  C   UNL     1     -34.887  24.162   1.263  0.00  0.00    +0.001 C 
ATOM      6  C   UNL     1     -34.963  22.815   1.620  0.00  0.00    +0.040 C 
ENDROOT
BRANCH   3   7
ATOM      7  O   UNL     1     -36.279  23.074   5.023  0.00  0.00    -0.468 OA
ATOM      8  C   UNL     1     -35.299  22.766   6.010  0.00  0.00    +0.253 C 
ENDBRANCH   3   7
BRANCH   4   9
ATOM      9  O   UNL     1     -35.499  21.135   3.218  0.00  0.00    -0.468 OA
ATOM     10  C   UNL     1     -36.070  20.251   2.257  0.00  0.00    +0.253 C 
ENDBRANCH   4   9
BRANCH   1  12
ATOM     11  O   UNL     1     -35.396  26.454   5.110  0.00  0.00    -0.245 OA
ATOM     12  C   UNL     1     -36.159  25.809   4.389  0.00  0.00    +0.341 C 
BRANCH  12  13
ATOM     13  O   UNL     1     -37.506  25.987   4.405  0.00  0.00    -0.477 OA
ATOM     14  H   UNL     1     -37.884  26.651   4.946  0.00  0.00    +0.295 HD
ENDBRANCH  12  13
ENDBRANCH   1  12
BRANCH   2  15
ATOM     15  C   UNL     1     -35.188  26.543   1.764  0.00  0.00    +0.138 C 
BRANCH  15  16
ATOM     16  N   UNL     1     -34.051  27.154   1.602  0.00  0.00    -0.126 NA
BRANCH  16  18
ATOM     17  O   UNL     1     -31.984  26.559   3.294  0.00  0.00    -0.269 OA
ATOM     18  N   UNL     1     -33.699  27.966   2.627  0.00  0.00    -0.228 N 
ATOM     19  C   UNL     1     -32.641  27.588   3.433  0.00  0.00    +0.260 C 
ATOM     20  H   UNL     1     -34.184  28.806   2.794  0.00  0.00    +0.171 HD
BRANCH  19  22
ATOM     21  N   UNL     1     -31.722  30.228   6.633  0.00  0.00    -0.242 NA
ATOM     22  C   UNL     1     -32.319  28.511   4.552  0.00  0.00    +0.058 C 
ATOM     23  C   UNL     1     -32.232  29.860   4.299  0.00  0.00    +0.025 C 
ATOM     24  C   UNL     1     -32.118  27.991   5.808  0.00  0.00    +0.025 C 
ATOM     25  C   UNL     1     -31.930  30.678   5.375  0.00  0.00    +0.099 C 
ATOM     26  C   UNL     1     -31.821  28.892   6.817  0.00  0.00    +0.099 C 
ENDBRANCH  19  22
ENDBRANCH  16  18
ENDBRANCH  15  16
ENDBRANCH   2  15
TORSDOF 8
ENDMDL
MODEL 8
REMARK VINA RESULT:      -5.6      3.532      5.956
REMARK  Name = 5390110
REMARK  8 active torsions:
REMARK  status: ('A' for Active; 'I' for Inactive)
REMARK    1  A    between atoms: C_1  and  C_12
REMARK    2  A    between atoms: C_2  and  C_16
REMARK    3  A    between atoms: C_3  and  O_7
REMARK    4  A    between atoms: C_4  and  O_9
REMARK    5  A    between atoms: C_12  and  O_13
REMARK    6  A    between atoms: N_15  and  C_16
REMARK    7  A    between atoms: N_15  and  N_18
REMARK    8  A    between atoms: C_19  and  C_22
REMARK                            x       y       z     vdW  Elec       q    Type
REMARK                         _______ _______ _______ _____ _____    ______ ____
ROOT
ATOM      1  C   UNL     1     -36.557  24.005   3.962  0.00  0.00    +0.110 C 
ATOM      2  C   UNL     1     -35.804  24.137   5.128  0.00  0.00    +0.006 C 
ATOM      3  C   UNL     1     -36.586  22.787   3.285  0.00  0.00    +0.178 C 
ATOM      4  C   UNL     1     -35.862  21.699   3.774  0.00  0.00    +0.173 C 
ATOM      5  C   UNL     1     -35.080  23.051   5.618  0.00  0.00    +0.001 C 
ATOM      6  C   UNL     1     -35.108  21.832   4.940  0.00  0.00    +0.040 C 
ENDROOT
BRANCH   3   7
ATOM      7  O   UNL     1     -37.318  22.647   2.142  0.00  0.00    -0.468 OA
ATOM      8  C   UNL     1     -38.587  22.008   2.263  0.00  0.00    +0.253 C 
ENDBRANCH   3   7
BRANCH   4   9
ATOM      9  O   UNL     1     -35.881  20.503   3.123  0.00  0.00    -0.468 OA
ATOM     10  C   UNL     1     -34.853  20.271   2.163  0.00  0.00    +0.253 C 
ENDBRANCH   4   9
BRANCH   1  12
ATOM     11  O   UNL     1     -36.859  26.041   2.742  0.00  0.00    -0.245 OA
ATOM     12  C   UNL     1     -37.318  25.138   3.443  0.00  0.00    +0.341 C 
BRANCH  12  13
ATOM     13  O   UNL     1     -38.624  25.096   3.818  0.00  0.00    -0.477 OA
ATOM     14  H   UNL     1     -39.007  24.287   4.094  0.00  0.00    +0.295 HD
ENDBRANCH  12  13
ENDBRANCH   1  12
BRANCH   2  15
ATOM     15  C   UNL     1     -35.750  25.397   5.860  0.00  0.00    +0.138 C 
BRANCH  15  16
ATOM     16  N   UNL     1     -34.837  26.297   5.638  0.00  0.00    -0.126 NA
BRANCH  16  18
ATOM     17  O   UNL     1     -33.312  28.235   4.452  0.00  0.00    -0.269 OA
ATOM     18  N   UNL     1     -34.039  26.040   4.575  0.00  0.00    -0.228 N 
ATOM     19  C   UNL     1     -33.303  27.079   4.038  0.00  0.00    +0.260 C 
ATOM     20  H   UNL     1     -33.985  25.135   4.193  0.00  0.00    +0.171 HD
BRANCH  19  22
ATOM     21  N   UNL     1     -30.906  26.098   0.668  0.00  0.00    -0.242 NA
ATOM     22  C   UNL     1     -32.465  26.735   2.859  0.00  0.00    +0.058 C 
ATOM     23  C   UNL     1     -32.922  25.794   1.968  0.00  0.00    +0.025 C 
ATOM     24  C   UNL     1     -31.256  27.369   2.694  0.00  0.00    +0.025 C 
ATOM     25  C   UNL     1     -32.104  25.510   0.887  0.00  0.00    +0.099 C 
ATOM     26  C   UNL     1     -30.512  27.014   1.580  0.00  0.00    +0.099 C 
ENDBRANCH  19  22
ENDBRANCH  16  18
ENDBRANCH  15  16
ENDBRANCH   2  15
TORSDOF 8
ENDMDL
MODEL 9
REMARK VINA RESULT:      -5.5      5.115      7.190
REMARK  Name = 5390110
REMARK  8 active torsions:
REMARK  status: ('A' for Active; 'I' for Inactive)
REMARK    1  A    between atoms: C_1  and  C_12
REMARK    2  A    between atoms: C_2  and  C_16
REMARK    3  A    between atoms: C_3  and  O_7
REMARK    4  A    between atoms: C_4  and  O_9
REMARK    5  A    between atoms: C_12  and  O_13
REMARK    6  A    between atoms: N_15  and  C_16
REMARK    7  A    between atoms: N_15  and  N_18
REMARK    8  A    between atoms: C_19  and  C_22
REMARK                            x       y       z     vdW  Elec       q    Type
REMARK                         _______ _______ _______ _____ _____    ______ ____
ROOT
ATOM      1  C   UNL     1     -36.097  25.562   3.425  0.00  0.00    +0.110 C 
ATOM      2  C   UNL     1     -34.900  26.148   3.837  0.00  0.00    +0.006 C 
ATOM      3  C   UNL     1     -36.557  24.404   4.049  0.00  0.00    +0.178 C 
ATOM      4  C   UNL     1     -35.820  23.829   5.084  0.00  0.00    +0.173 C 
ATOM      5  C   UNL     1     -34.162  25.574   4.872  0.00  0.00    +0.001 C 
ATOM      6  C   UNL     1     -34.622  24.415   5.496  0.00  0.00    +0.040 C 
ENDROOT
BRANCH   3   7
ATOM      7  O   UNL     1     -37.726  23.823   3.653  0.00  0.00    -0.468 OA
ATOM      8  C   UNL     1     -37.632  22.764   2.704  0.00  0.00    +0.253 C 
ENDBRANCH   3   7
BRANCH   4   9
ATOM      9  O   UNL     1     -36.257  22.697   5.703  0.00  0.00    -0.468 OA
ATOM     10  C   UNL     1     -35.281  21.911   6.381  0.00  0.00    +0.253 C 
ENDBRANCH   4   9
BRANCH   1  12
ATOM     11  O   UNL     1     -36.571  26.124   1.148  0.00  0.00    -0.245 OA
ATOM     12  C   UNL     1     -36.875  26.157   2.342  0.00  0.00    +0.341 C 
BRANCH  12  13
ATOM     13  O   UNL     1     -38.002  26.769   2.792  0.00  0.00    -0.477 OA
ATOM     14  H   UNL     1     -38.174  26.816   3.712  0.00  0.00    +0.295 HD
ENDBRANCH  12  13
ENDBRANCH   1  12
BRANCH   2  15
ATOM     15  C   UNL     1     -34.388  27.358   3.205  0.00  0.00    +0.138 C 
BRANCH  15  16
ATOM     16  N   UNL     1     -33.964  28.381   3.889  0.00  0.00    -0.126 NA
BRANCH  16  18
ATOM     17  O   UNL     1     -32.499  28.394   6.200  0.00  0.00    -0.269 OA
ATOM     18  N   UNL     1     -32.619  28.537   3.892  0.00  0.00    -0.228 N 
ATOM     19  C   UNL     1     -31.958  28.531   5.106  0.00  0.00    +0.260 C 
ATOM     20  H   UNL     1     -32.124  28.652   3.050  0.00  0.00    +0.171 HD
BRANCH  19  22
ATOM     21  N   UNL     1     -27.750  29.097   4.921  0.00  0.00    -0.242 NA
ATOM     22  C   UNL     1     -30.486  28.728   5.041  0.00  0.00    +0.058 C 
ATOM     23  C   UNL     1     -29.842  28.552   3.840  0.00  0.00    +0.025 C 
ATOM     24  C   UNL     1     -29.811  29.083   6.185  0.00  0.00    +0.025 C 
ATOM     25  C   UNL     1     -28.471  28.748   3.832  0.00  0.00    +0.099 C 
ATOM     26  C   UNL     1     -28.441  29.256   6.073  0.00  0.00    +0.099 C 
ENDBRANCH  19  22
ENDBRANCH  16  18
ENDBRANCH  15  16
ENDBRANCH   2  15
TORSDOF 8
ENDMDL
