MODEL 1
REMARK VINA RESULT:      -6.7      0.000      0.000
REMARK  Name = 5468104
REMARK  8 active torsions:
REMARK  status: ('A' for Active; 'I' for Inactive)
REMARK    1  A    between atoms: C_4  and  O_20
REMARK    2  A    between atoms: C_13  and  C_14
REMARK    3  A    between atoms: C_15  and  C_17
REMARK    4  A    between atoms: C_17  and  O_18
REMARK    5  A    between atoms: O_20  and  C_22
REMARK    6  A    between atoms: C_22  and  C_23
REMARK    7  A    between atoms: C_25  and  O_30
REMARK    8  A    between atoms: C_29  and  O_32
REMARK                            x       y       z     vdW  Elec       q    Type
REMARK                         _______ _______ _______ _____ _____    ______ ____
ROOT
ATOM      1  O   UNL     1     -33.380  28.643   3.905  0.00  0.00    -0.471 OA
ATOM      2  O   UNL     1     -36.798  26.549   2.627  0.00  0.00    -0.287 OA
ATOM      3  O   UNL     1     -35.938  23.260   5.832  0.00  0.00    -0.292 OA
ATOM      4  C   UNL     1     -36.151  24.548   3.802  0.00  0.00    +0.241 C 
ATOM      5  C   UNL     1     -36.008  26.004   3.395  0.00  0.00    +0.215 C 
ATOM      6  C   UNL     1     -35.537  24.202   5.149  0.00  0.00    +0.198 C 
ATOM      7  C   UNL     1     -34.835  26.727   3.951  0.00  0.00    +0.056 C 
ATOM      8  C   UNL     1     -34.056  26.171   5.048  0.00  0.00    -0.009 C 
ATOM      9  C   UNL     1     -35.519  23.659   2.730  0.00  0.00    +0.060 C 
ATOM     10  C   UNL     1     -34.380  25.002   5.625  0.00  0.00    +0.095 C 
ATOM     11  C   UNL     1     -32.913  26.936   5.535  0.00  0.00    +0.033 C 
ATOM     12  C   UNL     1     -34.464  27.913   3.444  0.00  0.00    +0.235 C 
ATOM     13  C   UNL     1     -32.626  28.117   4.956  0.00  0.00    +0.139 C 
ENDROOT
BRANCH  13  14
ATOM     14  C   UNL     1     -31.526  28.945   5.361  0.00  0.00    +0.044 C 
ATOM     15  C   UNL     1     -30.688  28.611   6.351  0.00  0.00    +0.085 C 
BRANCH  15  17
ATOM     16  O   UNL     1     -29.090  30.377   5.991  0.00  0.00    -0.245 OA
ATOM     17  C   UNL     1     -29.580  29.519   6.706  0.00  0.00    +0.338 C 
BRANCH  17  18
ATOM     18  O   UNL     1     -29.187  29.250   7.972  0.00  0.00    -0.477 OA
ATOM     19  H   UNL     1     -29.674  29.591   8.697  0.00  0.00    +0.295 HD
ENDBRANCH  17  18
ENDBRANCH  15  17
ENDBRANCH  13  14
BRANCH   4  20
ATOM     20  O   UNL     1     -37.536  24.258   3.896  0.00  0.00    -0.438 OA
BRANCH  20  22
ATOM     21  O   UNL     1     -37.775  22.331   2.659  0.00  0.00    -0.245 OA
ATOM     22  C   UNL     1     -38.061  23.495   2.895  0.00  0.00    +0.344 C 
BRANCH  22  23
ATOM     23  C   UNL     1     -39.047  24.269   2.101  0.00  0.00    +0.105 C 
ATOM     24  C   UNL     1     -38.954  24.268   0.722  0.00  0.00    -0.010 C 
ATOM     25  C   UNL     1     -40.035  24.972   2.765  0.00  0.00    +0.143 C 
ATOM     26  C   UNL     1     -39.883  24.998  -0.020  0.00  0.00    +0.033 C 
ATOM     27  C   UNL     1     -40.963  25.701   2.023  0.00  0.00    +0.073 C 
ATOM     28  C   UNL     1     -37.888  23.512  -0.003  0.00  0.00    +0.031 C 
ATOM     29  C   UNL     1     -40.889  25.714   0.630  0.00  0.00    +0.136 C 
BRANCH  25  30
ATOM     30  O   UNL     1     -40.127  24.974   4.125  0.00  0.00    -0.505 OA
ATOM     31  H   UNL     1     -40.917  24.688   4.542  0.00  0.00    +0.292 HD
ENDBRANCH  25  30
BRANCH  29  32
ATOM     32  O   UNL     1     -41.795  26.425  -0.094  0.00  0.00    -0.505 OA
ATOM     33  H   UNL     1     -42.265  27.130   0.308  0.00  0.00    +0.292 HD
ENDBRANCH  29  32
ENDBRANCH  22  23
ENDBRANCH  20  22
ENDBRANCH   4  20
TORSDOF 8
ENDMDL
MODEL 2
REMARK VINA RESULT:      -6.7      1.938      2.753
REMARK  Name = 5468104
REMARK  8 active torsions:
REMARK  status: ('A' for Active; 'I' for Inactive)
REMARK    1  A    between atoms: C_4  and  O_20
REMARK    2  A    between atoms: C_13  and  C_14
REMARK    3  A    between atoms: C_15  and  C_17
REMARK    4  A    between atoms: C_17  and  O_18
REMARK    5  A    between atoms: O_20  and  C_22
REMARK    6  A    between atoms: C_22  and  C_23
REMARK    7  A    between atoms: C_25  and  O_30
REMARK    8  A    between atoms: C_29  and  O_32
REMARK                            x       y       z     vdW  Elec       q    Type
REMARK                         _______ _______ _______ _____ _____    ______ ____
ROOT
ATOM      1  O   UNL     1     -31.780  29.322   4.661  0.00  0.00    -0.471 OA
ATOM      2  O   UNL     1     -34.742  27.787   2.099  0.00  0.00    -0.287 OA
ATOM      3  O   UNL     1     -35.854  24.613   5.343  0.00  0.00    -0.292 OA
ATOM      4  C   UNL     1     -35.001  25.784   3.412  0.00  0.00    +0.241 C 
ATOM      5  C   UNL     1     -34.438  27.161   3.112  0.00  0.00    +0.215 C 
ATOM      6  C   UNL     1     -35.047  25.423   4.888  0.00  0.00    +0.198 C 
ATOM      7  C   UNL     1     -33.467  27.701   4.100  0.00  0.00    +0.056 C 
ATOM      8  C   UNL     1     -33.305  27.089   5.410  0.00  0.00    -0.009 C 
ATOM      9  C   UNL     1     -34.177  24.730   2.673  0.00  0.00    +0.060 C 
ATOM     10  C   UNL     1     -34.044  26.036   5.796  0.00  0.00    +0.095 C 
ATOM     11  C   UNL     1     -32.326  27.670   6.323  0.00  0.00    +0.033 C 
ATOM     12  C   UNL     1     -32.710  28.767   3.797  0.00  0.00    +0.235 C 
ATOM     13  C   UNL     1     -31.617  28.741   5.920  0.00  0.00    +0.139 C 
ENDROOT
BRANCH  13  14
ATOM     14  C   UNL     1     -30.632  29.386   6.741  0.00  0.00    +0.044 C 
ATOM     15  C   UNL     1     -29.368  28.954   6.839  0.00  0.00    +0.085 C 
BRANCH  15  17
ATOM     16  O   UNL     1     -27.606  30.515   7.352  0.00  0.00    -0.245 OA
ATOM     17  C   UNL     1     -28.417  29.676   7.707  0.00  0.00    +0.338 C 
BRANCH  17  18
ATOM     18  O   UNL     1     -28.589  29.257   8.982  0.00  0.00    -0.477 OA
ATOM     19  H   UNL     1     -28.065  28.557   9.320  0.00  0.00    +0.295 HD
ENDBRANCH  17  18
ENDBRANCH  15  17
ENDBRANCH  13  14
BRANCH   4  20
ATOM     20  O   UNL     1     -36.339  25.750   2.941  0.00  0.00    -0.438 OA
BRANCH  20  22
ATOM     21  O   UNL     1     -35.988  25.351   0.701  0.00  0.00    -0.245 OA
ATOM     22  C   UNL     1     -36.544  25.101   1.759  0.00  0.00    +0.344 C 
BRANCH  22  23
ATOM     23  C   UNL     1     -37.556  24.027   1.914  0.00  0.00    +0.105 C 
ATOM     24  C   UNL     1     -38.868  24.367   2.183  0.00  0.00    -0.010 C 
ATOM     25  C   UNL     1     -37.156  22.710   1.783  0.00  0.00    +0.143 C 
ATOM     26  C   UNL     1     -39.815  23.353   2.328  0.00  0.00    +0.033 C 
ATOM     27  C   UNL     1     -38.103  21.697   1.928  0.00  0.00    +0.073 C 
ATOM     28  C   UNL     1     -39.307  25.788   2.327  0.00  0.00    +0.031 C 
ATOM     29  C   UNL     1     -39.433  22.018   2.200  0.00  0.00    +0.136 C 
BRANCH  25  30
ATOM     30  O   UNL     1     -35.862  22.373   1.518  0.00  0.00    -0.505 OA
ATOM     31  H   UNL     1     -35.571  22.295   0.630  0.00  0.00    +0.292 HD
ENDBRANCH  25  30
BRANCH  29  32
ATOM     32  O   UNL     1     -40.357  21.028   2.341  0.00  0.00    -0.505 OA
ATOM     33  H   UNL     1     -40.527  20.442   1.629  0.00  0.00    +0.292 HD
ENDBRANCH  29  32
ENDBRANCH  22  23
ENDBRANCH  20  22
ENDBRANCH   4  20
TORSDOF 8
ENDMDL
MODEL 3
REMARK VINA RESULT:      -6.6      3.291      5.022
REMARK  Name = 5468104
REMARK  8 active torsions:
REMARK  status: ('A' for Active; 'I' for Inactive)
REMARK    1  A    between atoms: C_4  and  O_20
REMARK    2  A    between atoms: C_13  and  C_14
REMARK    3  A    between atoms: C_15  and  C_17
REMARK    4  A    between atoms: C_17  and  O_18
REMARK    5  A    between atoms: O_20  and  C_22
REMARK    6  A    between atoms: C_22  and  C_23
REMARK    7  A    between atoms: C_25  and  O_30
REMARK    8  A    between atoms: C_29  and  O_32
REMARK                            x       y       z     vdW  Elec       q    Type
REMARK                         _______ _______ _______ _____ _____    ______ ____
ROOT
ATOM      1  O   UNL     1     -30.800  30.305   5.927  0.00  0.00    -0.471 OA
ATOM      2  O   UNL     1     -33.310  26.983   6.533  0.00  0.00    -0.287 OA
ATOM      3  O   UNL     1     -32.582  25.670   2.109  0.00  0.00    -0.292 OA
ATOM      4  C   UNL     1     -33.484  26.539   4.172  0.00  0.00    +0.241 C 
ATOM      5  C   UNL     1     -32.951  27.268   5.393  0.00  0.00    +0.215 C 
ATOM      6  C   UNL     1     -32.553  26.548   2.970  0.00  0.00    +0.198 C 
ATOM      7  C   UNL     1     -31.991  28.372   5.130  0.00  0.00    +0.056 C 
ATOM      8  C   UNL     1     -31.373  28.538   3.823  0.00  0.00    -0.009 C 
ATOM      9  C   UNL     1     -34.822  27.153   3.762  0.00  0.00    +0.060 C 
ATOM     10  C   UNL     1     -31.615  27.688   2.811  0.00  0.00    +0.095 C 
ATOM     11  C   UNL     1     -30.447  29.651   3.638  0.00  0.00    +0.033 C 
ATOM     12  C   UNL     1     -31.680  29.247   6.098  0.00  0.00    +0.235 C 
ATOM     13  C   UNL     1     -30.203  30.473   4.676  0.00  0.00    +0.139 C 
ENDROOT
BRANCH  13  14
ATOM     14  C   UNL     1     -29.310  31.594   4.598  0.00  0.00    +0.044 C 
ATOM     15  C   UNL     1     -28.247  31.736   5.400  0.00  0.00    +0.085 C 
BRANCH  15  17
ATOM     16  O   UNL     1     -26.945  33.377   4.210  0.00  0.00    -0.245 OA
ATOM     17  C   UNL     1     -27.378  32.920   5.254  0.00  0.00    +0.338 C 
BRANCH  17  18
ATOM     18  O   UNL     1     -27.132  33.432   6.483  0.00  0.00    -0.477 OA
ATOM     19  H   UNL     1     -26.332  33.891   6.648  0.00  0.00    +0.295 HD
ENDBRANCH  17  18
ENDBRANCH  15  17
ENDBRANCH  13  14
BRANCH   4  20
ATOM     20  O   UNL     1     -33.680  25.181   4.529  0.00  0.00    -0.438 OA
BRANCH  20  22
ATOM     21  O   UNL     1     -35.865  25.388   5.223  0.00  0.00    -0.245 OA
ATOM     22  C   UNL     1     -34.974  24.773   4.657  0.00  0.00    +0.344 C 
BRANCH  22  23
ATOM     23  C   UNL     1     -35.180  23.453   4.011  0.00  0.00    +0.105 C 
ATOM     24  C   UNL     1     -35.271  22.321   4.800  0.00  0.00    -0.010 C 
ATOM     25  C   UNL     1     -35.277  23.391   2.634  0.00  0.00    +0.143 C 
ATOM     26  C   UNL     1     -35.464  21.083   4.188  0.00  0.00    +0.033 C 
ATOM     27  C   UNL     1     -35.470  22.153   2.022  0.00  0.00    +0.073 C 
ATOM     28  C   UNL     1     -35.166  22.380   6.290  0.00  0.00    +0.031 C 
ATOM     29  C   UNL     1     -35.564  20.998   2.799  0.00  0.00    +0.136 C 
BRANCH  25  30
ATOM     30  O   UNL     1     -35.188  24.506   1.855  0.00  0.00    -0.505 OA
ATOM     31  H   UNL     1     -35.642  24.543   1.036  0.00  0.00    +0.292 HD
ENDBRANCH  25  30
BRANCH  29  32
ATOM     32  O   UNL     1     -35.753  19.790   2.202  0.00  0.00    -0.505 OA
ATOM     33  H   UNL     1     -36.486  19.658   1.633  0.00  0.00    +0.292 HD
ENDBRANCH  29  32
ENDBRANCH  22  23
ENDBRANCH  20  22
ENDBRANCH   4  20
TORSDOF 8
ENDMDL
MODEL 4
REMARK VINA RESULT:      -6.6      2.735      4.089
REMARK  Name = 5468104
REMARK  8 active torsions:
REMARK  status: ('A' for Active; 'I' for Inactive)
REMARK    1  A    between atoms: C_4  and  O_20
REMARK    2  A    between atoms: C_13  and  C_14
REMARK    3  A    between atoms: C_15  and  C_17
REMARK    4  A    between atoms: C_17  and  O_18
REMARK    5  A    between atoms: O_20  and  C_22
REMARK    6  A    between atoms: C_22  and  C_23
REMARK    7  A    between atoms: C_25  and  O_30
REMARK    8  A    between atoms: C_29  and  O_32
REMARK                            x       y       z     vdW  Elec       q    Type
REMARK                         _______ _______ _______ _____ _____    ______ ____
ROOT
ATOM      1  O   UNL     1     -32.307  29.149   4.198  0.00  0.00    -0.471 OA
ATOM      2  O   UNL     1     -33.328  25.082   4.537  0.00  0.00    -0.287 OA
ATOM      3  O   UNL     1     -37.006  25.810   1.749  0.00  0.00    -0.292 OA
ATOM      4  C   UNL     1     -35.527  25.440   3.620  0.00  0.00    +0.241 C 
ATOM      5  C   UNL     1     -34.126  25.864   4.024  0.00  0.00    +0.215 C 
ATOM      6  C   UNL     1     -36.140  26.261   2.497  0.00  0.00    +0.198 C 
ATOM      7  C   UNL     1     -33.782  27.291   3.793  0.00  0.00    +0.056 C 
ATOM      8  C   UNL     1     -34.616  28.144   2.961  0.00  0.00    -0.009 C 
ATOM      9  C   UNL     1     -36.446  25.509   4.839  0.00  0.00    +0.060 C 
ATOM     10  C   UNL     1     -35.711  27.674   2.339  0.00  0.00    +0.095 C 
ATOM     11  C   UNL     1     -34.218  29.537   2.788  0.00  0.00    +0.033 C 
ATOM     12  C   UNL     1     -32.690  27.827   4.360  0.00  0.00    +0.235 C 
ATOM     13  C   UNL     1     -33.103  29.975   3.402  0.00  0.00    +0.139 C 
ENDROOT
BRANCH  13  14
ATOM     14  C   UNL     1     -32.626  31.325   3.296  0.00  0.00    +0.044 C 
ATOM     15  C   UNL     1     -33.225  32.253   2.539  0.00  0.00    +0.085 C 
BRANCH  15  17
ATOM     16  O   UNL     1     -33.266  34.631   2.155  0.00  0.00    -0.245 OA
ATOM     17  C   UNL     1     -32.670  33.619   2.485  0.00  0.00    +0.338 C 
BRANCH  17  18
ATOM     18  O   UNL     1     -31.373  33.575   2.868  0.00  0.00    -0.477 OA
ATOM     19  H   UNL     1     -30.912  34.370   3.053  0.00  0.00    +0.295 HD
ENDBRANCH  17  18
ENDBRANCH  15  17
ENDBRANCH  13  14
BRANCH   4  20
ATOM     20  O   UNL     1     -35.459  24.101   3.158  0.00  0.00    -0.438 OA
BRANCH  20  22
ATOM     21  O   UNL     1     -36.227  23.010   5.034  0.00  0.00    -0.245 OA
ATOM     22  C   UNL     1     -36.226  23.194   3.827  0.00  0.00    +0.344 C 
BRANCH  22  23
ATOM     23  C   UNL     1     -37.084  22.430   2.887  0.00  0.00    +0.105 C 
ATOM     24  C   UNL     1     -36.573  21.305   2.267  0.00  0.00    -0.010 C 
ATOM     25  C   UNL     1     -38.375  22.866   2.657  0.00  0.00    +0.143 C 
ATOM     26  C   UNL     1     -37.383  20.591   1.384  0.00  0.00    +0.033 C 
ATOM     27  C   UNL     1     -39.185  22.153   1.774  0.00  0.00    +0.073 C 
ATOM     28  C   UNL     1     -35.178  20.828   2.509  0.00  0.00    +0.031 C 
ATOM     29  C   UNL     1     -38.689  21.014   1.138  0.00  0.00    +0.136 C 
BRANCH  25  30
ATOM     30  O   UNL     1     -38.880  23.975   3.268  0.00  0.00    -0.505 OA
ATOM     31  H   UNL     1     -39.463  24.543   2.802  0.00  0.00    +0.292 HD
ENDBRANCH  25  30
BRANCH  29  32
ATOM     32  O   UNL     1     -39.480  20.318   0.277  0.00  0.00    -0.505 OA
ATOM     33  H   UNL     1     -40.034  19.633   0.599  0.00  0.00    +0.292 HD
ENDBRANCH  29  32
ENDBRANCH  22  23
ENDBRANCH  20  22
ENDBRANCH   4  20
TORSDOF 8
ENDMDL
MODEL 5
REMARK VINA RESULT:      -6.5      2.390      9.573
REMARK  Name = 5468104
REMARK  8 active torsions:
REMARK  status: ('A' for Active; 'I' for Inactive)
REMARK    1  A    between atoms: C_4  and  O_20
REMARK    2  A    between atoms: C_13  and  C_14
REMARK    3  A    between atoms: C_15  and  C_17
REMARK    4  A    between atoms: C_17  and  O_18
REMARK    5  A    between atoms: O_20  and  C_22
REMARK    6  A    between atoms: C_22  and  C_23
REMARK    7  A    between atoms: C_25  and  O_30
REMARK    8  A    between atoms: C_29  and  O_32
REMARK                            x       y       z     vdW  Elec       q    Type
REMARK                         _______ _______ _______ _____ _____    ______ ____
ROOT
ATOM      1  O   UNL     1     -36.142  23.823   1.612  0.00  0.00    -0.471 OA
ATOM      2  O   UNL     1     -32.518  25.957   1.736  0.00  0.00    -0.287 OA
ATOM      3  O   UNL     1     -33.314  26.979   6.225  0.00  0.00    -0.292 OA
ATOM      4  C   UNL     1     -33.083  27.019   3.822  0.00  0.00    +0.241 C 
ATOM      5  C   UNL     1     -33.308  26.054   2.673  0.00  0.00    +0.215 C 
ATOM      6  C   UNL     1     -33.743  26.614   5.131  0.00  0.00    +0.198 C 
ATOM      7  C   UNL     1     -34.558  25.252   2.726  0.00  0.00    +0.056 C 
ATOM      8  C   UNL     1     -35.353  25.174   3.942  0.00  0.00    -0.009 C 
ATOM      9  C   UNL     1     -33.590  28.406   3.424  0.00  0.00    +0.060 C 
ATOM     10  C   UNL     1     -34.978  25.792   5.074  0.00  0.00    +0.095 C 
ATOM     11  C   UNL     1     -36.573  24.373   3.915  0.00  0.00    +0.033 C 
ATOM     12  C   UNL     1     -34.985  24.585   1.642  0.00  0.00    +0.235 C 
ATOM     13  C   UNL     1     -36.912  23.743   2.774  0.00  0.00    +0.139 C 
ENDROOT
BRANCH  13  14
ATOM     14  C   UNL     1     -38.089  22.932   2.643  0.00  0.00    +0.044 C 
ATOM     15  C   UNL     1     -38.671  22.676   1.465  0.00  0.00    +0.085 C 
BRANCH  15  17
ATOM     16  O   UNL     1     -40.784  21.905   0.602  0.00  0.00    -0.245 OA
ATOM     17  C   UNL     1     -39.881  21.832   1.418  0.00  0.00    +0.338 C 
BRANCH  17  18
ATOM     18  O   UNL     1     -39.830  20.944   2.438  0.00  0.00    -0.477 OA
ATOM     19  H   UNL     1     -40.311  21.107   3.225  0.00  0.00    +0.295 HD
ENDBRANCH  17  18
ENDBRANCH  15  17
ENDBRANCH  13  14
BRANCH   4  20
ATOM     20  O   UNL     1     -31.688  27.083   4.070  0.00  0.00    -0.438 OA
BRANCH  20  22
ATOM     21  O   UNL     1     -31.290  29.114   3.061  0.00  0.00    -0.245 OA
ATOM     22  C   UNL     1     -31.115  28.315   3.969  0.00  0.00    +0.344 C 
BRANCH  22  23
ATOM     23  C   UNL     1     -30.222  28.581   5.125  0.00  0.00    +0.105 C 
ATOM     24  C   UNL     1     -30.619  29.486   6.091  0.00  0.00    -0.010 C 
ATOM     25  C   UNL     1     -29.015  27.912   5.203  0.00  0.00    +0.143 C 
ATOM     26  C   UNL     1     -29.776  29.731   7.175  0.00  0.00    +0.033 C 
ATOM     27  C   UNL     1     -28.173  28.158   6.286  0.00  0.00    +0.073 C 
ATOM     28  C   UNL     1     -31.921  30.213   6.012  0.00  0.00    +0.031 C 
ATOM     29  C   UNL     1     -28.553  29.067   7.274  0.00  0.00    +0.136 C 
BRANCH  25  30
ATOM     30  O   UNL     1     -28.623  27.019   4.251  0.00  0.00    -0.505 OA
ATOM     31  H   UNL     1     -28.023  26.332   4.470  0.00  0.00    +0.292 HD
ENDBRANCH  25  30
BRANCH  29  32
ATOM     32  O   UNL     1     -27.731  29.307   8.332  0.00  0.00    -0.505 OA
ATOM     33  H   UNL     1     -27.375  28.590   8.820  0.00  0.00    +0.292 HD
ENDBRANCH  29  32
ENDBRANCH  22  23
ENDBRANCH  20  22
ENDBRANCH   4  20
TORSDOF 8
ENDMDL
MODEL 6
REMARK VINA RESULT:      -6.5      3.986      8.842
REMARK  Name = 5468104
REMARK  8 active torsions:
REMARK  status: ('A' for Active; 'I' for Inactive)
REMARK    1  A    between atoms: C_4  and  O_20
REMARK    2  A    between atoms: C_13  and  C_14
REMARK    3  A    between atoms: C_15  and  C_17
REMARK    4  A    between atoms: C_17  and  O_18
REMARK    5  A    between atoms: O_20  and  C_22
REMARK    6  A    between atoms: C_22  and  C_23
REMARK    7  A    between atoms: C_25  and  O_30
REMARK    8  A    between atoms: C_29  and  O_32
REMARK                            x       y       z     vdW  Elec       q    Type
REMARK                         _______ _______ _______ _____ _____    ______ ____
ROOT
ATOM      1  O   UNL     1     -33.265  26.044   5.205  0.00  0.00    -0.471 OA
ATOM      2  O   UNL     1     -32.592  30.004   3.955  0.00  0.00    -0.287 OA
ATOM      3  O   UNL     1     -36.270  29.688   1.091  0.00  0.00    -0.292 OA
ATOM      4  C   UNL     1     -34.061  29.777   2.060  0.00  0.00    +0.241 C 
ATOM      5  C   UNL     1     -33.394  29.305   3.339  0.00  0.00    +0.215 C 
ATOM      6  C   UNL     1     -35.407  29.133   1.771  0.00  0.00    +0.198 C 
ATOM      7  C   UNL     1     -33.740  27.932   3.791  0.00  0.00    +0.056 C 
ATOM      8  C   UNL     1     -34.868  27.212   3.219  0.00  0.00    -0.009 C 
ATOM      9  C   UNL     1     -33.127  29.516   0.878  0.00  0.00    +0.060 C 
ATOM     10  C   UNL     1     -35.661  27.764   2.287  0.00  0.00    +0.095 C 
ATOM     11  C   UNL     1     -35.140  25.864   3.708  0.00  0.00    +0.033 C 
ATOM     12  C   UNL     1     -33.008  27.323   4.737  0.00  0.00    +0.235 C 
ATOM     13  C   UNL     1     -34.344  25.345   4.661  0.00  0.00    +0.139 C 
ENDROOT
BRANCH  13  14
ATOM     14  C   UNL     1     -34.527  24.031   5.208  0.00  0.00    +0.044 C 
ATOM     15  C   UNL     1     -35.298  23.101   4.630  0.00  0.00    +0.085 C 
BRANCH  15  17
ATOM     16  O   UNL     1     -35.028  20.714   4.808  0.00  0.00    -0.245 OA
ATOM     17  C   UNL     1     -35.433  21.772   5.259  0.00  0.00    +0.338 C 
BRANCH  17  18
ATOM     18  O   UNL     1     -36.086  21.914   6.435  0.00  0.00    -0.477 OA
ATOM     19  H   UNL     1     -35.608  22.114   7.215  0.00  0.00    +0.295 HD
ENDBRANCH  17  18
ENDBRANCH  15  17
ENDBRANCH  13  14
BRANCH   4  20
ATOM     20  O   UNL     1     -34.290  31.171   2.178  0.00  0.00    -0.438 OA
BRANCH  20  22
ATOM     21  O   UNL     1     -33.697  31.749   0.030  0.00  0.00    -0.245 OA
ATOM     22  C   UNL     1     -33.704  31.960   1.233  0.00  0.00    +0.344 C 
BRANCH  22  23
ATOM     23  C   UNL     1     -33.052  33.138   1.857  0.00  0.00    +0.105 C 
ATOM     24  C   UNL     1     -33.722  34.347   1.881  0.00  0.00    -0.010 C 
ATOM     25  C   UNL     1     -31.789  32.993   2.400  0.00  0.00    +0.143 C 
ATOM     26  C   UNL     1     -33.104  35.452   2.469  0.00  0.00    +0.033 C 
ATOM     27  C   UNL     1     -31.173  34.097   2.987  0.00  0.00    +0.073 C 
ATOM     28  C   UNL     1     -35.086  34.512   1.295  0.00  0.00    +0.031 C 
ATOM     29  C   UNL     1     -31.830  35.327   3.023  0.00  0.00    +0.136 C 
BRANCH  25  30
ATOM     30  O   UNL     1     -31.128  31.801   2.378  0.00  0.00    -0.505 OA
ATOM     31  H   UNL     1     -30.840  31.409   3.179  0.00  0.00    +0.292 HD
ENDBRANCH  25  30
BRANCH  29  32
ATOM     32  O   UNL     1     -31.228  36.404   3.596  0.00  0.00    -0.505 OA
ATOM     33  H   UNL     1     -31.746  37.053   4.032  0.00  0.00    +0.292 HD
ENDBRANCH  29  32
ENDBRANCH  22  23
ENDBRANCH  20  22
ENDBRANCH   4  20
TORSDOF 8
ENDMDL
MODEL 7
REMARK VINA RESULT:      -6.5      2.154      3.653
REMARK  Name = 5468104
REMARK  8 active torsions:
REMARK  status: ('A' for Active; 'I' for Inactive)
REMARK    1  A    between atoms: C_4  and  O_20
REMARK    2  A    between atoms: C_13  and  C_14
REMARK    3  A    between atoms: C_15  and  C_17
REMARK    4  A    between atoms: C_17  and  O_18
REMARK    5  A    between atoms: O_20  and  C_22
REMARK    6  A    between atoms: C_22  and  C_23
REMARK    7  A    between atoms: C_25  and  O_30
REMARK    8  A    between atoms: C_29  and  O_32
REMARK                            x       y       z     vdW  Elec       q    Type
REMARK                         _______ _______ _______ _____ _____    ______ ____
ROOT
ATOM      1  O   UNL     1     -33.315  27.005   6.291  0.00  0.00    -0.471 OA
ATOM      2  O   UNL     1     -35.924  23.802   5.494  0.00  0.00    -0.287 OA
ATOM      3  O   UNL     1     -34.876  24.124   0.952  0.00  0.00    -0.292 OA
ATOM      4  C   UNL     1     -35.920  24.239   3.125  0.00  0.00    +0.241 C 
ATOM      5  C   UNL     1     -35.472  24.458   4.559  0.00  0.00    +0.215 C 
ATOM      6  C   UNL     1     -34.898  24.634   2.072  0.00  0.00    +0.198 C 
ATOM      7  C   UNL     1     -34.474  25.540   4.775  0.00  0.00    +0.056 C 
ATOM      8  C   UNL     1     -33.753  26.134   3.659  0.00  0.00    -0.009 C 
ATOM      9  C   UNL     1     -37.212  25.018   2.875  0.00  0.00    +0.060 C 
ATOM     10  C   UNL     1     -33.930  25.713   2.396  0.00  0.00    +0.095 C 
ATOM     11  C   UNL     1     -32.796  27.197   3.949  0.00  0.00    +0.033 C 
ATOM     12  C   UNL     1     -34.224  25.997   6.011  0.00  0.00    +0.235 C 
ATOM     13  C   UNL     1     -32.620  27.582   5.227  0.00  0.00    +0.139 C 
ENDROOT
BRANCH  13  14
ATOM     14  C   UNL     1     -31.703  28.616   5.617  0.00  0.00    +0.044 C 
ATOM     15  C   UNL     1     -30.555  28.368   6.261  0.00  0.00    +0.085 C 
BRANCH  15  17
ATOM     16  O   UNL     1     -29.358  30.429   5.913  0.00  0.00    -0.245 OA
ATOM     17  C   UNL     1     -29.668  29.489   6.626  0.00  0.00    +0.338 C 
BRANCH  17  18
ATOM     18  O   UNL     1     -29.246  29.311   7.899  0.00  0.00    -0.477 OA
ATOM     19  H   UNL     1     -28.444  28.856   8.068  0.00  0.00    +0.295 HD
ENDBRANCH  17  18
ENDBRANCH  15  17
ENDBRANCH  13  14
BRANCH   4  20
ATOM     20  O   UNL     1     -36.168  22.853   2.956  0.00  0.00    -0.438 OA
BRANCH  20  22
ATOM     21  O   UNL     1     -38.468  22.870   3.059  0.00  0.00    -0.245 OA
ATOM     22  C   UNL     1     -37.421  22.511   2.541  0.00  0.00    +0.344 C 
BRANCH  22  23
ATOM     23  C   UNL     1     -37.363  21.623   1.353  0.00  0.00    +0.105 C 
ATOM     24  C   UNL     1     -37.708  22.129   0.114  0.00  0.00    -0.010 C 
ATOM     25  C   UNL     1     -36.963  20.311   1.520  0.00  0.00    +0.143 C 
ATOM     26  C   UNL     1     -37.651  21.290  -0.999  0.00  0.00    +0.033 C 
ATOM     27  C   UNL     1     -36.906  19.473   0.408  0.00  0.00    +0.073 C 
ATOM     28  C   UNL     1     -38.143  23.546  -0.074  0.00  0.00    +0.031 C 
ATOM     29  C   UNL     1     -37.250  19.962  -0.853  0.00  0.00    +0.136 C 
BRANCH  25  30
ATOM     30  O   UNL     1     -36.622  19.812   2.742  0.00  0.00    -0.505 OA
ATOM     31  H   UNL     1     -36.165  18.995   2.804  0.00  0.00    +0.292 HD
ENDBRANCH  25  30
BRANCH  29  32
ATOM     32  O   UNL     1     -37.195  19.144  -1.939  0.00  0.00    -0.505 OA
ATOM     33  H   UNL     1     -37.982  18.769  -2.283  0.00  0.00    +0.292 HD
ENDBRANCH  29  32
ENDBRANCH  22  23
ENDBRANCH  20  22
ENDBRANCH   4  20
TORSDOF 8
ENDMDL
MODEL 8
REMARK VINA RESULT:      -6.4      4.345      9.054
REMARK  Name = 5468104
REMARK  8 active torsions:
REMARK  status: ('A' for Active; 'I' for Inactive)
REMARK    1  A    between atoms: C_4  and  O_20
REMARK    2  A    between atoms: C_13  and  C_14
REMARK    3  A    between atoms: C_15  and  C_17
REMARK    4  A    between atoms: C_17  and  O_18
REMARK    5  A    between atoms: O_20  and  C_22
REMARK    6  A    between atoms: C_22  and  C_23
REMARK    7  A    between atoms: C_25  and  O_30
REMARK    8  A    between atoms: C_29  and  O_32
REMARK                            x       y       z     vdW  Elec       q    Type
REMARK                         _______ _______ _______ _____ _____    ______ ____
ROOT
ATOM      1  O   UNL     1     -34.440  18.761   0.708  0.00  0.00    -0.471 OA
ATOM      2  O   UNL     1     -35.022  22.102   3.197  0.00  0.00    -0.287 OA
ATOM      3  O   UNL     1     -39.518  22.218   1.933  0.00  0.00    -0.292 OA
ATOM      4  C   UNL     1     -37.153  22.617   2.199  0.00  0.00    +0.241 C 
ATOM      5  C   UNL     1     -35.905  21.778   2.406  0.00  0.00    +0.215 C 
ATOM      6  C   UNL     1     -38.367  21.843   1.714  0.00  0.00    +0.198 C 
ATOM      7  C   UNL     1     -35.793  20.554   1.570  0.00  0.00    +0.056 C 
ATOM      8  C   UNL     1     -36.937  20.036   0.834  0.00  0.00    -0.009 C 
ATOM      9  C   UNL     1     -36.850  23.735   1.201  0.00  0.00    +0.060 C 
ATOM     10  C   UNL     1     -38.145  20.618   0.903  0.00  0.00    +0.095 C 
ATOM     11  C   UNL     1     -36.747  18.835   0.028  0.00  0.00    +0.033 C 
ATOM     12  C   UNL     1     -34.624  19.903   1.471  0.00  0.00    +0.235 C 
ATOM     13  C   UNL     1     -35.532  18.257  -0.003  0.00  0.00    +0.139 C 
ENDROOT
BRANCH  13  14
ATOM     14  C   UNL     1     -35.242  17.075  -0.762  0.00  0.00    +0.044 C 
ATOM     15  C   UNL     1     -34.560  16.036  -0.263  0.00  0.00    +0.085 C 
BRANCH  15  17
ATOM     16  O   UNL     1     -33.441  14.751  -1.966  0.00  0.00    -0.245 OA
ATOM     17  C   UNL     1     -34.305  14.855  -1.112  0.00  0.00    +0.338 C 
BRANCH  17  18
ATOM     18  O   UNL     1     -35.194  13.888  -0.788  0.00  0.00    -0.477 OA
ATOM     19  H   UNL     1     -34.901  13.009  -0.651  0.00  0.00    +0.295 HD
ENDBRANCH  17  18
ENDBRANCH  15  17
ENDBRANCH  13  14
BRANCH   4  20
ATOM     20  O   UNL     1     -37.504  23.188   3.450  0.00  0.00    -0.438 OA
BRANCH  20  22
ATOM     21  O   UNL     1     -38.562  25.206   3.120  0.00  0.00    -0.245 OA
ATOM     22  C   UNL     1     -37.600  24.547   3.486  0.00  0.00    +0.344 C 
BRANCH  22  23
ATOM     23  C   UNL     1     -36.360  25.151   4.034  0.00  0.00    +0.105 C 
ATOM     24  C   UNL     1     -35.855  26.300   3.455  0.00  0.00    -0.010 C 
ATOM     25  C   UNL     1     -35.744  24.547   5.113  0.00  0.00    +0.143 C 
ATOM     26  C   UNL     1     -34.689  26.864   3.974  0.00  0.00    +0.033 C 
ATOM     27  C   UNL     1     -34.579  25.110   5.633  0.00  0.00    +0.073 C 
ATOM     28  C   UNL     1     -36.514  26.958   2.287  0.00  0.00    +0.031 C 
ATOM     29  C   UNL     1     -34.051  26.269   5.063  0.00  0.00    +0.136 C 
BRANCH  25  30
ATOM     30  O   UNL     1     -36.243  23.414   5.686  0.00  0.00    -0.505 OA
ATOM     31  H   UNL     1     -37.168  23.311   5.792  0.00  0.00    +0.292 HD
ENDBRANCH  25  30
BRANCH  29  32
ATOM     32  O   UNL     1     -32.914  26.819   5.570  0.00  0.00    -0.505 OA
ATOM     33  H   UNL     1     -32.088  26.644   5.164  0.00  0.00    +0.292 HD
ENDBRANCH  29  32
ENDBRANCH  22  23
ENDBRANCH  20  22
ENDBRANCH   4  20
TORSDOF 8
ENDMDL
MODEL 9
REMARK VINA RESULT:      -6.4      3.286      5.139
REMARK  Name = 5468104
REMARK  8 active torsions:
REMARK  status: ('A' for Active; 'I' for Inactive)
REMARK    1  A    between atoms: C_4  and  O_20
REMARK    2  A    between atoms: C_13  and  C_14
REMARK    3  A    between atoms: C_15  and  C_17
REMARK    4  A    between atoms: C_17  and  O_18
REMARK    5  A    between atoms: O_20  and  C_22
REMARK    6  A    between atoms: C_22  and  C_23
REMARK    7  A    between atoms: C_25  and  O_30
REMARK    8  A    between atoms: C_29  and  O_32
REMARK                            x       y       z     vdW  Elec       q    Type
REMARK                         _______ _______ _______ _____ _____    ______ ____
ROOT
ATOM      1  O   UNL     1     -32.611  32.007   2.613  0.00  0.00    -0.471 OA
ATOM      2  O   UNL     1     -35.502  28.960   2.375  0.00  0.00    -0.287 OA
ATOM      3  O   UNL     1     -33.079  26.466   5.496  0.00  0.00    -0.292 OA
ATOM      4  C   UNL     1     -34.082  27.368   3.494  0.00  0.00    +0.241 C 
ATOM      5  C   UNL     1     -34.443  28.743   2.960  0.00  0.00    +0.215 C 
ATOM      6  C   UNL     1     -33.117  27.376   4.669  0.00  0.00    +0.198 C 
ATOM      7  C   UNL     1     -33.426  29.809   3.156  0.00  0.00    +0.056 C 
ATOM      8  C   UNL     1     -32.304  29.624   4.063  0.00  0.00    -0.009 C 
ATOM      9  C   UNL     1     -33.477  26.531   2.367  0.00  0.00    +0.060 C 
ATOM     10  C   UNL     1     -32.154  28.501   4.785  0.00  0.00    +0.095 C 
ATOM     11  C   UNL     1     -31.342  30.714   4.196  0.00  0.00    +0.033 C 
ATOM     12  C   UNL     1     -33.522  30.970   2.488  0.00  0.00    +0.235 C 
ATOM     13  C   UNL     1     -31.530  31.838   3.480  0.00  0.00    +0.139 C 
ENDROOT
BRANCH  13  14
ATOM     14  C   UNL     1     -30.644  32.965   3.540  0.00  0.00    +0.044 C 
ATOM     15  C   UNL     1     -30.856  34.097   2.856  0.00  0.00    +0.085 C 
BRANCH  15  17
ATOM     16  O   UNL     1     -29.995  36.179   3.709  0.00  0.00    -0.245 OA
ATOM     17  C   UNL     1     -29.895  35.211   2.974  0.00  0.00    +0.338 C 
BRANCH  17  18
ATOM     18  O   UNL     1     -28.865  34.986   2.125  0.00  0.00    -0.477 OA
ATOM     19  H   UNL     1     -27.983  35.052   2.431  0.00  0.00    +0.295 HD
ENDBRANCH  17  18
ENDBRANCH  15  17
ENDBRANCH  13  14
BRANCH   4  20
ATOM     20  O   UNL     1     -35.275  26.751   3.949  0.00  0.00    -0.438 OA
BRANCH  20  22
ATOM     21  O   UNL     1     -36.275  25.892   2.061  0.00  0.00    -0.245 OA
ATOM     22  C   UNL     1     -35.772  25.752   3.166  0.00  0.00    +0.344 C 
BRANCH  22  23
ATOM     23  C   UNL     1     -35.629  24.435   3.835  0.00  0.00    +0.105 C 
ATOM     24  C   UNL     1     -35.388  23.310   3.068  0.00  0.00    -0.010 C 
ATOM     25  C   UNL     1     -35.741  24.369   5.210  0.00  0.00    +0.143 C 
ATOM     26  C   UNL     1     -35.254  22.075   3.702  0.00  0.00    +0.033 C 
ATOM     27  C   UNL     1     -35.607  23.134   5.844  0.00  0.00    +0.073 C 
ATOM     28  C   UNL     1     -35.267  23.373   1.580  0.00  0.00    +0.031 C 
ATOM     29  C   UNL     1     -35.364  21.986   5.090  0.00  0.00    +0.136 C 
BRANCH  25  30
ATOM     30  O   UNL     1     -35.978  25.478   5.968  0.00  0.00    -0.505 OA
ATOM     31  H   UNL     1     -36.821  25.888   5.948  0.00  0.00    +0.292 HD
ENDBRANCH  25  30
BRANCH  29  32
ATOM     32  O   UNL     1     -35.233  20.781   5.708  0.00  0.00    -0.505 OA
ATOM     33  H   UNL     1     -35.394  20.707   6.628  0.00  0.00    +0.292 HD
ENDBRANCH  29  32
ENDBRANCH  22  23
ENDBRANCH  20  22
ENDBRANCH   4  20
TORSDOF 8
ENDMDL
