MODEL 1
REMARK VINA RESULT:      -6.5      0.000      0.000
REMARK  Name = 194182
REMARK  9 active torsions:
REMARK  status: ('A' for Active; 'I' for Inactive)
REMARK    1  A    between atoms: N_3  and  C_20
REMARK    2  A    between atoms: C_20  and  C_21
REMARK    3  A    between atoms: C_21  and  O_22
REMARK    4  A    between atoms: C_21  and  C_24
REMARK    5  A    between atoms: C_24  and  O_25
REMARK    6  A    between atoms: C_24  and  C_27
REMARK    7  A    between atoms: C_27  and  O_28
REMARK    8  A    between atoms: C_27  and  C_30
REMARK    9  A    between atoms: C_30  and  O_31
REMARK                            x       y       z     vdW  Elec       q    Type
REMARK                         _______ _______ _______ _____ _____    ______ ____
ROOT
ATOM      1  O   UNL     1     -40.465  20.625  -0.100  0.00  0.00    -0.267 OA
ATOM      2  O   UNL     1     -40.315  24.277   2.711  0.00  0.00    -0.270 OA
ATOM      3  N   UNL     1     -36.412  21.491   2.322  0.00  0.00    -0.295 N 
ATOM      4  N   UNL     1     -37.937  20.030   0.414  0.00  0.00    -0.398 NA
ATOM      5  N   UNL     1     -40.414  22.466   1.297  0.00  0.00    -0.246 N 
ATOM      6  C   UNL     1     -35.826  20.395   1.627  0.00  0.00    +0.148 C 
ATOM      7  C   UNL     1     -37.723  21.886   2.034  0.00  0.00    +0.088 C 
ATOM      8  C   UNL     1     -36.604  19.685   0.686  0.00  0.00    +0.131 C 
ATOM      9  C   UNL     1     -38.446  21.044   1.036  0.00  0.00    +0.198 C 
ATOM     10  C   UNL     1     -34.494  19.971   1.820  0.00  0.00    -0.004 C 
ATOM     11  C   UNL     1     -33.962  18.888   1.115  0.00  0.00    -0.028 C 
ATOM     12  C   UNL     1     -36.060  18.599  -0.017  0.00  0.00    +0.025 C 
ATOM     13  C   UNL     1     -34.744  18.201   0.197  0.00  0.00    -0.024 C 
ATOM     14  C   UNL     1     -38.393  22.931   2.547  0.00  0.00    +0.075 C 
ATOM     15  C   UNL     1     -39.876  21.355   0.686  0.00  0.00    +0.283 C 
ATOM     16  C   UNL     1     -39.784  23.293   2.200  0.00  0.00    +0.253 C 
ATOM     17  C   UNL     1     -32.544  18.488   1.366  0.00  0.00    +0.030 C 
ATOM     18  C   UNL     1     -34.199  17.042  -0.570  0.00  0.00    +0.031 C 
ATOM     19  H   UNL     1     -41.343  22.692   1.064  0.00  0.00    +0.158 HD
ENDROOT
BRANCH   3  20
ATOM     20  C   UNL     1     -35.562  22.155   3.314  0.00  0.00    +0.123 C 
BRANCH  20  21
ATOM     21  C   UNL     1     -35.468  23.655   3.003  0.00  0.00    +0.159 C 
BRANCH  21  22
ATOM     22  O   UNL     1     -34.298  23.883   2.216  0.00  0.00    -0.380 OA
ATOM     23  H   UNL     1     -33.546  23.414   2.612  0.00  0.00    +0.211 HD
ENDBRANCH  21  22
BRANCH  21  24
ATOM     24  C   UNL     1     -35.402  24.521   4.276  0.00  0.00    +0.168 C 
BRANCH  24  25
ATOM     25  O   UNL     1     -36.313  24.014   5.250  0.00  0.00    -0.379 OA
ATOM     26  H   UNL     1     -36.821  24.747   5.631  0.00  0.00    +0.211 HD
ENDBRANCH  24  25
BRANCH  24  27
ATOM     27  C   UNL     1     -35.736  26.002   4.014  0.00  0.00    +0.169 C 
BRANCH  27  28
ATOM     28  O   UNL     1     -36.098  26.625   5.248  0.00  0.00    -0.379 OA
ATOM     29  H   UNL     1     -37.064  26.645   5.328  0.00  0.00    +0.211 HD
ENDBRANCH  27  28
BRANCH  27  30
ATOM     30  C   UNL     1     -36.890  26.172   3.028  0.00  0.00    +0.169 C 
BRANCH  30  31
ATOM     31  O   UNL     1     -38.118  26.137   3.749  0.00  0.00    -0.379 OA
ATOM     32  H   UNL     1     -38.802  25.718   3.203  0.00  0.00    +0.211 HD
ENDBRANCH  30  31
ENDBRANCH  27  30
ENDBRANCH  24  27
ENDBRANCH  21  24
ENDBRANCH  20  21
ENDBRANCH   3  20
TORSDOF 9
ENDMDL
MODEL 2
REMARK VINA RESULT:      -6.1      2.555      5.799
REMARK  Name = 194182
REMARK  9 active torsions:
REMARK  status: ('A' for Active; 'I' for Inactive)
REMARK    1  A    between atoms: N_3  and  C_20
REMARK    2  A    between atoms: C_20  and  C_21
REMARK    3  A    between atoms: C_21  and  O_22
REMARK    4  A    between atoms: C_21  and  C_24
REMARK    5  A    between atoms: C_24  and  O_25
REMARK    6  A    between atoms: C_24  and  C_27
REMARK    7  A    between atoms: C_27  and  O_28
REMARK    8  A    between atoms: C_27  and  C_30
REMARK    9  A    between atoms: C_30  and  O_31
REMARK                            x       y       z     vdW  Elec       q    Type
REMARK                         _______ _______ _______ _____ _____    ______ ____
ROOT
ATOM      1  O   UNL     1     -39.389  27.644   0.745  0.00  0.00    -0.267 OA
ATOM      2  O   UNL     1     -41.970  24.170  -0.848  0.00  0.00    -0.270 OA
ATOM      3  N   UNL     1     -38.464  23.197   2.300  0.00  0.00    -0.295 N 
ATOM      4  N   UNL     1     -38.031  26.010   2.325  0.00  0.00    -0.398 NA
ATOM      5  N   UNL     1     -40.702  25.922  -0.064  0.00  0.00    -0.246 N 
ATOM      6  C   UNL     1     -37.483  23.761   3.165  0.00  0.00    +0.148 C 
ATOM      7  C   UNL     1     -39.255  24.027   1.497  0.00  0.00    +0.088 C 
ATOM      8  C   UNL     1     -37.286  25.160   3.157  0.00  0.00    +0.131 C 
ATOM      9  C   UNL     1     -38.936  25.483   1.565  0.00  0.00    +0.198 C 
ATOM     10  C   UNL     1     -36.687  22.998   4.044  0.00  0.00    -0.004 C 
ATOM     11  C   UNL     1     -35.735  23.596   4.873  0.00  0.00    -0.028 C 
ATOM     12  C   UNL     1     -36.327  25.751   3.995  0.00  0.00    +0.025 C 
ATOM     13  C   UNL     1     -35.554  24.973   4.849  0.00  0.00    -0.024 C 
ATOM     14  C   UNL     1     -40.260  23.662   0.685  0.00  0.00    +0.075 C 
ATOM     15  C   UNL     1     -39.696  26.460   0.709  0.00  0.00    +0.283 C 
ATOM     16  C   UNL     1     -41.057  24.594  -0.142  0.00  0.00    +0.253 C 
ATOM     17  C   UNL     1     -34.922  22.732   5.782  0.00  0.00    +0.030 C 
ATOM     18  C   UNL     1     -34.544  25.636   5.726  0.00  0.00    +0.031 C 
ATOM     19  H   UNL     1     -41.219  26.551  -0.616  0.00  0.00    +0.158 HD
ENDROOT
BRANCH   3  20
ATOM     20  C   UNL     1     -38.586  21.737   2.328  0.00  0.00    +0.123 C 
BRANCH  20  21
ATOM     21  C   UNL     1     -37.959  21.135   1.064  0.00  0.00    +0.159 C 
BRANCH  21  22
ATOM     22  O   UNL     1     -38.917  20.276   0.445  0.00  0.00    -0.380 OA
ATOM     23  H   UNL     1     -38.461  19.656  -0.146  0.00  0.00    +0.211 HD
ENDBRANCH  21  22
BRANCH  21  24
ATOM     24  C   UNL     1     -36.676  20.334   1.363  0.00  0.00    +0.168 C 
BRANCH  24  25
ATOM     25  O   UNL     1     -36.748  19.784   2.678  0.00  0.00    -0.379 OA
ATOM     26  H   UNL     1     -36.500  20.461   3.325  0.00  0.00    +0.211 HD
ENDBRANCH  24  25
BRANCH  24  27
ATOM     27  C   UNL     1     -35.396  21.185   1.254  0.00  0.00    +0.169 C 
BRANCH  27  28
ATOM     28  O   UNL     1     -35.587  22.189   0.255  0.00  0.00    -0.379 OA
ATOM     29  H   UNL     1     -36.268  22.813   0.550  0.00  0.00    +0.211 HD
ENDBRANCH  27  28
BRANCH  27  30
ATOM     30  C   UNL     1     -34.175  20.350   0.875  0.00  0.00    +0.169 C 
BRANCH  30  31
ATOM     31  O   UNL     1     -34.253  19.093   1.539  0.00  0.00    -0.379 OA
ATOM     32  H   UNL     1     -34.630  19.217   2.424  0.00  0.00    +0.211 HD
ENDBRANCH  30  31
ENDBRANCH  27  30
ENDBRANCH  24  27
ENDBRANCH  21  24
ENDBRANCH  20  21
ENDBRANCH   3  20
TORSDOF 9
ENDMDL
MODEL 3
REMARK VINA RESULT:      -5.9      2.009      5.377
REMARK  Name = 194182
REMARK  9 active torsions:
REMARK  status: ('A' for Active; 'I' for Inactive)
REMARK    1  A    between atoms: N_3  and  C_20
REMARK    2  A    between atoms: C_20  and  C_21
REMARK    3  A    between atoms: C_21  and  O_22
REMARK    4  A    between atoms: C_21  and  C_24
REMARK    5  A    between atoms: C_24  and  O_25
REMARK    6  A    between atoms: C_24  and  C_27
REMARK    7  A    between atoms: C_27  and  O_28
REMARK    8  A    between atoms: C_27  and  C_30
REMARK    9  A    between atoms: C_30  and  O_31
REMARK                            x       y       z     vdW  Elec       q    Type
REMARK                         _______ _______ _______ _____ _____    ______ ____
ROOT
ATOM      1  O   UNL     1     -37.877  20.011  -0.572  0.00  0.00    -0.267 OA
ATOM      2  O   UNL     1     -34.323  19.617   2.338  0.00  0.00    -0.270 OA
ATOM      3  N   UNL     1     -37.472  23.194   2.999  0.00  0.00    -0.295 N 
ATOM      4  N   UNL     1     -38.850  22.072   0.776  0.00  0.00    -0.398 NA
ATOM      5  N   UNL     1     -36.090  19.787   0.876  0.00  0.00    -0.246 N 
ATOM      6  C   UNL     1     -38.710  23.751   2.571  0.00  0.00    +0.148 C 
ATOM      7  C   UNL     1     -36.952  22.061   2.361  0.00  0.00    +0.088 C 
ATOM      8  C   UNL     1     -39.374  23.177   1.464  0.00  0.00    +0.131 C 
ATOM      9  C   UNL     1     -37.737  21.562   1.194  0.00  0.00    +0.198 C 
ATOM     10  C   UNL     1     -39.326  24.855   3.197  0.00  0.00    -0.004 C 
ATOM     11  C   UNL     1     -40.542  25.369   2.740  0.00  0.00    -0.028 C 
ATOM     12  C   UNL     1     -40.595  23.702   1.013  0.00  0.00    +0.025 C 
ATOM     13  C   UNL     1     -41.178  24.793   1.648  0.00  0.00    -0.024 C 
ATOM     14  C   UNL     1     -35.841  21.379   2.684  0.00  0.00    +0.075 C 
ATOM     15  C   UNL     1     -37.244  20.377   0.409  0.00  0.00    +0.283 C 
ATOM     16  C   UNL     1     -35.345  20.187   1.963  0.00  0.00    +0.253 C 
ATOM     17  C   UNL     1     -41.143  26.542   3.445  0.00  0.00    +0.030 C 
ATOM     18  C   UNL     1     -42.478  25.323   1.141  0.00  0.00    +0.031 C 
ATOM     19  H   UNL     1     -35.765  19.000   0.383  0.00  0.00    +0.158 HD
ENDROOT
BRANCH   3  20
ATOM     20  C   UNL     1     -36.817  23.864   4.126  0.00  0.00    +0.123 C 
BRANCH  20  21
ATOM     21  C   UNL     1     -35.582  24.631   3.634  0.00  0.00    +0.159 C 
BRANCH  21  22
ATOM     22  O   UNL     1     -34.413  23.980   4.134  0.00  0.00    -0.380 OA
ATOM     23  H   UNL     1     -33.685  24.619   4.183  0.00  0.00    +0.211 HD
ENDBRANCH  21  22
BRANCH  21  24
ATOM     24  C   UNL     1     -35.580  26.104   4.088  0.00  0.00    +0.168 C 
BRANCH  24  25
ATOM     25  O   UNL     1     -36.840  26.429   4.673  0.00  0.00    -0.379 OA
ATOM     26  H   UNL     1     -36.697  26.948   5.479  0.00  0.00    +0.211 HD
ENDBRANCH  24  25
BRANCH  24  27
ATOM     27  C   UNL     1     -35.302  27.088   2.937  0.00  0.00    +0.169 C 
BRANCH  27  28
ATOM     28  O   UNL     1     -35.464  28.425   3.416  0.00  0.00    -0.379 OA
ATOM     29  H   UNL     1     -34.714  28.966   3.125  0.00  0.00    +0.211 HD
ENDBRANCH  27  28
BRANCH  27  30
ATOM     30  C   UNL     1     -36.246  26.880   1.754  0.00  0.00    +0.169 C 
BRANCH  30  31
ATOM     31  O   UNL     1     -37.503  27.474   2.060  0.00  0.00    -0.379 OA
ATOM     32  H   UNL     1     -37.369  28.230   2.652  0.00  0.00    +0.211 HD
ENDBRANCH  30  31
ENDBRANCH  27  30
ENDBRANCH  24  27
ENDBRANCH  21  24
ENDBRANCH  20  21
ENDBRANCH   3  20
TORSDOF 9
ENDMDL
MODEL 4
REMARK VINA RESULT:      -5.9      1.602      2.271
REMARK  Name = 194182
REMARK  9 active torsions:
REMARK  status: ('A' for Active; 'I' for Inactive)
REMARK    1  A    between atoms: N_3  and  C_20
REMARK    2  A    between atoms: C_20  and  C_21
REMARK    3  A    between atoms: C_21  and  O_22
REMARK    4  A    between atoms: C_21  and  C_24
REMARK    5  A    between atoms: C_24  and  O_25
REMARK    6  A    between atoms: C_24  and  C_27
REMARK    7  A    between atoms: C_27  and  O_28
REMARK    8  A    between atoms: C_27  and  C_30
REMARK    9  A    between atoms: C_30  and  O_31
REMARK                            x       y       z     vdW  Elec       q    Type
REMARK                         _______ _______ _______ _____ _____    ______ ____
ROOT
ATOM      1  O   UNL     1     -41.111  22.827   0.692  0.00  0.00    -0.267 OA
ATOM      2  O   UNL     1     -39.899  26.593   3.059  0.00  0.00    -0.270 OA
ATOM      3  N   UNL     1     -36.666  23.076   2.487  0.00  0.00    -0.295 N 
ATOM      4  N   UNL     1     -38.687  21.793   0.948  0.00  0.00    -0.398 NA
ATOM      5  N   UNL     1     -40.527  24.728   1.869  0.00  0.00    -0.246 N 
ATOM      6  C   UNL     1     -36.394  21.835   1.844  0.00  0.00    +0.148 C 
ATOM      7  C   UNL     1     -37.910  23.696   2.323  0.00  0.00    +0.088 C 
ATOM      8  C   UNL     1     -37.415  21.218   1.087  0.00  0.00    +0.131 C 
ATOM      9  C   UNL     1     -38.909  22.934   1.518  0.00  0.00    +0.198 C 
ATOM     10  C   UNL     1     -35.149  21.177   1.914  0.00  0.00    -0.004 C 
ATOM     11  C   UNL     1     -34.929  19.958   1.267  0.00  0.00    -0.028 C 
ATOM     12  C   UNL     1     -37.183  19.993   0.442  0.00  0.00    +0.025 C 
ATOM     13  C   UNL     1     -35.946  19.365   0.531  0.00  0.00    -0.024 C 
ATOM     14  C   UNL     1     -38.299  24.889   2.802  0.00  0.00    +0.075 C 
ATOM     15  C   UNL     1     -40.293  23.488   1.317  0.00  0.00    +0.283 C 
ATOM     16  C   UNL     1     -39.635  25.486   2.594  0.00  0.00    +0.253 C 
ATOM     17  C   UNL     1     -33.587  19.310   1.381  0.00  0.00    +0.030 C 
ATOM     18  C   UNL     1     -35.736  18.064  -0.170  0.00  0.00    +0.031 C 
ATOM     19  H   UNL     1     -41.423  25.111   1.730  0.00  0.00    +0.158 HD
ENDROOT
BRANCH   3  20
ATOM     20  C   UNL     1     -35.577  23.640   3.290  0.00  0.00    +0.123 C 
BRANCH  20  21
ATOM     21  C   UNL     1     -34.991  24.872   2.587  0.00  0.00    +0.159 C 
BRANCH  21  22
ATOM     22  O   UNL     1     -34.033  24.434   1.623  0.00  0.00    -0.380 OA
ATOM     23  H   UNL     1     -34.291  23.561   1.285  0.00  0.00    +0.211 HD
ENDBRANCH  21  22
BRANCH  21  24
ATOM     24  C   UNL     1     -34.316  25.849   3.569  0.00  0.00    +0.168 C 
BRANCH  24  25
ATOM     25  O   UNL     1     -32.931  25.528   3.690  0.00  0.00    -0.379 OA
ATOM     26  H   UNL     1     -32.462  25.813   2.891  0.00  0.00    +0.211 HD
ENDBRANCH  24  25
BRANCH  24  27
ATOM     27  C   UNL     1     -34.952  25.829   4.972  0.00  0.00    +0.169 C 
BRANCH  27  28
ATOM     28  O   UNL     1     -36.001  26.797   5.023  0.00  0.00    -0.379 OA
ATOM     29  H   UNL     1     -35.808  27.517   4.402  0.00  0.00    +0.211 HD
ENDBRANCH  27  28
BRANCH  27  30
ATOM     30  C   UNL     1     -33.942  26.151   6.072  0.00  0.00    +0.169 C 
BRANCH  30  31
ATOM     31  O   UNL     1     -33.280  27.369   5.745  0.00  0.00    -0.379 OA
ATOM     32  H   UNL     1     -33.711  28.106   6.204  0.00  0.00    +0.211 HD
ENDBRANCH  30  31
ENDBRANCH  27  30
ENDBRANCH  24  27
ENDBRANCH  21  24
ENDBRANCH  20  21
ENDBRANCH   3  20
TORSDOF 9
ENDMDL
MODEL 5
REMARK VINA RESULT:      -5.8      3.150      5.769
REMARK  Name = 194182
REMARK  9 active torsions:
REMARK  status: ('A' for Active; 'I' for Inactive)
REMARK    1  A    between atoms: N_3  and  C_20
REMARK    2  A    between atoms: C_20  and  C_21
REMARK    3  A    between atoms: C_21  and  O_22
REMARK    4  A    between atoms: C_21  and  C_24
REMARK    5  A    between atoms: C_24  and  O_25
REMARK    6  A    between atoms: C_24  and  C_27
REMARK    7  A    between atoms: C_27  and  O_28
REMARK    8  A    between atoms: C_27  and  C_30
REMARK    9  A    between atoms: C_30  and  O_31
REMARK                            x       y       z     vdW  Elec       q    Type
REMARK                         _______ _______ _______ _____ _____    ______ ____
ROOT
ATOM      1  O   UNL     1     -34.071  15.572  -1.354  0.00  0.00    -0.267 OA
ATOM      2  O   UNL     1     -31.242  17.793   1.531  0.00  0.00    -0.270 OA
ATOM      3  N   UNL     1     -35.533  19.733   0.542  0.00  0.00    -0.295 N 
ATOM      4  N   UNL     1     -35.960  17.398  -1.028  0.00  0.00    -0.398 NA
ATOM      5  N   UNL     1     -32.637  16.662   0.094  0.00  0.00    -0.246 N 
ATOM      6  C   UNL     1     -36.782  19.530  -0.111  0.00  0.00    +0.148 C 
ATOM      7  C   UNL     1     -34.528  18.762   0.456  0.00  0.00    +0.088 C 
ATOM      8  C   UNL     1     -36.969  18.363  -0.885  0.00  0.00    +0.131 C 
ATOM      9  C   UNL     1     -34.840  17.586  -0.408  0.00  0.00    +0.198 C 
ATOM     10  C   UNL     1     -37.862  20.433  -0.026  0.00  0.00    -0.004 C 
ATOM     11  C   UNL     1     -39.070  20.192  -0.686  0.00  0.00    -0.028 C 
ATOM     12  C   UNL     1     -38.186  18.131  -1.544  0.00  0.00    +0.025 C 
ATOM     13  C   UNL     1     -39.233  19.041  -1.445  0.00  0.00    -0.024 C 
ATOM     14  C   UNL     1     -33.330  18.770   1.062  0.00  0.00    +0.075 C 
ATOM     15  C   UNL     1     -33.813  16.505  -0.606  0.00  0.00    +0.283 C 
ATOM     16  C   UNL     1     -32.309  17.709   0.926  0.00  0.00    +0.253 C 
ATOM     17  C   UNL     1     -40.177  21.188  -0.557  0.00  0.00    +0.030 C 
ATOM     18  C   UNL     1     -40.514  18.759  -2.158  0.00  0.00    +0.031 C 
ATOM     19  H   UNL     1     -31.962  15.953  -0.012  0.00  0.00    +0.158 HD
ENDROOT
BRANCH   3  20
ATOM     20  C   UNL     1     -35.392  20.983   1.294  0.00  0.00    +0.123 C 
BRANCH  20  21
ATOM     21  C   UNL     1     -35.503  20.705   2.798  0.00  0.00    +0.159 C 
BRANCH  21  22
ATOM     22  O   UNL     1     -36.621  19.844   3.021  0.00  0.00    -0.380 OA
ATOM     23  H   UNL     1     -37.441  20.322   2.820  0.00  0.00    +0.211 HD
ENDBRANCH  21  22
BRANCH  21  24
ATOM     24  C   UNL     1     -35.679  21.992   3.628  0.00  0.00    +0.168 C 
BRANCH  24  25
ATOM     25  O   UNL     1     -35.098  23.095   2.933  0.00  0.00    -0.379 OA
ATOM     26  H   UNL     1     -35.152  22.939   1.977  0.00  0.00    +0.211 HD
ENDBRANCH  24  25
BRANCH  24  27
ATOM     27  C   UNL     1     -35.040  21.899   5.026  0.00  0.00    +0.169 C 
BRANCH  27  28
ATOM     28  O   UNL     1     -35.386  20.643   5.615  0.00  0.00    -0.379 OA
ATOM     29  H   UNL     1     -34.741  19.971   5.343  0.00  0.00    +0.211 HD
ENDBRANCH  27  28
BRANCH  27  30
ATOM     30  C   UNL     1     -35.513  23.015   5.956  0.00  0.00    +0.169 C 
BRANCH  30  31
ATOM     31  O   UNL     1     -34.878  24.231   5.573  0.00  0.00    -0.379 OA
ATOM     32  H   UNL     1     -34.718  24.775   6.360  0.00  0.00    +0.211 HD
ENDBRANCH  30  31
ENDBRANCH  27  30
ENDBRANCH  24  27
ENDBRANCH  21  24
ENDBRANCH  20  21
ENDBRANCH   3  20
TORSDOF 9
ENDMDL
MODEL 6
REMARK VINA RESULT:      -5.7      3.357      5.489
REMARK  Name = 194182
REMARK  9 active torsions:
REMARK  status: ('A' for Active; 'I' for Inactive)
REMARK    1  A    between atoms: N_3  and  C_20
REMARK    2  A    between atoms: C_20  and  C_21
REMARK    3  A    between atoms: C_21  and  O_22
REMARK    4  A    between atoms: C_21  and  C_24
REMARK    5  A    between atoms: C_24  and  O_25
REMARK    6  A    between atoms: C_24  and  C_27
REMARK    7  A    between atoms: C_27  and  O_28
REMARK    8  A    between atoms: C_27  and  C_30
REMARK    9  A    between atoms: C_30  and  O_31
REMARK                            x       y       z     vdW  Elec       q    Type
REMARK                         _______ _______ _______ _____ _____    ______ ____
ROOT
ATOM      1  O   UNL     1     -33.920  14.871  -0.663  0.00  0.00    -0.267 OA
ATOM      2  O   UNL     1     -38.446  15.479  -0.026  0.00  0.00    -0.270 OA
ATOM      3  N   UNL     1     -35.569  19.335  -0.034  0.00  0.00    -0.295 N 
ATOM      4  N   UNL     1     -33.482  17.481  -0.585  0.00  0.00    -0.398 NA
ATOM      5  N   UNL     1     -36.194  15.148  -0.352  0.00  0.00    -0.246 N 
ATOM      6  C   UNL     1     -34.242  19.800  -0.258  0.00  0.00    +0.148 C 
ATOM      7  C   UNL     1     -35.863  17.970  -0.133  0.00  0.00    +0.088 C 
ATOM      8  C   UNL     1     -33.223  18.859  -0.529  0.00  0.00    +0.131 C 
ATOM      9  C   UNL     1     -34.698  17.078  -0.404  0.00  0.00    +0.198 C 
ATOM     10  C   UNL     1     -33.878  21.162  -0.231  0.00  0.00    -0.004 C 
ATOM     11  C   UNL     1     -32.560  21.571  -0.456  0.00  0.00    -0.028 C 
ATOM     12  C   UNL     1     -31.904  19.281  -0.753  0.00  0.00    +0.025 C 
ATOM     13  C   UNL     1     -31.572  20.631  -0.717  0.00  0.00    -0.024 C 
ATOM     14  C   UNL     1     -37.065  17.383  -0.018  0.00  0.00    +0.075 C 
ATOM     15  C   UNL     1     -34.895  15.589  -0.486  0.00  0.00    +0.283 C 
ATOM     16  C   UNL     1     -37.307  15.928  -0.132  0.00  0.00    +0.253 C 
ATOM     17  C   UNL     1     -32.238  23.029  -0.413  0.00  0.00    +0.030 C 
ATOM     18  C   UNL     1     -30.158  21.042  -0.962  0.00  0.00    +0.031 C 
ATOM     19  H   UNL     1     -36.340  14.178  -0.422  0.00  0.00    +0.158 HD
ENDROOT
BRANCH   3  20
ATOM     20  C   UNL     1     -36.567  20.360   0.283  0.00  0.00    +0.123 C 
BRANCH  20  21
ATOM     21  C   UNL     1     -36.432  20.788   1.750  0.00  0.00    +0.159 C 
BRANCH  21  22
ATOM     22  O   UNL     1     -37.052  19.799   2.572  0.00  0.00    -0.380 OA
ATOM     23  H   UNL     1     -37.623  20.234   3.226  0.00  0.00    +0.211 HD
ENDBRANCH  21  22
BRANCH  21  24
ATOM     24  C   UNL     1     -37.077  22.160   2.029  0.00  0.00    +0.168 C 
BRANCH  24  25
ATOM     25  O   UNL     1     -37.406  22.264   3.414  0.00  0.00    -0.379 OA
ATOM     26  H   UNL     1     -36.846  21.660   3.925  0.00  0.00    +0.211 HD
ENDBRANCH  24  25
BRANCH  24  27
ATOM     27  C   UNL     1     -38.351  22.407   1.200  0.00  0.00    +0.169 C 
BRANCH  27  28
ATOM     28  O   UNL     1     -38.277  23.703   0.604  0.00  0.00    -0.379 OA
ATOM     29  H   UNL     1     -38.057  23.615  -0.336  0.00  0.00    +0.211 HD
ENDBRANCH  27  28
BRANCH  27  30
ATOM     30  C   UNL     1     -39.619  22.335   2.048  0.00  0.00    +0.169 C 
BRANCH  30  31
ATOM     31  O   UNL     1     -39.981  20.968   2.218  0.00  0.00    -0.379 OA
ATOM     32  H   UNL     1     -39.181  20.432   2.331  0.00  0.00    +0.211 HD
ENDBRANCH  30  31
ENDBRANCH  27  30
ENDBRANCH  24  27
ENDBRANCH  21  24
ENDBRANCH  20  21
ENDBRANCH   3  20
TORSDOF 9
ENDMDL
MODEL 7
REMARK VINA RESULT:      -5.6      2.870      4.780
REMARK  Name = 194182
REMARK  9 active torsions:
REMARK  status: ('A' for Active; 'I' for Inactive)
REMARK    1  A    between atoms: N_3  and  C_20
REMARK    2  A    between atoms: C_20  and  C_21
REMARK    3  A    between atoms: C_21  and  O_22
REMARK    4  A    between atoms: C_21  and  C_24
REMARK    5  A    between atoms: C_24  and  O_25
REMARK    6  A    between atoms: C_24  and  C_27
REMARK    7  A    between atoms: C_27  and  O_28
REMARK    8  A    between atoms: C_27  and  C_30
REMARK    9  A    between atoms: C_30  and  O_31
REMARK                            x       y       z     vdW  Elec       q    Type
REMARK                         _______ _______ _______ _____ _____    ______ ____
ROOT
ATOM      1  O   UNL     1     -37.549  14.163  -1.495  0.00  0.00    -0.267 OA
ATOM      2  O   UNL     1     -40.441  17.746  -1.253  0.00  0.00    -0.270 OA
ATOM      3  N   UNL     1     -35.823  18.413  -0.080  0.00  0.00    -0.295 N 
ATOM      4  N   UNL     1     -35.494  15.677  -0.791  0.00  0.00    -0.398 NA
ATOM      5  N   UNL     1     -39.018  15.944  -1.389  0.00  0.00    -0.246 N 
ATOM      6  C   UNL     1     -34.530  17.816  -0.045  0.00  0.00    +0.148 C 
ATOM      7  C   UNL     1     -36.929  17.672  -0.513  0.00  0.00    +0.088 C 
ATOM      8  C   UNL     1     -34.394  16.456  -0.401  0.00  0.00    +0.131 C 
ATOM      9  C   UNL     1     -36.657  16.242  -0.842  0.00  0.00    +0.198 C 
ATOM     10  C   UNL     1     -33.360  18.511   0.325  0.00  0.00    -0.004 C 
ATOM     11  C   UNL     1     -32.112  17.883   0.346  0.00  0.00    -0.028 C 
ATOM     12  C   UNL     1     -33.136  15.834  -0.376  0.00  0.00    +0.025 C 
ATOM     13  C   UNL     1     -31.999  16.543  -0.004  0.00  0.00    -0.024 C 
ATOM     14  C   UNL     1     -38.191  18.102  -0.667  0.00  0.00    +0.075 C 
ATOM     15  C   UNL     1     -37.783  15.343  -1.274  0.00  0.00    +0.283 C 
ATOM     16  C   UNL     1     -39.318  17.262  -1.128  0.00  0.00    +0.253 C 
ATOM     17  C   UNL     1     -30.910  18.674   0.748  0.00  0.00    +0.030 C 
ATOM     18  C   UNL     1     -30.677  15.849   0.009  0.00  0.00    +0.031 C 
ATOM     19  H   UNL     1     -39.761  15.372  -1.688  0.00  0.00    +0.158 HD
ENDROOT
BRANCH   3  20
ATOM     20  C   UNL     1     -35.899  19.814   0.342  0.00  0.00    +0.123 C 
BRANCH  20  21
ATOM     21  C   UNL     1     -36.213  19.894   1.841  0.00  0.00    +0.159 C 
BRANCH  21  22
ATOM     22  O   UNL     1     -37.586  20.254   2.000  0.00  0.00    -0.380 OA
ATOM     23  H   UNL     1     -38.143  19.621   1.520  0.00  0.00    +0.211 HD
ENDBRANCH  21  22
BRANCH  21  24
ATOM     24  C   UNL     1     -35.329  20.919   2.579  0.00  0.00    +0.168 C 
BRANCH  24  25
ATOM     25  O   UNL     1     -35.509  20.784   3.988  0.00  0.00    -0.379 OA
ATOM     26  H   UNL     1     -34.687  20.463   4.390  0.00  0.00    +0.211 HD
ENDBRANCH  24  25
BRANCH  24  27
ATOM     27  C   UNL     1     -35.634  22.375   2.180  0.00  0.00    +0.169 C 
BRANCH  27  28
ATOM     28  O   UNL     1     -34.438  22.987   1.693  0.00  0.00    -0.379 OA
ATOM     29  H   UNL     1     -33.814  23.104   2.426  0.00  0.00    +0.211 HD
ENDBRANCH  27  28
BRANCH  27  30
ATOM     30  C   UNL     1     -36.157  23.201   3.354  0.00  0.00    +0.169 C 
BRANCH  30  31
ATOM     31  O   UNL     1     -37.427  22.689   3.747  0.00  0.00    -0.379 OA
ATOM     32  H   UNL     1     -37.495  22.697   4.714  0.00  0.00    +0.211 HD
ENDBRANCH  30  31
ENDBRANCH  27  30
ENDBRANCH  24  27
ENDBRANCH  21  24
ENDBRANCH  20  21
ENDBRANCH   3  20
TORSDOF 9
ENDMDL
MODEL 8
REMARK VINA RESULT:      -5.6      4.114      7.143
REMARK  Name = 194182
REMARK  9 active torsions:
REMARK  status: ('A' for Active; 'I' for Inactive)
REMARK    1  A    between atoms: N_3  and  C_20
REMARK    2  A    between atoms: C_20  and  C_21
REMARK    3  A    between atoms: C_21  and  O_22
REMARK    4  A    between atoms: C_21  and  C_24
REMARK    5  A    between atoms: C_24  and  O_25
REMARK    6  A    between atoms: C_24  and  C_27
REMARK    7  A    between atoms: C_27  and  O_28
REMARK    8  A    between atoms: C_27  and  C_30
REMARK    9  A    between atoms: C_30  and  O_31
REMARK                            x       y       z     vdW  Elec       q    Type
REMARK                         _______ _______ _______ _____ _____    ______ ____
ROOT
ATOM      1  O   UNL     1     -37.836  22.865   2.744  0.00  0.00    -0.267 OA
ATOM      2  O   UNL     1     -34.848  22.160   6.184  0.00  0.00    -0.270 OA
ATOM      3  N   UNL     1     -34.761  26.376   3.867  0.00  0.00    -0.295 N 
ATOM      4  N   UNL     1     -36.961  25.339   2.390  0.00  0.00    -0.398 NA
ATOM      5  N   UNL     1     -36.353  22.488   4.477  0.00  0.00    -0.246 N 
ATOM      6  C   UNL     1     -35.412  27.185   2.893  0.00  0.00    +0.148 C 
ATOM      7  C   UNL     1     -35.232  25.086   4.139  0.00  0.00    +0.088 C 
ATOM      8  C   UNL     1     -36.501  26.646   2.172  0.00  0.00    +0.131 C 
ATOM      9  C   UNL     1     -36.375  24.626   3.297  0.00  0.00    +0.198 C 
ATOM     10  C   UNL     1     -35.033  28.512   2.602  0.00  0.00    -0.004 C 
ATOM     11  C   UNL     1     -35.701  29.268   1.635  0.00  0.00    -0.028 C 
ATOM     12  C   UNL     1     -37.164  27.414   1.202  0.00  0.00    +0.025 C 
ATOM     13  C   UNL     1     -36.767  28.719   0.934  0.00  0.00    -0.024 C 
ATOM     14  C   UNL     1     -34.777  24.229   5.067  0.00  0.00    +0.075 C 
ATOM     15  C   UNL     1     -36.930  23.240   3.476  0.00  0.00    +0.283 C 
ATOM     16  C   UNL     1     -35.320  22.873   5.301  0.00  0.00    +0.253 C 
ATOM     17  C   UNL     1     -35.251  30.668   1.373  0.00  0.00    +0.030 C 
ATOM     18  C   UNL     1     -37.498  29.506  -0.103  0.00  0.00    +0.031 C 
ATOM     19  H   UNL     1     -36.718  21.585   4.617  0.00  0.00    +0.158 HD
ENDROOT
BRANCH   3  20
ATOM     20  C   UNL     1     -33.613  26.982   4.548  0.00  0.00    +0.123 C 
BRANCH  20  21
ATOM     21  C   UNL     1     -32.530  27.347   3.524  0.00  0.00    +0.159 C 
BRANCH  21  22
ATOM     22  O   UNL     1     -31.818  26.161   3.173  0.00  0.00    -0.380 OA
ATOM     23  H   UNL     1     -31.886  26.015   2.216  0.00  0.00    +0.211 HD
ENDBRANCH  21  22
BRANCH  21  24
ATOM     24  C   UNL     1     -31.537  28.397   4.061  0.00  0.00    +0.168 C 
BRANCH  24  25
ATOM     25  O   UNL     1     -30.504  27.748   4.800  0.00  0.00    -0.379 OA
ATOM     26  H   UNL     1     -30.215  26.955   4.324  0.00  0.00    +0.211 HD
ENDBRANCH  24  25
BRANCH  24  27
ATOM     27  C   UNL     1     -32.205  29.450   4.966  0.00  0.00    +0.169 C 
BRANCH  27  28
ATOM     28  O   UNL     1     -32.199  30.713   4.298  0.00  0.00    -0.379 OA
ATOM     29  H   UNL     1     -31.473  30.734   3.655  0.00  0.00    +0.211 HD
ENDBRANCH  27  28
BRANCH  27  30
ATOM     30  C   UNL     1     -31.485  29.606   6.304  0.00  0.00    +0.169 C 
BRANCH  30  31
ATOM     31  O   UNL     1     -31.898  28.557   7.174  0.00  0.00    -0.379 OA
ATOM     32  H   UNL     1     -31.686  28.793   8.091  0.00  0.00    +0.211 HD
ENDBRANCH  30  31
ENDBRANCH  27  30
ENDBRANCH  24  27
ENDBRANCH  21  24
ENDBRANCH  20  21
ENDBRANCH   3  20
TORSDOF 9
ENDMDL
MODEL 9
REMARK VINA RESULT:      -5.6      4.533      7.837
REMARK  Name = 194182
REMARK  9 active torsions:
REMARK  status: ('A' for Active; 'I' for Inactive)
REMARK    1  A    between atoms: N_3  and  C_20
REMARK    2  A    between atoms: C_20  and  C_21
REMARK    3  A    between atoms: C_21  and  O_22
REMARK    4  A    between atoms: C_21  and  C_24
REMARK    5  A    between atoms: C_24  and  O_25
REMARK    6  A    between atoms: C_24  and  C_27
REMARK    7  A    between atoms: C_27  and  O_28
REMARK    8  A    between atoms: C_27  and  C_30
REMARK    9  A    between atoms: C_30  and  O_31
REMARK                            x       y       z     vdW  Elec       q    Type
REMARK                         _______ _______ _______ _____ _____    ______ ____
ROOT
ATOM      1  O   UNL     1     -31.639  27.927   6.750  0.00  0.00    -0.267 OA
ATOM      2  O   UNL     1     -32.288  31.088   3.457  0.00  0.00    -0.270 OA
ATOM      3  N   UNL     1     -34.512  26.840   3.061  0.00  0.00    -0.295 N 
ATOM      4  N   UNL     1     -33.313  26.246   5.572  0.00  0.00    -0.398 NA
ATOM      5  N   UNL     1     -31.953  29.531   5.116  0.00  0.00    -0.246 N 
ATOM      6  C   UNL     1     -34.790  25.604   3.711  0.00  0.00    +0.148 C 
ATOM      7  C   UNL     1     -33.688  27.789   3.676  0.00  0.00    +0.088 C 
ATOM      8  C   UNL     1     -34.181  25.333   4.956  0.00  0.00    +0.131 C 
ATOM      9  C   UNL     1     -33.091  27.375   4.980  0.00  0.00    +0.198 C 
ATOM     10  C   UNL     1     -35.653  24.621   3.182  0.00  0.00    -0.004 C 
ATOM     11  C   UNL     1     -35.895  23.422   3.856  0.00  0.00    -0.028 C 
ATOM     12  C   UNL     1     -34.431  24.124   5.625  0.00  0.00    +0.025 C 
ATOM     13  C   UNL     1     -35.284  23.172   5.078  0.00  0.00    -0.024 C 
ATOM     14  C   UNL     1     -33.384  29.019   3.232  0.00  0.00    +0.075 C 
ATOM     15  C   UNL     1     -32.155  28.302   5.706  0.00  0.00    +0.283 C 
ATOM     16  C   UNL     1     -32.501  29.975   3.934  0.00  0.00    +0.253 C 
ATOM     17  C   UNL     1     -36.819  22.420   3.242  0.00  0.00    +0.030 C 
ATOM     18  C   UNL     1     -35.528  21.899   5.819  0.00  0.00    +0.031 C 
ATOM     19  H   UNL     1     -31.356  30.155   5.589  0.00  0.00    +0.158 HD
ENDROOT
BRANCH   3  20
ATOM     20  C   UNL     1     -35.143  27.038   1.753  0.00  0.00    +0.123 C 
BRANCH  20  21
ATOM     21  C   UNL     1     -36.275  28.067   1.868  0.00  0.00    +0.159 C 
BRANCH  21  22
ATOM     22  O   UNL     1     -37.523  27.375   1.847  0.00  0.00    -0.380 OA
ATOM     23  H   UNL     1     -37.940  27.487   0.978  0.00  0.00    +0.211 HD
ENDBRANCH  21  22
BRANCH  21  24
ATOM     24  C   UNL     1     -36.249  29.107   0.730  0.00  0.00    +0.168 C 
BRANCH  24  25
ATOM     25  O   UNL     1     -35.053  28.954  -0.034  0.00  0.00    -0.379 OA
ATOM     26  H   UNL     1     -35.027  29.627  -0.731  0.00  0.00    +0.211 HD
ENDBRANCH  24  25
BRANCH  24  27
ATOM     27  C   UNL     1     -36.328  30.558   1.238  0.00  0.00    +0.169 C 
BRANCH  27  28
ATOM     28  O   UNL     1     -37.676  31.020   1.125  0.00  0.00    -0.379 OA
ATOM     29  H   UNL     1     -38.095  31.011   1.999  0.00  0.00    +0.211 HD
ENDBRANCH  27  28
BRANCH  27  30
ATOM     30  C   UNL     1     -35.425  31.501   0.445  0.00  0.00    +0.169 C 
BRANCH  30  31
ATOM     31  O   UNL     1     -34.175  31.614   1.118  0.00  0.00    -0.379 OA
ATOM     32  H   UNL     1     -33.455  31.600   0.468  0.00  0.00    +0.211 HD
ENDBRANCH  30  31
ENDBRANCH  27  30
ENDBRANCH  24  27
ENDBRANCH  21  24
ENDBRANCH  20  21
ENDBRANCH   3  20
TORSDOF 9
ENDMDL
