MODEL 1
REMARK VINA RESULT:      -6.7      0.000      0.000
REMARK  Name = 195328
REMARK  7 active torsions:
REMARK  status: ('A' for Active; 'I' for Inactive)
REMARK    1  A    between atoms: C_2  and  C_11
REMARK    2  A    between atoms: C_6  and  C_26
REMARK    3  A    between atoms: C_9  and  O_21
REMARK    4  A    between atoms: C_10  and  O_23
REMARK    5  A    between atoms: C_14  and  O_17
REMARK    6  A    between atoms: C_16  and  O_19
REMARK    7  A    between atoms: C_26  and  O_27
REMARK                            x       y       z     vdW  Elec       q    Type
REMARK                         _______ _______ _______ _____ _____    ______ ____
ROOT
ATOM      1  C   UNL     1     -37.560  23.830   2.965  0.00  0.00    +0.003 C 
ATOM      2  C   UNL     1     -36.230  23.556   3.322  0.00  0.00    +0.000 C 
ATOM      3  C   UNL     1     -38.304  22.850   2.264  0.00  0.00    +0.003 C 
ATOM      4  C   UNL     1     -35.642  22.333   2.993  0.00  0.00    +0.006 C 
ATOM      5  C   UNL     1     -37.696  21.626   1.941  0.00  0.00    +0.007 C 
ATOM      6  C   UNL     1     -36.373  21.371   2.304  0.00  0.00    +0.075 C 
ATOM      7  C   UNL     1     -38.169  25.053   3.287  0.00  0.00    +0.040 C 
ATOM      8  C   UNL     1     -39.635  23.124   1.907  0.00  0.00    +0.040 C 
ATOM      9  C   UNL     1     -39.491  25.309   2.924  0.00  0.00    +0.167 C 
ATOM     10  C   UNL     1     -40.223  24.346   2.236  0.00  0.00    +0.167 C 
ENDROOT
BRANCH   2  11
ATOM     11  C   UNL     1     -35.404  24.512   4.042  0.00  0.00    +0.003 C 
ATOM     12  C   UNL     1     -34.338  25.127   3.394  0.00  0.00    +0.040 C 
ATOM     13  C   UNL     1     -35.687  24.805   5.372  0.00  0.00    +0.003 C 
ATOM     14  C   UNL     1     -33.545  26.044   4.085  0.00  0.00    +0.167 C 
ATOM     15  C   UNL     1     -34.895  25.722   6.062  0.00  0.00    +0.040 C 
ATOM     16  C   UNL     1     -33.824  26.342   5.419  0.00  0.00    +0.167 C 
BRANCH  14  17
ATOM     17  O   UNL     1     -32.502  26.644   3.446  0.00  0.00    -0.503 OA
ATOM     18  H   UNL     1     -32.431  26.592   2.513  0.00  0.00    +0.292 HD
ENDBRANCH  14  17
BRANCH  16  19
ATOM     19  O   UNL     1     -33.058  27.235   6.105  0.00  0.00    -0.503 OA
ATOM     20  H   UNL     1     -32.839  27.074   7.002  0.00  0.00    +0.292 HD
ENDBRANCH  16  19
ENDBRANCH   2  11
BRANCH   9  21
ATOM     21  O   UNL     1     -40.056  26.505   3.250  0.00  0.00    -0.503 OA
ATOM     22  H   UNL     1     -39.539  27.287   3.235  0.00  0.00    +0.292 HD
ENDBRANCH   9  21
BRANCH  10  23
ATOM     23  O   UNL     1     -41.515  24.585   1.877  0.00  0.00    -0.503 OA
ATOM     24  H   UNL     1     -41.805  25.464   1.730  0.00  0.00    +0.292 HD
ENDBRANCH  10  23
BRANCH   6  26
ATOM     25  O   UNL     1     -34.552  19.844   2.028  0.00  0.00    -0.245 OA
ATOM     26  C   UNL     1     -35.760  20.099   1.962  0.00  0.00    +0.338 C 
BRANCH  26  27
ATOM     27  O   UNL     1     -36.671  19.176   1.547  0.00  0.00    -0.477 OA
ATOM     28  H   UNL     1     -37.417  18.982   2.079  0.00  0.00    +0.295 HD
ENDBRANCH  26  27
ENDBRANCH   6  26
TORSDOF 7
ENDMDL
MODEL 2
REMARK VINA RESULT:      -6.6      0.645      4.377
REMARK  Name = 195328
REMARK  7 active torsions:
REMARK  status: ('A' for Active; 'I' for Inactive)
REMARK    1  A    between atoms: C_2  and  C_11
REMARK    2  A    between atoms: C_6  and  C_26
REMARK    3  A    between atoms: C_9  and  O_21
REMARK    4  A    between atoms: C_10  and  O_23
REMARK    5  A    between atoms: C_14  and  O_17
REMARK    6  A    between atoms: C_16  and  O_19
REMARK    7  A    between atoms: C_26  and  O_27
REMARK                            x       y       z     vdW  Elec       q    Type
REMARK                         _______ _______ _______ _____ _____    ______ ____
ROOT
ATOM      1  C   UNL     1     -37.008  23.170   2.974  0.00  0.00    +0.003 C 
ATOM      2  C   UNL     1     -37.017  24.488   3.457  0.00  0.00    +0.000 C 
ATOM      3  C   UNL     1     -38.174  22.650   2.362  0.00  0.00    +0.003 C 
ATOM      4  C   UNL     1     -38.158  25.283   3.338  0.00  0.00    +0.006 C 
ATOM      5  C   UNL     1     -39.313  23.464   2.251  0.00  0.00    +0.007 C 
ATOM      6  C   UNL     1     -39.304  24.772   2.737  0.00  0.00    +0.075 C 
ATOM      7  C   UNL     1     -35.869  22.356   3.084  0.00  0.00    +0.040 C 
ATOM      8  C   UNL     1     -38.165  21.331   1.878  0.00  0.00    +0.040 C 
ATOM      9  C   UNL     1     -35.879  21.048   2.599  0.00  0.00    +0.167 C 
ATOM     10  C   UNL     1     -37.025  20.537   1.996  0.00  0.00    +0.167 C 
ENDROOT
BRANCH   2  11
ATOM     11  C   UNL     1     -35.858  25.090   4.097  0.00  0.00    +0.003 C 
ATOM     12  C   UNL     1     -34.743  25.421   3.334  0.00  0.00    +0.040 C 
ATOM     13  C   UNL     1     -35.873  25.331   5.467  0.00  0.00    +0.003 C 
ATOM     14  C   UNL     1     -33.631  25.999   3.947  0.00  0.00    +0.167 C 
ATOM     15  C   UNL     1     -34.761  25.908   6.080  0.00  0.00    +0.040 C 
ATOM     16  C   UNL     1     -33.640  26.242   5.321  0.00  0.00    +0.167 C 
BRANCH  14  17
ATOM     17  O   UNL     1     -32.542  26.321   3.195  0.00  0.00    -0.503 OA
ATOM     18  H   UNL     1     -32.322  25.806   2.444  0.00  0.00    +0.292 HD
ENDBRANCH  14  17
BRANCH  16  19
ATOM     19  O   UNL     1     -32.561  26.805   5.932  0.00  0.00    -0.503 OA
ATOM     20  H   UNL     1     -32.678  27.534   6.510  0.00  0.00    +0.292 HD
ENDBRANCH  16  19
ENDBRANCH   2  11
BRANCH   9  21
ATOM     21  O   UNL     1     -34.759  20.281   2.720  0.00  0.00    -0.503 OA
ATOM     22  H   UNL     1     -34.822  19.413   3.070  0.00  0.00    +0.292 HD
ENDBRANCH   9  21
BRANCH  10  23
ATOM     23  O   UNL     1     -37.045  19.261   1.519  0.00  0.00    -0.503 OA
ATOM     24  H   UNL     1     -37.566  19.050   0.770  0.00  0.00    +0.292 HD
ENDBRANCH  10  23
BRANCH   6  26
ATOM     25  O   UNL     1     -41.409  25.422   1.805  0.00  0.00    -0.245 OA
ATOM     26  C   UNL     1     -40.492  25.600   2.614  0.00  0.00    +0.338 C 
BRANCH  26  27
ATOM     27  O   UNL     1     -40.504  26.628   3.506  0.00  0.00    -0.477 OA
ATOM     28  H   UNL     1     -39.842  27.290   3.467  0.00  0.00    +0.295 HD
ENDBRANCH  26  27
ENDBRANCH   6  26
TORSDOF 7
ENDMDL
MODEL 3
REMARK VINA RESULT:      -6.4      2.118      5.530
REMARK  Name = 195328
REMARK  7 active torsions:
REMARK  status: ('A' for Active; 'I' for Inactive)
REMARK    1  A    between atoms: C_2  and  C_11
REMARK    2  A    between atoms: C_6  and  C_26
REMARK    3  A    between atoms: C_9  and  O_21
REMARK    4  A    between atoms: C_10  and  O_23
REMARK    5  A    between atoms: C_14  and  O_17
REMARK    6  A    between atoms: C_16  and  O_19
REMARK    7  A    between atoms: C_26  and  O_27
REMARK                            x       y       z     vdW  Elec       q    Type
REMARK                         _______ _______ _______ _____ _____    ______ ____
ROOT
ATOM      1  C   UNL     1     -36.041  23.382   2.730  0.00  0.00    +0.003 C 
ATOM      2  C   UNL     1     -36.161  22.275   1.875  0.00  0.00    +0.000 C 
ATOM      3  C   UNL     1     -37.212  24.028   3.195  0.00  0.00    +0.003 C 
ATOM      4  C   UNL     1     -37.417  21.809   1.485  0.00  0.00    +0.006 C 
ATOM      5  C   UNL     1     -38.468  23.546   2.791  0.00  0.00    +0.007 C 
ATOM      6  C   UNL     1     -38.568  22.444   1.942  0.00  0.00    +0.075 C 
ATOM      7  C   UNL     1     -34.786  23.864   3.134  0.00  0.00    +0.040 C 
ATOM      8  C   UNL     1     -37.092  25.136   4.050  0.00  0.00    +0.040 C 
ATOM      9  C   UNL     1     -34.685  24.967   3.982  0.00  0.00    +0.167 C 
ATOM     10  C   UNL     1     -35.836  25.601   4.441  0.00  0.00    +0.167 C 
ENDROOT
BRANCH   2  11
ATOM     11  C   UNL     1     -35.004  21.562   1.358  0.00  0.00    +0.003 C 
ATOM     12  C   UNL     1     -34.747  20.263   1.785  0.00  0.00    +0.040 C 
ATOM     13  C   UNL     1     -34.163  22.183   0.441  0.00  0.00    +0.003 C 
ATOM     14  C   UNL     1     -33.637  19.579   1.289  0.00  0.00    +0.167 C 
ATOM     15  C   UNL     1     -33.053  21.499  -0.055  0.00  0.00    +0.040 C 
ATOM     16  C   UNL     1     -32.790  20.197   0.369  0.00  0.00    +0.167 C 
BRANCH  14  17
ATOM     17  O   UNL     1     -33.389  18.307   1.710  0.00  0.00    -0.503 OA
ATOM     18  H   UNL     1     -33.737  18.008   2.527  0.00  0.00    +0.292 HD
ENDBRANCH  14  17
BRANCH  16  19
ATOM     19  O   UNL     1     -31.703  19.540  -0.123  0.00  0.00    -0.503 OA
ATOM     20  H   UNL     1     -30.845  19.897  -0.001  0.00  0.00    +0.292 HD
ENDBRANCH  16  19
ENDBRANCH   2  11
BRANCH   9  21
ATOM     21  O   UNL     1     -33.453  25.413   4.358  0.00  0.00    -0.503 OA
ATOM     22  H   UNL     1     -33.215  26.308   4.212  0.00  0.00    +0.292 HD
ENDBRANCH   9  21
BRANCH  10  23
ATOM     23  O   UNL     1     -35.749  26.678   5.270  0.00  0.00    -0.503 OA
ATOM     24  H   UNL     1     -35.517  26.558   6.170  0.00  0.00    +0.292 HD
ENDBRANCH  10  23
BRANCH   6  26
ATOM     25  O   UNL     1     -40.572  22.441   0.634  0.00  0.00    -0.245 OA
ATOM     26  C   UNL     1     -39.877  21.958   1.534  0.00  0.00    +0.338 C 
BRANCH  26  27
ATOM     27  O   UNL     1     -40.283  20.882   2.263  0.00  0.00    -0.477 OA
ATOM     28  H   UNL     1     -39.649  20.331   2.677  0.00  0.00    +0.295 HD
ENDBRANCH  26  27
ENDBRANCH   6  26
TORSDOF 7
ENDMDL
MODEL 4
REMARK VINA RESULT:      -6.3      1.851      2.593
REMARK  Name = 195328
REMARK  7 active torsions:
REMARK  status: ('A' for Active; 'I' for Inactive)
REMARK    1  A    between atoms: C_2  and  C_11
REMARK    2  A    between atoms: C_6  and  C_26
REMARK    3  A    between atoms: C_9  and  O_21
REMARK    4  A    between atoms: C_10  and  O_23
REMARK    5  A    between atoms: C_14  and  O_17
REMARK    6  A    between atoms: C_16  and  O_19
REMARK    7  A    between atoms: C_26  and  O_27
REMARK                            x       y       z     vdW  Elec       q    Type
REMARK                         _______ _______ _______ _____ _____    ______ ____
ROOT
ATOM      1  C   UNL     1     -37.039  21.537   1.947  0.00  0.00    +0.003 C 
ATOM      2  C   UNL     1     -35.745  21.667   2.476  0.00  0.00    +0.000 C 
ATOM      3  C   UNL     1     -37.315  20.480   1.046  0.00  0.00    +0.003 C 
ATOM      4  C   UNL     1     -34.737  20.768   2.124  0.00  0.00    +0.006 C 
ATOM      5  C   UNL     1     -36.288  19.585   0.703  0.00  0.00    +0.007 C 
ATOM      6  C   UNL     1     -35.008  19.730   1.239  0.00  0.00    +0.075 C 
ATOM      7  C   UNL     1     -38.066  22.431   2.290  0.00  0.00    +0.040 C 
ATOM      8  C   UNL     1     -38.609  20.349   0.516  0.00  0.00    +0.040 C 
ATOM      9  C   UNL     1     -39.345  22.287   1.753  0.00  0.00    +0.167 C 
ATOM     10  C   UNL     1     -39.617  21.247   0.869  0.00  0.00    +0.167 C 
ENDROOT
BRANCH   2  11
ATOM     11  C   UNL     1     -35.388  22.727   3.406  0.00  0.00    +0.003 C 
ATOM     12  C   UNL     1     -34.861  23.920   2.922  0.00  0.00    +0.040 C 
ATOM     13  C   UNL     1     -35.575  22.540   4.771  0.00  0.00    +0.003 C 
ATOM     14  C   UNL     1     -34.518  24.937   3.813  0.00  0.00    +0.167 C 
ATOM     15  C   UNL     1     -35.231  23.556   5.662  0.00  0.00    +0.040 C 
ATOM     16  C   UNL     1     -34.703  24.755   5.184  0.00  0.00    +0.167 C 
BRANCH  14  17
ATOM     17  O   UNL     1     -34.003  26.104   3.334  0.00  0.00    -0.503 OA
ATOM     18  H   UNL     1     -34.171  26.361   2.449  0.00  0.00    +0.292 HD
ENDBRANCH  14  17
BRANCH  16  19
ATOM     19  O   UNL     1     -34.372  25.739   6.065  0.00  0.00    -0.503 OA
ATOM     20  H   UNL     1     -34.409  25.575   6.987  0.00  0.00    +0.292 HD
ENDBRANCH  16  19
ENDBRANCH   2  11
BRANCH   9  21
ATOM     21  O   UNL     1     -40.322  23.170   2.104  0.00  0.00    -0.503 OA
ATOM     22  H   UNL     1     -40.135  23.856   2.715  0.00  0.00    +0.292 HD
ENDBRANCH   9  21
BRANCH  10  23
ATOM     23  O   UNL     1     -40.863  21.097   0.339  0.00  0.00    -0.503 OA
ATOM     24  H   UNL     1     -41.169  21.697  -0.313  0.00  0.00    +0.292 HD
ENDBRANCH  10  23
BRANCH   6  26
ATOM     25  O   UNL     1     -32.995  18.483   1.581  0.00  0.00    -0.245 OA
ATOM     26  C   UNL     1     -33.958  18.794   0.872  0.00  0.00    +0.338 C 
BRANCH  26  27
ATOM     27  O   UNL     1     -34.139  18.270  -0.371  0.00  0.00    -0.477 OA
ATOM     28  H   UNL     1     -34.799  18.620  -0.936  0.00  0.00    +0.295 HD
ENDBRANCH  26  27
ENDBRANCH   6  26
TORSDOF 7
ENDMDL
MODEL 5
REMARK VINA RESULT:      -6.2      2.323      6.080
REMARK  Name = 195328
REMARK  7 active torsions:
REMARK  status: ('A' for Active; 'I' for Inactive)
REMARK    1  A    between atoms: C_2  and  C_11
REMARK    2  A    between atoms: C_6  and  C_26
REMARK    3  A    between atoms: C_9  and  O_21
REMARK    4  A    between atoms: C_10  and  O_23
REMARK    5  A    between atoms: C_14  and  O_17
REMARK    6  A    between atoms: C_16  and  O_19
REMARK    7  A    between atoms: C_26  and  O_27
REMARK                            x       y       z     vdW  Elec       q    Type
REMARK                         _______ _______ _______ _____ _____    ______ ____
ROOT
ATOM      1  C   UNL     1     -35.067  26.478   3.273  0.00  0.00    +0.003 C 
ATOM      2  C   UNL     1     -35.968  25.405   3.183  0.00  0.00    +0.000 C 
ATOM      3  C   UNL     1     -35.322  27.660   2.536  0.00  0.00    +0.003 C 
ATOM      4  C   UNL     1     -37.107  25.496   2.380  0.00  0.00    +0.006 C 
ATOM      5  C   UNL     1     -36.472  27.734   1.733  0.00  0.00    +0.007 C 
ATOM      6  C   UNL     1     -37.357  26.658   1.656  0.00  0.00    +0.075 C 
ATOM      7  C   UNL     1     -33.917  26.404   4.076  0.00  0.00    +0.040 C 
ATOM      8  C   UNL     1     -34.420  28.733   2.626  0.00  0.00    +0.040 C 
ATOM      9  C   UNL     1     -33.032  27.479   4.152  0.00  0.00    +0.167 C 
ATOM     10  C   UNL     1     -33.283  28.642   3.429  0.00  0.00    +0.167 C 
ENDROOT
BRANCH   2  11
ATOM     11  C   UNL     1     -35.773  24.161   3.909  0.00  0.00    +0.003 C 
ATOM     12  C   UNL     1     -35.782  22.952   3.221  0.00  0.00    +0.040 C 
ATOM     13  C   UNL     1     -35.578  24.188   5.287  0.00  0.00    +0.003 C 
ATOM     14  C   UNL     1     -35.594  21.758   3.918  0.00  0.00    +0.167 C 
ATOM     15  C   UNL     1     -35.391  22.995   5.983  0.00  0.00    +0.040 C 
ATOM     16  C   UNL     1     -35.399  21.779   5.299  0.00  0.00    +0.167 C 
BRANCH  14  17
ATOM     17  O   UNL     1     -35.603  20.576   3.239  0.00  0.00    -0.503 OA
ATOM     18  H   UNL     1     -35.003  19.896   3.476  0.00  0.00    +0.292 HD
ENDBRANCH  14  17
BRANCH  16  19
ATOM     19  O   UNL     1     -35.215  20.621   5.991  0.00  0.00    -0.503 OA
ATOM     20  H   UNL     1     -35.160  19.805   5.533  0.00  0.00    +0.292 HD
ENDBRANCH  16  19
ENDBRANCH   2  11
BRANCH   9  21
ATOM     21  O   UNL     1     -31.924  27.380   4.940  0.00  0.00    -0.503 OA
ATOM     22  H   UNL     1     -31.434  28.149   5.157  0.00  0.00    +0.292 HD
ENDBRANCH   9  21
BRANCH  10  23
ATOM     23  O   UNL     1     -32.425  29.698   3.497  0.00  0.00    -0.503 OA
ATOM     24  H   UNL     1     -31.722  29.691   4.118  0.00  0.00    +0.292 HD
ENDBRANCH  10  23
BRANCH   6  26
ATOM     25  O   UNL     1     -39.302  27.724   0.760  0.00  0.00    -0.245 OA
ATOM     26  C   UNL     1     -38.542  26.752   0.819  0.00  0.00    +0.338 C 
BRANCH  26  27
ATOM     27  O   UNL     1     -38.745  25.629   0.077  0.00  0.00    -0.477 OA
ATOM     28  H   UNL     1     -39.300  24.948   0.401  0.00  0.00    +0.295 HD
ENDBRANCH  26  27
ENDBRANCH   6  26
TORSDOF 7
ENDMDL
MODEL 6
REMARK VINA RESULT:      -6.2      2.928      5.224
REMARK  Name = 195328
REMARK  7 active torsions:
REMARK  status: ('A' for Active; 'I' for Inactive)
REMARK    1  A    between atoms: C_2  and  C_11
REMARK    2  A    between atoms: C_6  and  C_26
REMARK    3  A    between atoms: C_9  and  O_21
REMARK    4  A    between atoms: C_10  and  O_23
REMARK    5  A    between atoms: C_14  and  O_17
REMARK    6  A    between atoms: C_16  and  O_19
REMARK    7  A    between atoms: C_26  and  O_27
REMARK                            x       y       z     vdW  Elec       q    Type
REMARK                         _______ _______ _______ _____ _____    ______ ____
ROOT
ATOM      1  C   UNL     1     -34.660  22.298   1.278  0.00  0.00    +0.003 C 
ATOM      2  C   UNL     1     -34.343  23.647   1.500  0.00  0.00    +0.000 C 
ATOM      3  C   UNL     1     -34.022  21.601   0.223  0.00  0.00    +0.003 C 
ATOM      4  C   UNL     1     -33.408  24.301   0.695  0.00  0.00    +0.006 C 
ATOM      5  C   UNL     1     -33.085  22.275  -0.577  0.00  0.00    +0.007 C 
ATOM      6  C   UNL     1     -32.782  23.617  -0.341  0.00  0.00    +0.075 C 
ATOM      7  C   UNL     1     -35.597  21.624   2.077  0.00  0.00    +0.040 C 
ATOM      8  C   UNL     1     -34.340  20.251   0.001  0.00  0.00    +0.040 C 
ATOM      9  C   UNL     1     -35.901  20.283   1.842  0.00  0.00    +0.167 C 
ATOM     10  C   UNL     1     -35.273  19.597   0.806  0.00  0.00    +0.167 C 
ENDROOT
BRANCH   2  11
ATOM     11  C   UNL     1     -34.957  24.427   2.562  0.00  0.00    +0.003 C 
ATOM     12  C   UNL     1     -36.125  25.139   2.309  0.00  0.00    +0.040 C 
ATOM     13  C   UNL     1     -34.373  24.455   3.825  0.00  0.00    +0.003 C 
ATOM     14  C   UNL     1     -36.715  25.887   3.328  0.00  0.00    +0.167 C 
ATOM     15  C   UNL     1     -34.962  25.203   4.843  0.00  0.00    +0.040 C 
ATOM     16  C   UNL     1     -36.133  25.919   4.596  0.00  0.00    +0.167 C 
BRANCH  14  17
ATOM     17  O   UNL     1     -37.859  26.582   3.075  0.00  0.00    -0.503 OA
ATOM     18  H   UNL     1     -38.627  26.130   2.785  0.00  0.00    +0.292 HD
ENDBRANCH  14  17
BRANCH  16  19
ATOM     19  O   UNL     1     -36.698  26.646   5.600  0.00  0.00    -0.503 OA
ATOM     20  H   UNL     1     -37.570  26.453   5.884  0.00  0.00    +0.292 HD
ENDBRANCH  16  19
ENDBRANCH   2  11
BRANCH   9  21
ATOM     21  O   UNL     1     -36.814  19.654   2.634  0.00  0.00    -0.503 OA
ATOM     22  H   UNL     1     -37.710  19.929   2.625  0.00  0.00    +0.292 HD
ENDBRANCH   9  21
BRANCH  10  23
ATOM     23  O   UNL     1     -35.562  18.288   0.567  0.00  0.00    -0.503 OA
ATOM     24  H   UNL     1     -36.443  18.031   0.374  0.00  0.00    +0.292 HD
ENDBRANCH  10  23
BRANCH   6  26
ATOM     25  O   UNL     1     -32.068  24.930  -2.210  0.00  0.00    -0.245 OA
ATOM     26  C   UNL     1     -31.809  24.298  -1.180  0.00  0.00    +0.338 C 
BRANCH  26  27
ATOM     27  O   UNL     1     -30.538  24.174  -0.709  0.00  0.00    -0.477 OA
ATOM     28  H   UNL     1     -29.810  24.317  -1.281  0.00  0.00    +0.295 HD
ENDBRANCH  26  27
ENDBRANCH   6  26
TORSDOF 7
ENDMDL
MODEL 7
REMARK VINA RESULT:      -6.1      2.278      3.304
REMARK  Name = 195328
REMARK  7 active torsions:
REMARK  status: ('A' for Active; 'I' for Inactive)
REMARK    1  A    between atoms: C_2  and  C_11
REMARK    2  A    between atoms: C_6  and  C_26
REMARK    3  A    between atoms: C_9  and  O_21
REMARK    4  A    between atoms: C_10  and  O_23
REMARK    5  A    between atoms: C_14  and  O_17
REMARK    6  A    between atoms: C_16  and  O_19
REMARK    7  A    between atoms: C_26  and  O_27
REMARK                            x       y       z     vdW  Elec       q    Type
REMARK                         _______ _______ _______ _____ _____    ______ ____
ROOT
ATOM      1  C   UNL     1     -35.699  25.641   3.361  0.00  0.00    +0.003 C 
ATOM      2  C   UNL     1     -34.628  25.385   4.232  0.00  0.00    +0.000 C 
ATOM      3  C   UNL     1     -36.631  24.610   3.089  0.00  0.00    +0.003 C 
ATOM      4  C   UNL     1     -34.478  24.131   4.828  0.00  0.00    +0.006 C 
ATOM      5  C   UNL     1     -36.464  23.355   3.696  0.00  0.00    +0.007 C 
ATOM      6  C   UNL     1     -35.393  23.119   4.560  0.00  0.00    +0.075 C 
ATOM      7  C   UNL     1     -35.866  26.895   2.754  0.00  0.00    +0.040 C 
ATOM      8  C   UNL     1     -37.702  24.866   2.217  0.00  0.00    +0.040 C 
ATOM      9  C   UNL     1     -36.935  27.132   1.890  0.00  0.00    +0.167 C 
ATOM     10  C   UNL     1     -37.853  26.119   1.623  0.00  0.00    +0.167 C 
ENDROOT
BRANCH   2  11
ATOM     11  C   UNL     1     -33.632  26.393   4.559  0.00  0.00    +0.003 C 
ATOM     12  C   UNL     1     -33.421  26.748   5.888  0.00  0.00    +0.040 C 
ATOM     13  C   UNL     1     -32.899  26.995   3.542  0.00  0.00    +0.003 C 
ATOM     14  C   UNL     1     -32.466  27.715   6.202  0.00  0.00    +0.167 C 
ATOM     15  C   UNL     1     -31.945  27.962   3.856  0.00  0.00    +0.040 C 
ATOM     16  C   UNL     1     -31.727  28.323   5.185  0.00  0.00    +0.167 C 
BRANCH  14  17
ATOM     17  O   UNL     1     -32.262  28.059   7.504  0.00  0.00    -0.503 OA
ATOM     18  H   UNL     1     -31.389  28.151   7.833  0.00  0.00    +0.292 HD
ENDBRANCH  14  17
BRANCH  16  19
ATOM     19  O   UNL     1     -30.792  29.269   5.478  0.00  0.00    -0.503 OA
ATOM     20  H   UNL     1     -31.059  30.145   5.676  0.00  0.00    +0.292 HD
ENDBRANCH  16  19
ENDBRANCH   2  11
BRANCH   9  21
ATOM     21  O   UNL     1     -37.073  28.359   1.314  0.00  0.00    -0.503 OA
ATOM     22  H   UNL     1     -37.917  28.649   1.025  0.00  0.00    +0.292 HD
ENDBRANCH   9  21
BRANCH  10  23
ATOM     23  O   UNL     1     -38.900  26.340   0.781  0.00  0.00    -0.503 OA
ATOM     24  H   UNL     1     -39.699  25.862   0.892  0.00  0.00    +0.292 HD
ENDBRANCH  10  23
BRANCH   6  26
ATOM     25  O   UNL     1     -34.865  21.611   6.341  0.00  0.00    -0.245 OA
ATOM     26  C   UNL     1     -35.236  21.813   5.180  0.00  0.00    +0.338 C 
BRANCH  26  27
ATOM     27  O   UNL     1     -35.548  20.794   4.332  0.00  0.00    -0.477 OA
ATOM     28  H   UNL     1     -35.228  20.802   3.452  0.00  0.00    +0.295 HD
ENDBRANCH  26  27
ENDBRANCH   6  26
TORSDOF 7
ENDMDL
MODEL 8
REMARK VINA RESULT:      -6.0     10.387     13.527
REMARK  Name = 195328
REMARK  7 active torsions:
REMARK  status: ('A' for Active; 'I' for Inactive)
REMARK    1  A    between atoms: C_2  and  C_11
REMARK    2  A    between atoms: C_6  and  C_26
REMARK    3  A    between atoms: C_9  and  O_21
REMARK    4  A    between atoms: C_10  and  O_23
REMARK    5  A    between atoms: C_14  and  O_17
REMARK    6  A    between atoms: C_16  and  O_19
REMARK    7  A    between atoms: C_26  and  O_27
REMARK                            x       y       z     vdW  Elec       q    Type
REMARK                         _______ _______ _______ _____ _____    ______ ____
ROOT
ATOM      1  C   UNL     1     -36.198  35.033   1.055  0.00  0.00    +0.003 C 
ATOM      2  C   UNL     1     -37.131  36.075   0.941  0.00  0.00    +0.000 C 
ATOM      3  C   UNL     1     -34.819  35.318   0.901  0.00  0.00    +0.003 C 
ATOM      4  C   UNL     1     -36.712  37.381   0.680  0.00  0.00    +0.006 C 
ATOM      5  C   UNL     1     -34.416  36.637   0.639  0.00  0.00    +0.007 C 
ATOM      6  C   UNL     1     -35.358  37.661   0.529  0.00  0.00    +0.075 C 
ATOM      7  C   UNL     1     -36.600  33.713   1.317  0.00  0.00    +0.040 C 
ATOM      8  C   UNL     1     -33.885  34.275   1.016  0.00  0.00    +0.040 C 
ATOM      9  C   UNL     1     -35.659  32.689   1.426  0.00  0.00    +0.167 C 
ATOM     10  C   UNL     1     -34.304  32.970   1.277  0.00  0.00    +0.167 C 
ENDROOT
BRANCH   2  11
ATOM     11  C   UNL     1     -38.561  35.858   1.086  0.00  0.00    +0.003 C 
ATOM     12  C   UNL     1     -39.137  35.881   2.352  0.00  0.00    +0.040 C 
ATOM     13  C   UNL     1     -39.343  35.630  -0.042  0.00  0.00    +0.003 C 
ATOM     14  C   UNL     1     -40.510  35.673   2.492  0.00  0.00    +0.167 C 
ATOM     15  C   UNL     1     -40.715  35.422   0.098  0.00  0.00    +0.040 C 
ATOM     16  C   UNL     1     -41.299  35.443   1.364  0.00  0.00    +0.167 C 
BRANCH  14  17
ATOM     17  O   UNL     1     -41.069  35.697   3.734  0.00  0.00    -0.503 OA
ATOM     18  H   UNL     1     -41.375  34.902   4.125  0.00  0.00    +0.292 HD
ENDBRANCH  14  17
BRANCH  16  19
ATOM     19  O   UNL     1     -42.640  35.239   1.487  0.00  0.00    -0.503 OA
ATOM     20  H   UNL     1     -43.198  35.330   0.739  0.00  0.00    +0.292 HD
ENDBRANCH  16  19
ENDBRANCH   2  11
BRANCH   9  21
ATOM     21  O   UNL     1     -36.078  31.418   1.682  0.00  0.00    -0.503 OA
ATOM     22  H   UNL     1     -36.615  30.968   1.058  0.00  0.00    +0.292 HD
ENDBRANCH   9  21
BRANCH  10  23
ATOM     23  O   UNL     1     -33.376  31.977   1.381  0.00  0.00    -0.503 OA
ATOM     24  H   UNL     1     -32.609  32.107   1.904  0.00  0.00    +0.292 HD
ENDBRANCH  10  23
BRANCH   6  26
ATOM     25  O   UNL     1     -34.401  39.784   1.077  0.00  0.00    -0.245 OA
ATOM     26  C   UNL     1     -34.922  39.021   0.257  0.00  0.00    +0.338 C 
BRANCH  26  27
ATOM     27  O   UNL     1     -35.149  39.392  -1.033  0.00  0.00    -0.477 OA
ATOM     28  H   UNL     1     -34.543  39.955  -1.472  0.00  0.00    +0.295 HD
ENDBRANCH  26  27
ENDBRANCH   6  26
TORSDOF 7
ENDMDL
MODEL 9
REMARK VINA RESULT:      -6.0      3.198      5.076
REMARK  Name = 195328
REMARK  7 active torsions:
REMARK  status: ('A' for Active; 'I' for Inactive)
REMARK    1  A    between atoms: C_2  and  C_11
REMARK    2  A    between atoms: C_6  and  C_26
REMARK    3  A    between atoms: C_9  and  O_21
REMARK    4  A    between atoms: C_10  and  O_23
REMARK    5  A    between atoms: C_14  and  O_17
REMARK    6  A    between atoms: C_16  and  O_19
REMARK    7  A    between atoms: C_26  and  O_27
REMARK                            x       y       z     vdW  Elec       q    Type
REMARK                         _______ _______ _______ _____ _____    ______ ____
ROOT
ATOM      1  C   UNL     1     -36.228  19.699   0.690  0.00  0.00    +0.003 C 
ATOM      2  C   UNL     1     -35.136  20.156   1.443  0.00  0.00    +0.000 C 
ATOM      3  C   UNL     1     -36.082  18.537  -0.107  0.00  0.00    +0.003 C 
ATOM      4  C   UNL     1     -33.916  19.478   1.413  0.00  0.00    +0.006 C 
ATOM      5  C   UNL     1     -34.847  17.869  -0.126  0.00  0.00    +0.007 C 
ATOM      6  C   UNL     1     -33.772  18.338   0.630  0.00  0.00    +0.075 C 
ATOM      7  C   UNL     1     -37.463  20.367   0.708  0.00  0.00    +0.040 C 
ATOM      8  C   UNL     1     -37.175  18.079  -0.861  0.00  0.00    +0.040 C 
ATOM      9  C   UNL     1     -38.538  19.899  -0.048  0.00  0.00    +0.167 C 
ATOM     10  C   UNL     1     -38.395  18.756  -0.830  0.00  0.00    +0.167 C 
ENDROOT
BRANCH   2  11
ATOM     11  C   UNL     1     -35.211  21.340   2.284  0.00  0.00    +0.003 C 
ATOM     12  C   UNL     1     -35.604  21.219   3.613  0.00  0.00    +0.040 C 
ATOM     13  C   UNL     1     -34.890  22.586   1.753  0.00  0.00    +0.003 C 
ATOM     14  C   UNL     1     -35.677  22.355   4.419  0.00  0.00    +0.167 C 
ATOM     15  C   UNL     1     -34.962  23.721   2.560  0.00  0.00    +0.040 C 
ATOM     16  C   UNL     1     -35.356  23.606   3.893  0.00  0.00    +0.167 C 
BRANCH  14  17
ATOM     17  O   UNL     1     -36.062  22.230   5.720  0.00  0.00    -0.503 OA
ATOM     18  H   UNL     1     -35.419  22.247   6.402  0.00  0.00    +0.292 HD
ENDBRANCH  14  17
BRANCH  16  19
ATOM     19  O   UNL     1     -35.423  24.723   4.669  0.00  0.00    -0.503 OA
ATOM     20  H   UNL     1     -35.747  24.665   5.547  0.00  0.00    +0.292 HD
ENDBRANCH  16  19
ENDBRANCH   2  11
BRANCH   9  21
ATOM     21  O   UNL     1     -39.725  20.567  -0.011  0.00  0.00    -0.503 OA
ATOM     22  H   UNL     1     -40.462  20.239  -0.487  0.00  0.00    +0.292 HD
ENDBRANCH   9  21
BRANCH  10  23
ATOM     23  O   UNL     1     -39.438  18.291  -1.572  0.00  0.00    -0.503 OA
ATOM     24  H   UNL     1     -40.224  18.008  -1.148  0.00  0.00    +0.292 HD
ENDBRANCH  10  23
BRANCH   6  26
ATOM     25  O   UNL     1     -32.058  16.996  -0.363  0.00  0.00    -0.245 OA
ATOM     26  C   UNL     1     -32.501  17.633   0.599  0.00  0.00    +0.338 C 
BRANCH  26  27
ATOM     27  O   UNL     1     -31.816  17.742   1.770  0.00  0.00    -0.477 OA
ATOM     28  H   UNL     1     -30.918  18.007   1.765  0.00  0.00    +0.295 HD
ENDBRANCH  26  27
ENDBRANCH   6  26
TORSDOF 7
ENDMDL
