MODEL 1
REMARK VINA RESULT:      -5.6      0.000      0.000
REMARK  Name = 57348822
REMARK  9 active torsions:
REMARK  status: ('A' for Active; 'I' for Inactive)
REMARK    1  A    between atoms: C_1  and  P_2
REMARK    2  A    between atoms: C_1  and  P_8
REMARK    3  A    between atoms: C_1  and  O_14
REMARK    4  A    between atoms: C_1  and  C_16
REMARK    5  A    between atoms: P_2  and  O_4
REMARK    6  A    between atoms: P_2  and  O_6
REMARK    7  A    between atoms: P_8  and  O_10
REMARK    8  A    between atoms: P_8  and  O_12
REMARK    9  A    between atoms: C_16  and  C_18
REMARK                            x       y       z     vdW  Elec       q    Type
REMARK                         _______ _______ _______ _____ _____    ______ ____
ROOT
ATOM      1  C   UNL     1     -36.623  20.429   1.442  0.00  0.00    +0.278 C 
ENDROOT
BRANCH   1   2
ATOM      2  P   UNL     1     -38.246  21.211   1.039  0.00  0.00    +0.372 P 
ATOM      3  O   UNL     1     -38.133  22.531   0.335  0.00  0.00    -0.255 OA
BRANCH   2   4
ATOM      4  O   UNL     1     -39.052  20.069   0.226  0.00  0.00    -0.322 OA
ATOM      5  H   UNL     1     -39.556  19.524   0.849  0.00  0.00    +0.220 HD
ENDBRANCH   2   4
BRANCH   2   6
ATOM      6  O   UNL     1     -38.996  21.262   2.470  0.00  0.00    -0.322 OA
ATOM      7  H   UNL     1     -38.788  20.460   2.973  0.00  0.00    +0.220 HD
ENDBRANCH   2   6
ENDBRANCH   1   2
BRANCH   1   8
ATOM      8  P   UNL     1     -35.993  19.124   0.316  0.00  0.00    +0.372 P 
ATOM      9  O   UNL     1     -35.847  19.569  -1.109  0.00  0.00    -0.255 OA
BRANCH   8  10
ATOM     10  O   UNL     1     -34.640  18.585   1.017  0.00  0.00    -0.322 OA
ATOM     11  H   UNL     1     -34.238  19.300   1.536  0.00  0.00    +0.220 HD
ENDBRANCH   8  10
BRANCH   8  12
ATOM     12  O   UNL     1     -37.032  17.905   0.545  0.00  0.00    -0.322 OA
ATOM     13  H   UNL     1     -37.940  18.241   0.493  0.00  0.00    +0.220 HD
ENDBRANCH   8  12
ENDBRANCH   1   8
BRANCH   1  14
ATOM     14  O   UNL     1     -36.924  19.721   2.645  0.00  0.00    -0.366 OA
ATOM     15  H   UNL     1     -36.535  20.189   3.400  0.00  0.00    +0.212 HD
ENDBRANCH   1  14
BRANCH   1  16
ATOM     16  C   UNL     1     -35.565  21.517   1.727  0.00  0.00    +0.075 C 
BRANCH  16  18
ATOM     17  N   UNL     1     -35.957  23.933   4.695  0.00  0.00    -0.301 N 
ATOM     18  C   UNL     1     -35.566  22.040   3.122  0.00  0.00    -0.021 C 
ATOM     19  C   UNL     1     -36.024  23.479   3.295  0.00  0.00    +0.114 C 
ATOM     20  C   UNL     1     -35.186  21.281   4.168  0.00  0.00    -0.005 C 
ATOM     21  C   UNL     1     -35.199  21.805   5.511  0.00  0.00    +0.015 C 
ATOM     22  C   UNL     1     -35.577  23.074   5.711  0.00  0.00    +0.062 C 
ATOM     23  C   UNL     1     -36.423  25.285   4.962  0.00  0.00    +0.112 C 
ENDBRANCH  16  18
ENDBRANCH   1  16
TORSDOF 9
ENDMDL
MODEL 2
REMARK VINA RESULT:      -5.6      3.327      5.203
REMARK  Name = 57348822
REMARK  9 active torsions:
REMARK  status: ('A' for Active; 'I' for Inactive)
REMARK    1  A    between atoms: C_1  and  P_2
REMARK    2  A    between atoms: C_1  and  P_8
REMARK    3  A    between atoms: C_1  and  O_14
REMARK    4  A    between atoms: C_1  and  C_16
REMARK    5  A    between atoms: P_2  and  O_4
REMARK    6  A    between atoms: P_2  and  O_6
REMARK    7  A    between atoms: P_8  and  O_10
REMARK    8  A    between atoms: P_8  and  O_12
REMARK    9  A    between atoms: C_16  and  C_18
REMARK                            x       y       z     vdW  Elec       q    Type
REMARK                         _______ _______ _______ _____ _____    ______ ____
ROOT
ATOM      1  C   UNL     1     -36.616  20.949   1.743  0.00  0.00    +0.278 C 
ENDROOT
BRANCH   1   2
ATOM      2  P   UNL     1     -35.988  22.062   3.074  0.00  0.00    +0.372 P 
ATOM      3  O   UNL     1     -34.890  22.985   2.635  0.00  0.00    -0.255 OA
BRANCH   2   4
ATOM      4  O   UNL     1     -37.310  22.795   3.644  0.00  0.00    -0.322 OA
ATOM      5  H   UNL     1     -37.670  23.385   2.966  0.00  0.00    +0.220 HD
ENDBRANCH   2   4
BRANCH   2   6
ATOM      6  O   UNL     1     -35.583  21.032   4.253  0.00  0.00    -0.322 OA
ATOM      7  H   UNL     1     -34.699  21.252   4.586  0.00  0.00    +0.220 HD
ENDBRANCH   2   6
ENDBRANCH   1   2
BRANCH   1   8
ATOM      8  P   UNL     1     -38.311  21.243   1.104  0.00  0.00    +0.372 P 
ATOM      9  O   UNL     1     -38.497  22.589   0.470  0.00  0.00    -0.255 OA
BRANCH   8  10
ATOM     10  O   UNL     1     -38.624  19.977   0.149  0.00  0.00    -0.322 OA
ATOM     11  H   UNL     1     -38.632  20.266  -0.777  0.00  0.00    +0.220 HD
ENDBRANCH   8  10
BRANCH   8  12
ATOM     12  O   UNL     1     -39.246  20.965   2.395  0.00  0.00    -0.322 OA
ATOM     13  H   UNL     1     -38.977  21.549   3.121  0.00  0.00    +0.220 HD
ENDBRANCH   8  12
ENDBRANCH   1   8
BRANCH   1  14
ATOM     14  O   UNL     1     -36.724  19.699   2.424  0.00  0.00    -0.366 OA
ATOM     15  H   UNL     1     -36.374  18.992   1.859  0.00  0.00    +0.212 HD
ENDBRANCH   1  14
BRANCH   1  16
ATOM     16  C   UNL     1     -35.575  20.837   0.608  0.00  0.00    +0.075 C 
BRANCH  16  18
ATOM     17  N   UNL     1     -34.442  17.228  -0.093  0.00  0.00    -0.301 N 
ATOM     18  C   UNL     1     -34.757  19.591   0.630  0.00  0.00    -0.021 C 
ATOM     19  C   UNL     1     -35.282  18.433  -0.201  0.00  0.00    +0.114 C 
ATOM     20  C   UNL     1     -33.619  19.500   1.344  0.00  0.00    -0.005 C 
ATOM     21  C   UNL     1     -32.839  18.286   1.348  0.00  0.00    +0.015 C 
ATOM     22  C   UNL     1     -33.272  17.232   0.645  0.00  0.00    +0.062 C 
ATOM     23  C   UNL     1     -34.843  16.082  -0.895  0.00  0.00    +0.112 C 
ENDBRANCH  16  18
ENDBRANCH   1  16
TORSDOF 9
ENDMDL
MODEL 3
REMARK VINA RESULT:      -5.4      4.374      6.029
REMARK  Name = 57348822
REMARK  9 active torsions:
REMARK  status: ('A' for Active; 'I' for Inactive)
REMARK    1  A    between atoms: C_1  and  P_2
REMARK    2  A    between atoms: C_1  and  P_8
REMARK    3  A    between atoms: C_1  and  O_14
REMARK    4  A    between atoms: C_1  and  C_16
REMARK    5  A    between atoms: P_2  and  O_4
REMARK    6  A    between atoms: P_2  and  O_6
REMARK    7  A    between atoms: P_8  and  O_10
REMARK    8  A    between atoms: P_8  and  O_12
REMARK    9  A    between atoms: C_16  and  C_18
REMARK                            x       y       z     vdW  Elec       q    Type
REMARK                         _______ _______ _______ _____ _____    ______ ____
ROOT
ATOM      1  C   UNL     1     -36.689  24.920   3.189  0.00  0.00    +0.278 C 
ENDROOT
BRANCH   1   2
ATOM      2  P   UNL     1     -35.694  25.536   4.618  0.00  0.00    +0.372 P 
ATOM      3  O   UNL     1     -35.212  24.455   5.540  0.00  0.00    -0.255 OA
BRANCH   2   4
ATOM      4  O   UNL     1     -34.529  26.429   3.942  0.00  0.00    -0.322 OA
ATOM      5  H   UNL     1     -33.692  25.942   3.969  0.00  0.00    +0.220 HD
ENDBRANCH   2   4
BRANCH   2   6
ATOM      6  O   UNL     1     -36.669  26.631   5.300  0.00  0.00    -0.322 OA
ATOM      7  H   UNL     1     -36.869  27.330   4.658  0.00  0.00    +0.220 HD
ENDBRANCH   2   6
ENDBRANCH   1   2
BRANCH   1   8
ATOM      8  P   UNL     1     -37.872  26.081   2.402  0.00  0.00    +0.372 P 
ATOM      9  O   UNL     1     -38.409  25.603   1.086  0.00  0.00    -0.255 OA
BRANCH   8  10
ATOM     10  O   UNL     1     -38.985  26.378   3.537  0.00  0.00    -0.322 OA
ATOM     11  H   UNL     1     -38.720  25.952   4.367  0.00  0.00    +0.220 HD
ENDBRANCH   8  10
BRANCH   8  12
ATOM     12  O   UNL     1     -37.042  27.467   2.335  0.00  0.00    -0.322 OA
ATOM     13  H   UNL     1     -37.382  28.013   1.608  0.00  0.00    +0.220 HD
ENDBRANCH   8  12
ENDBRANCH   1   8
BRANCH   1  14
ATOM     14  O   UNL     1     -37.530  23.948   3.808  0.00  0.00    -0.366 OA
ATOM     15  H   UNL     1     -38.453  24.242   3.760  0.00  0.00    +0.212 HD
ENDBRANCH   1  14
BRANCH   1  16
ATOM     16  C   UNL     1     -35.769  24.233   2.157  0.00  0.00    +0.075 C 
BRANCH  16  18
ATOM     17  N   UNL     1     -37.243  20.880   0.984  0.00  0.00    -0.301 N 
ATOM     18  C   UNL     1     -35.980  22.765   2.011  0.00  0.00    -0.021 C 
ATOM     19  C   UNL     1     -37.069  22.341   1.040  0.00  0.00    +0.114 C 
ATOM     20  C   UNL     1     -35.245  21.869   2.697  0.00  0.00    -0.005 C 
ATOM     21  C   UNL     1     -35.462  20.452   2.536  0.00  0.00    +0.015 C 
ATOM     22  C   UNL     1     -36.425  20.030   1.707  0.00  0.00    +0.062 C 
ATOM     23  C   UNL     1     -38.234  20.379   0.043  0.00  0.00    +0.112 C 
ENDBRANCH  16  18
ENDBRANCH   1  16
TORSDOF 9
ENDMDL
MODEL 4
REMARK VINA RESULT:      -5.4      4.819      6.384
REMARK  Name = 57348822
REMARK  9 active torsions:
REMARK  status: ('A' for Active; 'I' for Inactive)
REMARK    1  A    between atoms: C_1  and  P_2
REMARK    2  A    between atoms: C_1  and  P_8
REMARK    3  A    between atoms: C_1  and  O_14
REMARK    4  A    between atoms: C_1  and  C_16
REMARK    5  A    between atoms: P_2  and  O_4
REMARK    6  A    between atoms: P_2  and  O_6
REMARK    7  A    between atoms: P_8  and  O_10
REMARK    8  A    between atoms: P_8  and  O_12
REMARK    9  A    between atoms: C_16  and  C_18
REMARK                            x       y       z     vdW  Elec       q    Type
REMARK                         _______ _______ _______ _____ _____    ______ ____
ROOT
ATOM      1  C   UNL     1     -35.797  25.963   3.670  0.00  0.00    +0.278 C 
ENDROOT
BRANCH   1   2
ATOM      2  P   UNL     1     -36.262  26.910   2.156  0.00  0.00    +0.372 P 
ATOM      3  O   UNL     1     -35.729  26.328   0.880  0.00  0.00    -0.255 OA
BRANCH   2   4
ATOM      4  O   UNL     1     -37.872  27.029   2.234  0.00  0.00    -0.322 OA
ATOM      5  H   UNL     1     -38.226  27.217   1.351  0.00  0.00    +0.220 HD
ENDBRANCH   2   4
BRANCH   2   6
ATOM      6  O   UNL     1     -35.752  28.408   2.488  0.00  0.00    -0.322 OA
ATOM      7  H   UNL     1     -36.492  29.029   2.399  0.00  0.00    +0.220 HD
ENDBRANCH   2   6
ENDBRANCH   1   2
BRANCH   1   8
ATOM      8  P   UNL     1     -36.746  24.442   4.059  0.00  0.00    +0.372 P 
ATOM      9  O   UNL     1     -36.203  23.665   5.220  0.00  0.00    -0.255 OA
BRANCH   8  10
ATOM     10  O   UNL     1     -38.279  24.933   4.210  0.00  0.00    -0.322 OA
ATOM     11  H   UNL     1     -38.412  25.308   5.095  0.00  0.00    +0.220 HD
ENDBRANCH   8  10
BRANCH   8  12
ATOM     12  O   UNL     1     -36.758  23.643   2.652  0.00  0.00    -0.322 OA
ATOM     13  H   UNL     1     -37.672  23.556   2.338  0.00  0.00    +0.220 HD
ENDBRANCH   8  12
ENDBRANCH   1   8
BRANCH   1  14
ATOM     14  O   UNL     1     -36.165  26.867   4.712  0.00  0.00    -0.366 OA
ATOM     15  H   UNL     1     -35.528  26.796   5.440  0.00  0.00    +0.212 HD
ENDBRANCH   1  14
BRANCH   1  16
ATOM     16  C   UNL     1     -34.272  25.724   3.701  0.00  0.00    +0.075 C 
BRANCH  16  18
ATOM     17  N   UNL     1     -32.005  28.467   5.162  0.00  0.00    -0.301 N 
ATOM     18  C   UNL     1     -33.528  26.554   4.691  0.00  0.00    -0.021 C 
ATOM     19  C   UNL     1     -32.743  27.725   4.126  0.00  0.00    +0.114 C 
ATOM     20  C   UNL     1     -33.555  26.281   6.010  0.00  0.00    -0.005 C 
ATOM     21  C   UNL     1     -32.833  27.100   6.953  0.00  0.00    +0.015 C 
ATOM     22  C   UNL     1     -32.111  28.132   6.499  0.00  0.00    +0.062 C 
ATOM     23  C   UNL     1     -31.261  29.637   4.717  0.00  0.00    +0.112 C 
ENDBRANCH  16  18
ENDBRANCH   1  16
TORSDOF 9
ENDMDL
MODEL 5
REMARK VINA RESULT:      -5.4      4.346      5.869
REMARK  Name = 57348822
REMARK  9 active torsions:
REMARK  status: ('A' for Active; 'I' for Inactive)
REMARK    1  A    between atoms: C_1  and  P_2
REMARK    2  A    between atoms: C_1  and  P_8
REMARK    3  A    between atoms: C_1  and  O_14
REMARK    4  A    between atoms: C_1  and  C_16
REMARK    5  A    between atoms: P_2  and  O_4
REMARK    6  A    between atoms: P_2  and  O_6
REMARK    7  A    between atoms: P_8  and  O_10
REMARK    8  A    between atoms: P_8  and  O_12
REMARK    9  A    between atoms: C_16  and  C_18
REMARK                            x       y       z     vdW  Elec       q    Type
REMARK                         _______ _______ _______ _____ _____    ______ ____
ROOT
ATOM      1  C   UNL     1     -36.447  25.014   3.236  0.00  0.00    +0.278 C 
ENDROOT
BRANCH   1   2
ATOM      2  P   UNL     1     -37.667  26.075   2.345  0.00  0.00    +0.372 P 
ATOM      3  O   UNL     1     -38.122  25.514   1.030  0.00  0.00    -0.255 OA
BRANCH   2   4
ATOM      4  O   UNL     1     -38.843  26.329   3.425  0.00  0.00    -0.322 OA
ATOM      5  H   UNL     1     -38.538  26.963   4.091  0.00  0.00    +0.220 HD
ENDBRANCH   2   4
BRANCH   2   6
ATOM      6  O   UNL     1     -36.915  27.503   2.255  0.00  0.00    -0.322 OA
ATOM      7  H   UNL     1     -37.569  28.217   2.312  0.00  0.00    +0.220 HD
ENDBRANCH   2   6
ENDBRANCH   1   2
BRANCH   1   8
ATOM      8  P   UNL     1     -35.402  25.800   4.524  0.00  0.00    +0.372 P 
ATOM      9  O   UNL     1     -34.668  24.822   5.392  0.00  0.00    -0.255 OA
BRANCH   8  10
ATOM     10  O   UNL     1     -34.472  26.852   3.724  0.00  0.00    -0.322 OA
ATOM     11  H   UNL     1     -33.777  26.371   3.248  0.00  0.00    +0.220 HD
ENDBRANCH   8  10
BRANCH   8  12
ATOM     12  O   UNL     1     -36.442  26.759   5.309  0.00  0.00    -0.322 OA
ATOM     13  H   UNL     1     -35.967  27.523   5.671  0.00  0.00    +0.220 HD
ENDBRANCH   8  12
ENDBRANCH   1   8
BRANCH   1  14
ATOM     14  O   UNL     1     -35.519  24.691   2.200  0.00  0.00    -0.366 OA
ATOM     15  H   UNL     1     -35.924  24.055   1.590  0.00  0.00    +0.212 HD
ENDBRANCH   1  14
BRANCH   1  16
ATOM     16  C   UNL     1     -37.131  23.726   3.743  0.00  0.00    +0.075 C 
BRANCH  16  18
ATOM     17  N   UNL     1     -37.250  20.799   1.250  0.00  0.00    -0.301 N 
ATOM     18  C   UNL     1     -36.747  22.484   3.014  0.00  0.00    -0.021 C 
ATOM     19  C   UNL     1     -37.676  22.055   1.892  0.00  0.00    +0.114 C 
ATOM     20  C   UNL     1     -35.639  21.787   3.332  0.00  0.00    -0.005 C 
ATOM     21  C   UNL     1     -35.282  20.591   2.610  0.00  0.00    +0.015 C 
ATOM     22  C   UNL     1     -36.080  20.162   1.624  0.00  0.00    +0.062 C 
ATOM     23  C   UNL     1     -38.055  20.337   0.130  0.00  0.00    +0.112 C 
ENDBRANCH  16  18
ENDBRANCH   1  16
TORSDOF 9
ENDMDL
MODEL 6
REMARK VINA RESULT:      -5.2      4.765      6.190
REMARK  Name = 57348822
REMARK  9 active torsions:
REMARK  status: ('A' for Active; 'I' for Inactive)
REMARK    1  A    between atoms: C_1  and  P_2
REMARK    2  A    between atoms: C_1  and  P_8
REMARK    3  A    between atoms: C_1  and  O_14
REMARK    4  A    between atoms: C_1  and  C_16
REMARK    5  A    between atoms: P_2  and  O_4
REMARK    6  A    between atoms: P_2  and  O_6
REMARK    7  A    between atoms: P_8  and  O_10
REMARK    8  A    between atoms: P_8  and  O_12
REMARK    9  A    between atoms: C_16  and  C_18
REMARK                            x       y       z     vdW  Elec       q    Type
REMARK                         _______ _______ _______ _____ _____    ______ ____
ROOT
ATOM      1  C   UNL     1     -35.378  25.198   3.289  0.00  0.00    +0.278 C 
ENDROOT
BRANCH   1   2
ATOM      2  P   UNL     1     -34.860  26.890   2.764  0.00  0.00    +0.372 P 
ATOM      3  O   UNL     1     -33.988  26.914   1.543  0.00  0.00    -0.255 OA
BRANCH   2   4
ATOM      4  O   UNL     1     -36.245  27.713   2.632  0.00  0.00    -0.322 OA
ATOM      5  H   UNL     1     -36.737  27.396   1.860  0.00  0.00    +0.220 HD
ENDBRANCH   2   4
BRANCH   2   6
ATOM      6  O   UNL     1     -34.180  27.497   4.099  0.00  0.00    -0.322 OA
ATOM      7  H   UNL     1     -33.365  27.966   3.863  0.00  0.00    +0.220 HD
ENDBRANCH   2   6
ENDBRANCH   1   2
BRANCH   1   8
ATOM      8  P   UNL     1     -36.412  25.044   4.797  0.00  0.00    +0.372 P 
ATOM      9  O   UNL     1     -35.976  23.950   5.725  0.00  0.00    -0.255 OA
BRANCH   8  10
ATOM     10  O   UNL     1     -36.438  26.528   5.440  0.00  0.00    -0.322 OA
ATOM     11  H   UNL     1     -35.843  27.107   4.938  0.00  0.00    +0.220 HD
ENDBRANCH   8  10
BRANCH   8  12
ATOM     12  O   UNL     1     -37.908  24.878   4.206  0.00  0.00    -0.322 OA
ATOM     13  H   UNL     1     -37.896  25.031   3.247  0.00  0.00    +0.220 HD
ENDBRANCH   8  12
ENDBRANCH   1   8
BRANCH   1  14
ATOM     14  O   UNL     1     -34.135  24.610   3.670  0.00  0.00    -0.366 OA
ATOM     15  H   UNL     1     -33.416  25.014   3.159  0.00  0.00    +0.212 HD
ENDBRANCH   1  14
BRANCH   1  16
ATOM     16  C   UNL     1     -35.975  24.429   2.090  0.00  0.00    +0.075 C 
BRANCH  16  18
ATOM     17  N   UNL     1     -34.077  21.323   0.844  0.00  0.00    -0.301 N 
ATOM     18  C   UNL     1     -35.521  23.014   1.967  0.00  0.00    -0.021 C 
ATOM     19  C   UNL     1     -34.439  22.748   0.934  0.00  0.00    +0.114 C 
ATOM     20  C   UNL     1     -36.040  22.032   2.729  0.00  0.00    -0.005 C 
ATOM     21  C   UNL     1     -35.583  20.670   2.597  0.00  0.00    +0.015 C 
ATOM     22  C   UNL     1     -34.644  20.384   1.686  0.00  0.00    +0.062 C 
ATOM     23  C   UNL     1     -33.012  20.982  -0.087  0.00  0.00    +0.112 C 
ENDBRANCH  16  18
ENDBRANCH   1  16
TORSDOF 9
ENDMDL
MODEL 7
REMARK VINA RESULT:      -5.1      6.061      7.493
REMARK  Name = 57348822
REMARK  9 active torsions:
REMARK  status: ('A' for Active; 'I' for Inactive)
REMARK    1  A    between atoms: C_1  and  P_2
REMARK    2  A    between atoms: C_1  and  P_8
REMARK    3  A    between atoms: C_1  and  O_14
REMARK    4  A    between atoms: C_1  and  C_16
REMARK    5  A    between atoms: P_2  and  O_4
REMARK    6  A    between atoms: P_2  and  O_6
REMARK    7  A    between atoms: P_8  and  O_10
REMARK    8  A    between atoms: P_8  and  O_12
REMARK    9  A    between atoms: C_16  and  C_18
REMARK                            x       y       z     vdW  Elec       q    Type
REMARK                         _______ _______ _______ _____ _____    ______ ____
ROOT
ATOM      1  C   UNL     1     -34.045  27.242   3.736  0.00  0.00    +0.278 C 
ENDROOT
BRANCH   1   2
ATOM      2  P   UNL     1     -32.607  27.970   4.637  0.00  0.00    +0.372 P 
ATOM      3  O   UNL     1     -32.687  29.457   4.818  0.00  0.00    -0.255 OA
BRANCH   2   4
ATOM      4  O   UNL     1     -32.517  27.117   6.007  0.00  0.00    -0.322 OA
ATOM      5  H   UNL     1     -32.773  26.199   5.833  0.00  0.00    +0.220 HD
ENDBRANCH   2   4
BRANCH   2   6
ATOM      6  O   UNL     1     -31.337  27.454   3.780  0.00  0.00    -0.322 OA
ATOM      7  H   UNL     1     -31.259  27.979   2.969  0.00  0.00    +0.220 HD
ENDBRANCH   2   6
ENDBRANCH   1   2
BRANCH   1   8
ATOM      8  P   UNL     1     -34.915  28.295   2.511  0.00  0.00    +0.372 P 
ATOM      9  O   UNL     1     -34.161  28.487   1.229  0.00  0.00    -0.255 OA
BRANCH   8  10
ATOM     10  O   UNL     1     -36.383  27.635   2.360  0.00  0.00    -0.322 OA
ATOM     11  H   UNL     1     -36.633  27.209   3.195  0.00  0.00    +0.220 HD
ENDBRANCH   8  10
BRANCH   8  12
ATOM     12  O   UNL     1     -35.211  29.655   3.335  0.00  0.00    -0.322 OA
ATOM     13  H   UNL     1     -34.978  29.524   4.268  0.00  0.00    +0.220 HD
ENDBRANCH   8  12
ENDBRANCH   1   8
BRANCH   1  14
ATOM     14  O   UNL     1     -35.002  27.080   4.782  0.00  0.00    -0.366 OA
ATOM     15  H   UNL     1     -34.826  27.726   5.484  0.00  0.00    +0.212 HD
ENDBRANCH   1  14
BRANCH   1  16
ATOM     16  C   UNL     1     -33.666  25.862   3.157  0.00  0.00    +0.075 C 
BRANCH  16  18
ATOM     17  N   UNL     1     -36.332  23.105   3.462  0.00  0.00    -0.301 N 
ATOM     18  C   UNL     1     -34.448  24.717   3.704  0.00  0.00    -0.021 C 
ATOM     19  C   UNL     1     -35.583  24.207   2.832  0.00  0.00    +0.114 C 
ATOM     20  C   UNL     1     -34.163  24.168   4.901  0.00  0.00    -0.005 C 
ATOM     21  C   UNL     1     -34.930  23.058   5.410  0.00  0.00    +0.015 C 
ATOM     22  C   UNL     1     -35.952  22.585   4.686  0.00  0.00    +0.062 C 
ATOM     23  C   UNL     1     -37.408  22.520   2.676  0.00  0.00    +0.112 C 
ENDBRANCH  16  18
ENDBRANCH   1  16
TORSDOF 9
ENDMDL
MODEL 8
REMARK VINA RESULT:      -5.0      5.739      7.089
REMARK  Name = 57348822
REMARK  9 active torsions:
REMARK  status: ('A' for Active; 'I' for Inactive)
REMARK    1  A    between atoms: C_1  and  P_2
REMARK    2  A    between atoms: C_1  and  P_8
REMARK    3  A    between atoms: C_1  and  O_14
REMARK    4  A    between atoms: C_1  and  C_16
REMARK    5  A    between atoms: P_2  and  O_4
REMARK    6  A    between atoms: P_2  and  O_6
REMARK    7  A    between atoms: P_8  and  O_10
REMARK    8  A    between atoms: P_8  and  O_12
REMARK    9  A    between atoms: C_16  and  C_18
REMARK                            x       y       z     vdW  Elec       q    Type
REMARK                         _______ _______ _______ _____ _____    ______ ____
ROOT
ATOM      1  C   UNL     1     -34.407  27.067   3.620  0.00  0.00    +0.278 C 
ENDROOT
BRANCH   1   2
ATOM      2  P   UNL     1     -35.162  28.260   2.432  0.00  0.00    +0.372 P 
ATOM      3  O   UNL     1     -34.366  28.461   1.176  0.00  0.00    -0.255 OA
BRANCH   2   4
ATOM      4  O   UNL     1     -36.665  27.710   2.208  0.00  0.00    -0.322 OA
ATOM      5  H   UNL     1     -37.239  28.040   2.917  0.00  0.00    +0.220 HD
ENDBRANCH   2   4
BRANCH   2   6
ATOM      6  O   UNL     1     -35.371  29.589   3.328  0.00  0.00    -0.322 OA
ATOM      7  H   UNL     1     -36.005  29.405   4.038  0.00  0.00    +0.220 HD
ENDBRANCH   2   6
ENDBRANCH   1   2
BRANCH   1   8
ATOM      8  P   UNL     1     -32.910  27.599   4.539  0.00  0.00    +0.372 P 
ATOM      9  O   UNL     1     -32.887  27.157   5.972  0.00  0.00    -0.255 OA
BRANCH   8  10
ATOM     10  O   UNL     1     -31.666  27.096   3.638  0.00  0.00    -0.322 OA
ATOM     11  H   UNL     1     -31.924  27.093   2.703  0.00  0.00    +0.220 HD
ENDBRANCH   8  10
BRANCH   8  12
ATOM     12  O   UNL     1     -32.892  29.201   4.321  0.00  0.00    -0.322 OA
ATOM     13  H   UNL     1     -32.583  29.634   5.132  0.00  0.00    +0.220 HD
ENDBRANCH   8  12
ENDBRANCH   1   8
BRANCH   1  14
ATOM     14  O   UNL     1     -33.923  26.044   2.750  0.00  0.00    -0.366 OA
ATOM     15  H   UNL     1     -34.635  25.410   2.570  0.00  0.00    +0.212 HD
ENDBRANCH   1  14
BRANCH   1  16
ATOM     16  C   UNL     1     -35.492  26.488   4.554  0.00  0.00    +0.075 C 
BRANCH  16  18
ATOM     17  N   UNL     1     -36.520  22.901   3.619  0.00  0.00    -0.301 N 
ATOM     18  C   UNL     1     -35.574  24.999   4.571  0.00  0.00    -0.021 C 
ATOM     19  C   UNL     1     -36.459  24.368   3.510  0.00  0.00    +0.114 C 
ATOM     20  C   UNL     1     -34.899  24.260   5.472  0.00  0.00    -0.005 C 
ATOM     21  C   UNL     1     -34.988  22.820   5.466  0.00  0.00    +0.015 C 
ATOM     22  C   UNL     1     -35.771  22.219   4.562  0.00  0.00    +0.062 C 
ATOM     23  C   UNL     1     -37.308  22.206   2.612  0.00  0.00    +0.112 C 
ENDBRANCH  16  18
ENDBRANCH   1  16
TORSDOF 9
ENDMDL
MODEL 9
REMARK VINA RESULT:      -5.0      6.040      7.522
REMARK  Name = 57348822
REMARK  9 active torsions:
REMARK  status: ('A' for Active; 'I' for Inactive)
REMARK    1  A    between atoms: C_1  and  P_2
REMARK    2  A    between atoms: C_1  and  P_8
REMARK    3  A    between atoms: C_1  and  O_14
REMARK    4  A    between atoms: C_1  and  C_16
REMARK    5  A    between atoms: P_2  and  O_4
REMARK    6  A    between atoms: P_2  and  O_6
REMARK    7  A    between atoms: P_8  and  O_10
REMARK    8  A    between atoms: P_8  and  O_12
REMARK    9  A    between atoms: C_16  and  C_18
REMARK                            x       y       z     vdW  Elec       q    Type
REMARK                         _______ _______ _______ _____ _____    ______ ____
ROOT
ATOM      1  C   UNL     1     -33.976  27.163   3.784  0.00  0.00    +0.278 C 
ENDROOT
BRANCH   1   2
ATOM      2  P   UNL     1     -32.596  27.954   4.720  0.00  0.00    +0.372 P 
ATOM      3  O   UNL     1     -32.750  29.435   4.904  0.00  0.00    -0.255 OA
BRANCH   2   4
ATOM      4  O   UNL     1     -32.497  27.100   6.089  0.00  0.00    -0.322 OA
ATOM      5  H   UNL     1     -32.487  26.154   5.880  0.00  0.00    +0.220 HD
ENDBRANCH   2   4
BRANCH   2   6
ATOM      6  O   UNL     1     -31.284  27.502   3.891  0.00  0.00    -0.322 OA
ATOM      7  H   UNL     1     -31.005  26.619   4.182  0.00  0.00    +0.220 HD
ENDBRANCH   2   6
ENDBRANCH   1   2
BRANCH   1   8
ATOM      8  P   UNL     1     -34.880  28.186   2.556  0.00  0.00    +0.372 P 
ATOM      9  O   UNL     1     -34.172  28.326   1.242  0.00  0.00    -0.255 OA
BRANCH   8  10
ATOM     10  O   UNL     1     -36.360  27.538   2.481  0.00  0.00    -0.322 OA
ATOM     11  H   UNL     1     -36.674  27.558   1.564  0.00  0.00    +0.220 HD
ENDBRANCH   8  10
BRANCH   8  12
ATOM     12  O   UNL     1     -35.131  29.575   3.346  0.00  0.00    -0.322 OA
ATOM     13  H   UNL     1     -34.278  29.954   3.612  0.00  0.00    +0.220 HD
ENDBRANCH   8  12
ENDBRANCH   1   8
BRANCH   1  14
ATOM     14  O   UNL     1     -34.942  26.936   4.810  0.00  0.00    -0.366 OA
ATOM     15  H   UNL     1     -35.806  26.761   4.407  0.00  0.00    +0.212 HD
ENDBRANCH   1  14
BRANCH   1  16
ATOM     16  C   UNL     1     -33.514  25.813   3.193  0.00  0.00    +0.075 C 
BRANCH  16  18
ATOM     17  N   UNL     1     -35.288  22.890   4.955  0.00  0.00    -0.301 N 
ATOM     18  C   UNL     1     -34.445  24.674   3.435  0.00  0.00    -0.021 C 
ATOM     19  C   UNL     1     -34.370  24.032   4.810  0.00  0.00    +0.114 C 
ATOM     20  C   UNL     1     -35.302  24.242   2.490  0.00  0.00    -0.005 C 
ATOM     21  C   UNL     1     -36.197  23.141   2.747  0.00  0.00    +0.015 C 
ATOM     22  C   UNL     1     -36.155  22.531   3.938  0.00  0.00    +0.062 C 
ATOM     23  C   UNL     1     -35.319  22.243   6.259  0.00  0.00    +0.112 C 
ENDBRANCH  16  18
ENDBRANCH   1  16
TORSDOF 9
ENDMDL
