MODEL 1
REMARK VINA RESULT:      -6.3      0.000      0.000
REMARK  Name = 20640627
REMARK  5 active torsions:
REMARK  status: ('A' for Active; 'I' for Inactive)
REMARK    1  A    between atoms: N_16  and  C1*_22
REMARK    2  A    between atoms: C3*_19  and  O3*_23
REMARK    3  A    between atoms: C2*_20  and  O2*_25
REMARK    4  A    between atoms: C4*_21  and  C5*_27
REMARK    5  A    between atoms: C5*_27  and  O5*_28
REMARK                            x       y       z     vdW  Elec       q    Type
REMARK                         _______ _______ _______ _____ _____    ______ ____
ROOT
ATOM      1  O   UNL     1     -32.925  26.594   6.037  0.00  0.00    -0.083 OA
ATOM      2  N   UNL     1     -32.505  29.927   3.702  0.00  0.00    -0.250 N 
ATOM      3  N   UNL     1     -32.798  27.632   5.303  0.00  0.00    -0.192 N 
ATOM      4  N   UNL     1     -35.316  26.973   2.636  0.00  0.00    -0.232 NA
ATOM      5  N   UNL     1     -34.234  29.084   2.207  0.00  0.00    -0.231 NA
ATOM      6  C   UNL     1     -34.546  26.848   3.731  0.00  0.00    +0.134 C 
ATOM      7  C   UNL     1     -33.614  27.798   4.112  0.00  0.00    +0.219 C 
ATOM      8  C   UNL     1     -33.469  28.936   3.318  0.00  0.00    +0.143 C 
ATOM      9  C   UNL     1     -31.734  29.725   4.867  0.00  0.00    +0.076 C 
ATOM     10  C   UNL     1     -31.831  28.651   5.668  0.00  0.00    +0.119 C 
ATOM     11  C   UNL     1     -35.111  28.098   1.930  0.00  0.00    +0.253 C 
ATOM     12  C   UNL     1     -32.316  31.085   2.946  0.00  0.00    +0.071 C 
ATOM     13  C   UNL     1     -30.761  30.771   5.215  0.00  0.00    +0.017 C 
ATOM     14  C   UNL     1     -31.429  32.040   3.265  0.00  0.00    +0.016 C 
ATOM     15  C   UNL     1     -30.620  31.868   4.451  0.00  0.00    +0.003 C 
ATOM     16  N   UNL     1     -34.752  25.671   4.482  0.00  0.00    -0.297 N 
ATOM     17  H   UNL     1     -34.213  25.531   5.295  0.00  0.00    +0.150 HD
ENDROOT
BRANCH  16  22
ATOM     18  O4* UNL     1     -36.227  23.997   5.279  0.00  0.00    -0.333 OA
ATOM     19  C3* UNL     1     -35.892  22.369   3.593  0.00  0.00    +0.171 C 
ATOM     20  C2* UNL     1     -35.062  23.589   3.258  0.00  0.00    +0.186 C 
ATOM     21  C4* UNL     1     -36.166  22.568   5.076  0.00  0.00    +0.175 C 
ATOM     22  C1* UNL     1     -35.714  24.665   4.112  0.00  0.00    +0.220 C 
BRANCH  19  23
ATOM     23  O3* UNL     1     -37.142  22.416   2.905  0.00  0.00    -0.379 OA
ATOM     24  H3* UNL     1     -37.840  22.061   3.479  0.00  0.00    +0.211 HD
ENDBRANCH  19  23
BRANCH  20  25
ATOM     25  O2* UNL     1     -35.097  23.897   1.878  0.00  0.00    -0.378 OA
ATOM     26  H2* UNL     1     -35.621  23.229   1.411  0.00  0.00    +0.211 HD
ENDBRANCH  20  25
BRANCH  21  27
ATOM     27  C5* UNL     1     -35.069  22.009   5.972  0.00  0.00    +0.169 C 
BRANCH  27  28
ATOM     28  O5* UNL     1     -35.106  20.594   5.905  0.00  0.00    -0.379 OA
ATOM     29  H5* UNL     1     -35.607  20.247   6.661  0.00  0.00    +0.211 HD
ENDBRANCH  27  28
ENDBRANCH  21  27
ENDBRANCH  16  22
TORSDOF 5
ENDMDL
MODEL 2
REMARK VINA RESULT:      -6.0      3.119      7.283
REMARK  Name = 20640627
REMARK  5 active torsions:
REMARK  status: ('A' for Active; 'I' for Inactive)
REMARK    1  A    between atoms: N_16  and  C1*_22
REMARK    2  A    between atoms: C3*_19  and  O3*_23
REMARK    3  A    between atoms: C2*_20  and  O2*_25
REMARK    4  A    between atoms: C4*_21  and  C5*_27
REMARK    5  A    between atoms: C5*_27  and  O5*_28
REMARK                            x       y       z     vdW  Elec       q    Type
REMARK                         _______ _______ _______ _____ _____    ______ ____
ROOT
ATOM      1  O   UNL     1     -35.125  28.270   1.972  0.00  0.00    -0.083 OA
ATOM      2  N   UNL     1     -38.007  25.506   2.863  0.00  0.00    -0.250 N 
ATOM      3  N   UNL     1     -36.020  27.403   2.255  0.00  0.00    -0.192 N 
ATOM      4  N   UNL     1     -34.545  25.755   5.255  0.00  0.00    -0.232 NA
ATOM      5  N   UNL     1     -36.674  24.742   4.754  0.00  0.00    -0.231 NA
ATOM      6  C   UNL     1     -34.729  26.566   4.197  0.00  0.00    +0.134 C 
ATOM      7  C   UNL     1     -35.853  26.512   3.391  0.00  0.00    +0.219 C 
ATOM      8  C   UNL     1     -36.838  25.571   3.693  0.00  0.00    +0.143 C 
ATOM      9  C   UNL     1     -38.129  26.391   1.771  0.00  0.00    +0.076 C 
ATOM     10  C   UNL     1     -37.214  27.315   1.434  0.00  0.00    +0.119 C 
ATOM     11  C   UNL     1     -35.541  24.880   5.472  0.00  0.00    +0.253 C 
ATOM     12  C   UNL     1     -39.024  24.585   3.116  0.00  0.00    +0.071 C 
ATOM     13  C   UNL     1     -39.346  26.282   0.954  0.00  0.00    +0.017 C 
ATOM     14  C   UNL     1     -40.136  24.486   2.371  0.00  0.00    +0.016 C 
ATOM     15  C   UNL     1     -40.295  25.376   1.242  0.00  0.00    +0.003 C 
ATOM     16  N   UNL     1     -33.690  27.490   3.957  0.00  0.00    -0.297 N 
ATOM     17  H   UNL     1     -33.776  28.107   3.194  0.00  0.00    +0.150 HD
ENDROOT
BRANCH  16  22
ATOM     18  O4* UNL     1     -32.690  28.524   5.840  0.00  0.00    -0.333 OA
ATOM     19  C3* UNL     1     -30.486  28.765   5.009  0.00  0.00    +0.171 C 
ATOM     20  C2* UNL     1     -31.322  28.059   3.962  0.00  0.00    +0.186 C 
ATOM     21  C4* UNL     1     -31.550  29.410   5.884  0.00  0.00    +0.175 C 
ATOM     22  C1* UNL     1     -32.508  27.570   4.778  0.00  0.00    +0.220 C 
BRANCH  19  23
ATOM     23  O3* UNL     1     -29.780  27.812   5.804  0.00  0.00    -0.379 OA
ATOM     24  H3* UNL     1     -29.642  27.001   5.290  0.00  0.00    +0.211 HD
ENDBRANCH  19  23
BRANCH  20  25
ATOM     25  O2* UNL     1     -30.619  27.003   3.339  0.00  0.00    -0.378 OA
ATOM     26  H2* UNL     1     -30.923  26.156   3.698  0.00  0.00    +0.211 HD
ENDBRANCH  20  25
BRANCH  21  27
ATOM     27  C5* UNL     1     -31.993  30.778   5.385  0.00  0.00    +0.169 C 
BRANCH  27  28
ATOM     28  O5* UNL     1     -33.289  30.659   4.824  0.00  0.00    -0.379 OA
ATOM     29  H5* UNL     1     -33.878  30.223   5.460  0.00  0.00    +0.211 HD
ENDBRANCH  27  28
ENDBRANCH  21  27
ENDBRANCH  16  22
TORSDOF 5
ENDMDL
MODEL 3
REMARK VINA RESULT:      -6.0      1.621      2.167
REMARK  Name = 20640627
REMARK  5 active torsions:
REMARK  status: ('A' for Active; 'I' for Inactive)
REMARK    1  A    between atoms: N_16  and  C1*_22
REMARK    2  A    between atoms: C3*_19  and  O3*_23
REMARK    3  A    between atoms: C2*_20  and  O2*_25
REMARK    4  A    between atoms: C4*_21  and  C5*_27
REMARK    5  A    between atoms: C5*_27  and  O5*_28
REMARK                            x       y       z     vdW  Elec       q    Type
REMARK                         _______ _______ _______ _____ _____    ______ ____
ROOT
ATOM      1  O   UNL     1     -31.875  27.010   6.587  0.00  0.00    -0.083 OA
ATOM      2  N   UNL     1     -30.369  30.339   4.747  0.00  0.00    -0.250 N 
ATOM      3  N   UNL     1     -31.410  28.048   6.006  0.00  0.00    -0.192 N 
ATOM      4  N   UNL     1     -33.968  28.639   3.362  0.00  0.00    -0.232 NA
ATOM      5  N   UNL     1     -32.256  30.328   3.207  0.00  0.00    -0.231 NA
ATOM      6  C   UNL     1     -33.295  28.111   4.400  0.00  0.00    +0.134 C 
ATOM      7  C   UNL     1     -32.111  28.644   4.881  0.00  0.00    +0.219 C 
ATOM      8  C   UNL     1     -31.595  29.779   4.257  0.00  0.00    +0.143 C 
ATOM      9  C   UNL     1     -29.720  29.729   5.842  0.00  0.00    +0.076 C 
ATOM     10  C   UNL     1     -30.170  28.637   6.481  0.00  0.00    +0.119 C 
ATOM     11  C   UNL     1     -33.401  29.729   2.820  0.00  0.00    +0.253 C 
ATOM     12  C   UNL     1     -29.805  31.473   4.160  0.00  0.00    +0.071 C 
ATOM     13  C   UNL     1     -28.467  30.343   6.303  0.00  0.00    +0.017 C 
ATOM     14  C   UNL     1     -28.661  32.034   4.583  0.00  0.00    +0.016 C 
ATOM     15  C   UNL     1     -27.968  31.437   5.702  0.00  0.00    +0.003 C 
ATOM     16  N   UNL     1     -33.880  26.965   4.979  0.00  0.00    -0.297 N 
ATOM     17  H   UNL     1     -33.426  26.540   5.744  0.00  0.00    +0.150 HD
ENDROOT
BRANCH  16  22
ATOM     18  O4* UNL     1     -35.793  25.692   5.561  0.00  0.00    -0.333 OA
ATOM     19  C3* UNL     1     -35.997  24.401   3.586  0.00  0.00    +0.171 C 
ATOM     20  C2* UNL     1     -34.833  25.355   3.421  0.00  0.00    +0.186 C 
ATOM     21  C4* UNL     1     -36.179  24.380   5.097  0.00  0.00    +0.175 C 
ATOM     22  C1* UNL     1     -35.111  26.388   4.501  0.00  0.00    +0.220 C 
BRANCH  19  23
ATOM     23  O3* UNL     1     -37.179  24.955   3.009  0.00  0.00    -0.379 OA
ATOM     24  H3* UNL     1     -37.719  24.243   2.633  0.00  0.00    +0.211 HD
ENDBRANCH  19  23
BRANCH  20  25
ATOM     25  O2* UNL     1     -34.787  25.922   2.127  0.00  0.00    -0.378 OA
ATOM     26  H2* UNL     1     -35.355  26.706   2.097  0.00  0.00    +0.211 HD
ENDBRANCH  20  25
BRANCH  21  27
ATOM     27  C5* UNL     1     -35.299  23.352   5.796  0.00  0.00    +0.169 C 
BRANCH  27  28
ATOM     28  O5* UNL     1     -36.070  22.189   6.045  0.00  0.00    -0.379 OA
ATOM     29  H5* UNL     1     -37.010  22.425   6.076  0.00  0.00    +0.211 HD
ENDBRANCH  27  28
ENDBRANCH  21  27
ENDBRANCH  16  22
TORSDOF 5
ENDMDL
MODEL 4
REMARK VINA RESULT:      -5.9      2.513      4.524
REMARK  Name = 20640627
REMARK  5 active torsions:
REMARK  status: ('A' for Active; 'I' for Inactive)
REMARK    1  A    between atoms: N_16  and  C1*_22
REMARK    2  A    between atoms: C3*_19  and  O3*_23
REMARK    3  A    between atoms: C2*_20  and  O2*_25
REMARK    4  A    between atoms: C4*_21  and  C5*_27
REMARK    5  A    between atoms: C5*_27  and  O5*_28
REMARK                            x       y       z     vdW  Elec       q    Type
REMARK                         _______ _______ _______ _____ _____    ______ ____
ROOT
ATOM      1  O   UNL     1     -36.380  26.165   1.545  0.00  0.00    -0.083 OA
ATOM      2  N   UNL     1     -33.867  26.735   4.722  0.00  0.00    -0.250 N 
ATOM      3  N   UNL     1     -35.599  26.337   2.541  0.00  0.00    -0.192 N 
ATOM      4  N   UNL     1     -36.388  23.359   4.637  0.00  0.00    -0.232 NA
ATOM      5  N   UNL     1     -34.698  24.681   5.734  0.00  0.00    -0.231 NA
ATOM      6  C   UNL     1     -36.388  24.261   3.640  0.00  0.00    +0.134 C 
ATOM      7  C   UNL     1     -35.574  25.381   3.635  0.00  0.00    +0.219 C 
ATOM      8  C   UNL     1     -34.715  25.578   4.717  0.00  0.00    +0.143 C 
ATOM      9  C   UNL     1     -33.924  27.639   3.639  0.00  0.00    +0.076 C 
ATOM     10  C   UNL     1     -34.729  27.499   2.573  0.00  0.00    +0.119 C 
ATOM     11  C   UNL     1     -35.532  23.626   5.637  0.00  0.00    +0.253 C 
ATOM     12  C   UNL     1     -32.989  26.985   5.778  0.00  0.00    +0.071 C 
ATOM     13  C   UNL     1     -33.034  28.807   3.695  0.00  0.00    +0.017 C 
ATOM     14  C   UNL     1     -32.176  28.052   5.828  0.00  0.00    +0.016 C 
ATOM     15  C   UNL     1     -32.207  28.999   4.736  0.00  0.00    +0.003 C 
ATOM     16  N   UNL     1     -37.283  23.993   2.582  0.00  0.00    -0.297 N 
ATOM     17  H   UNL     1     -37.321  24.624   1.827  0.00  0.00    +0.150 HD
ENDROOT
BRANCH  16  22
ATOM     18  O4* UNL     1     -37.428  21.680   2.085  0.00  0.00    -0.333 OA
ATOM     19  C3* UNL     1     -39.600  21.636   1.143  0.00  0.00    +0.171 C 
ATOM     20  C2* UNL     1     -39.299  23.049   1.594  0.00  0.00    +0.186 C 
ATOM     21  C4* UNL     1     -38.209  21.024   1.063  0.00  0.00    +0.175 C 
ATOM     22  C1* UNL     1     -38.142  22.837   2.559  0.00  0.00    +0.220 C 
BRANCH  19  23
ATOM     23  O3* UNL     1     -40.330  20.938   2.152  0.00  0.00    -0.379 OA
ATOM     24  H3* UNL     1     -41.050  21.500   2.477  0.00  0.00    +0.211 HD
ENDBRANCH  19  23
BRANCH  20  25
ATOM     25  O2* UNL     1     -40.413  23.662   2.211  0.00  0.00    -0.378 OA
ATOM     26  H2* UNL     1     -41.196  23.104   2.092  0.00  0.00    +0.211 HD
ENDBRANCH  20  25
BRANCH  21  27
ATOM     27  C5* UNL     1     -37.525  21.256  -0.278  0.00  0.00    +0.169 C 
BRANCH  27  28
ATOM     28  O5* UNL     1     -36.137  21.432  -0.055  0.00  0.00    -0.379 OA
ATOM     29  H5* UNL     1     -35.793  20.681   0.454  0.00  0.00    +0.211 HD
ENDBRANCH  27  28
ENDBRANCH  21  27
ENDBRANCH  16  22
TORSDOF 5
ENDMDL
MODEL 5
REMARK VINA RESULT:      -5.9      2.673      4.185
REMARK  Name = 20640627
REMARK  5 active torsions:
REMARK  status: ('A' for Active; 'I' for Inactive)
REMARK    1  A    between atoms: N_16  and  C1*_22
REMARK    2  A    between atoms: C3*_19  and  O3*_23
REMARK    3  A    between atoms: C2*_20  and  O2*_25
REMARK    4  A    between atoms: C4*_21  and  C5*_27
REMARK    5  A    between atoms: C5*_27  and  O5*_28
REMARK                            x       y       z     vdW  Elec       q    Type
REMARK                         _______ _______ _______ _____ _____    ______ ____
ROOT
ATOM      1  O   UNL     1     -36.825  29.583   1.444  0.00  0.00    -0.083 OA
ATOM      2  N   UNL     1     -33.883  32.270   2.369  0.00  0.00    -0.250 N 
ATOM      3  N   UNL     1     -35.903  30.417   1.738  0.00  0.00    -0.192 N 
ATOM      4  N   UNL     1     -33.563  28.286   3.704  0.00  0.00    -0.232 NA
ATOM      5  N   UNL     1     -32.680  30.524   3.568  0.00  0.00    -0.231 NA
ATOM      6  C   UNL     1     -34.615  28.701   2.977  0.00  0.00    +0.134 C 
ATOM      7  C   UNL     1     -34.752  30.002   2.522  0.00  0.00    +0.219 C 
ATOM      8  C   UNL     1     -33.750  30.920   2.835  0.00  0.00    +0.143 C 
ATOM      9  C   UNL     1     -35.017  32.632   1.610  0.00  0.00    +0.076 C 
ATOM     10  C   UNL     1     -36.010  31.791   1.279  0.00  0.00    +0.119 C 
ATOM     11  C   UNL     1     -32.647  29.234   3.959  0.00  0.00    +0.253 C 
ATOM     12  C   UNL     1     -32.912  33.233   2.652  0.00  0.00    +0.071 C 
ATOM     13  C   UNL     1     -35.102  34.028   1.158  0.00  0.00    +0.017 C 
ATOM     14  C   UNL     1     -32.990  34.507   2.238  0.00  0.00    +0.016 C 
ATOM     15  C   UNL     1     -34.138  34.914   1.459  0.00  0.00    +0.003 C 
ATOM     16  N   UNL     1     -35.586  27.715   2.701  0.00  0.00    -0.297 N 
ATOM     17  H   UNL     1     -36.377  27.968   2.171  0.00  0.00    +0.150 HD
ENDROOT
BRANCH  16  22
ATOM     18  O4* UNL     1     -36.157  25.456   2.269  0.00  0.00    -0.333 OA
ATOM     19  C3* UNL     1     -36.573  24.745   4.489  0.00  0.00    +0.171 C 
ATOM     20  C2* UNL     1     -36.130  26.191   4.521  0.00  0.00    +0.186 C 
ATOM     21  C4* UNL     1     -37.005  24.576   3.040  0.00  0.00    +0.175 C 
ATOM     22  C1* UNL     1     -35.471  26.354   3.160  0.00  0.00    +0.220 C 
BRANCH  19  23
ATOM     23  O3* UNL     1     -35.461  23.880   4.720  0.00  0.00    -0.379 OA
ATOM     24  H3* UNL     1     -35.343  23.296   3.955  0.00  0.00    +0.211 HD
ENDBRANCH  19  23
BRANCH  20  25
ATOM     25  O2* UNL     1     -35.241  26.454   5.589  0.00  0.00    -0.378 OA
ATOM     26  H2* UNL     1     -34.954  25.618   5.984  0.00  0.00    +0.211 HD
ENDBRANCH  20  25
BRANCH  21  27
ATOM     27  C5* UNL     1     -38.453  24.976   2.792  0.00  0.00    +0.169 C 
BRANCH  27  28
ATOM     28  O5* UNL     1     -39.191  24.771   3.985  0.00  0.00    -0.379 OA
ATOM     29  H5* UNL     1     -39.984  24.248   3.789  0.00  0.00    +0.211 HD
ENDBRANCH  27  28
ENDBRANCH  21  27
ENDBRANCH  16  22
TORSDOF 5
ENDMDL
MODEL 6
REMARK VINA RESULT:      -5.9      5.139      7.652
REMARK  Name = 20640627
REMARK  5 active torsions:
REMARK  status: ('A' for Active; 'I' for Inactive)
REMARK    1  A    between atoms: N_16  and  C1*_22
REMARK    2  A    between atoms: C3*_19  and  O3*_23
REMARK    3  A    between atoms: C2*_20  and  O2*_25
REMARK    4  A    between atoms: C4*_21  and  C5*_27
REMARK    5  A    between atoms: C5*_27  and  O5*_28
REMARK                            x       y       z     vdW  Elec       q    Type
REMARK                         _______ _______ _______ _____ _____    ______ ____
ROOT
ATOM      1  O   UNL     1     -35.256  19.938   2.722  0.00  0.00    -0.083 OA
ATOM      2  N   UNL     1     -36.815  23.642   3.485  0.00  0.00    -0.250 N 
ATOM      3  N   UNL     1     -35.747  21.094   2.954  0.00  0.00    -0.192 N 
ATOM      4  N   UNL     1     -38.467  21.277   0.413  0.00  0.00    -0.232 NA
ATOM      5  N   UNL     1     -38.438  23.315   1.698  0.00  0.00    -0.231 NA
ATOM      6  C   UNL     1     -37.432  20.843   1.154  0.00  0.00    +0.134 C 
ATOM      7  C   UNL     1     -36.865  21.593   2.171  0.00  0.00    +0.219 C 
ATOM      8  C   UNL     1     -37.395  22.857   2.434  0.00  0.00    +0.143 C 
ATOM      9  C   UNL     1     -35.730  23.119   4.221  0.00  0.00    +0.076 C 
ATOM     10  C   UNL     1     -35.181  21.912   4.012  0.00  0.00    +0.119 C 
ATOM     11  C   UNL     1     -38.914  22.502   0.733  0.00  0.00    +0.253 C 
ATOM     12  C   UNL     1     -37.303  24.914   3.792  0.00  0.00    +0.071 C 
ATOM     13  C   UNL     1     -35.174  23.966   5.285  0.00  0.00    +0.017 C 
ATOM     14  C   UNL     1     -36.795  25.686   4.765  0.00  0.00    +0.016 C 
ATOM     15  C   UNL     1     -35.682  25.183   5.540  0.00  0.00    +0.003 C 
ATOM     16  N   UNL     1     -36.952  19.557   0.829  0.00  0.00    -0.297 N 
ATOM     17  H   UNL     1     -36.195  19.193   1.343  0.00  0.00    +0.150 HD
ENDROOT
BRANCH  16  22
ATOM     18  O4* UNL     1     -37.489  17.357   0.128  0.00  0.00    -0.333 OA
ATOM     19  C3* UNL     1     -36.930  17.549  -2.165  0.00  0.00    +0.171 C 
ATOM     20  C2* UNL     1     -36.709  18.891  -1.501  0.00  0.00    +0.186 C 
ATOM     21  C4* UNL     1     -36.940  16.602  -0.974  0.00  0.00    +0.175 C 
ATOM     22  C1* UNL     1     -37.521  18.753  -0.223  0.00  0.00    +0.220 C 
BRANCH  19  23
ATOM     23  O3* UNL     1     -38.221  17.503  -2.774  0.00  0.00    -0.379 OA
ATOM     24  H3* UNL     1     -38.145  17.120  -3.662  0.00  0.00    +0.211 HD
ENDBRANCH  19  23
BRANCH  20  25
ATOM     25  O2* UNL     1     -37.147  19.966  -2.309  0.00  0.00    -0.378 OA
ATOM     26  H2* UNL     1     -36.607  20.007  -3.113  0.00  0.00    +0.211 HD
ENDBRANCH  20  25
BRANCH  21  27
ATOM     27  C5* UNL     1     -35.551  16.122  -0.575  0.00  0.00    +0.169 C 
BRANCH  27  28
ATOM     28  O5* UNL     1     -35.678  15.212   0.504  0.00  0.00    -0.379 OA
ATOM     29  H5* UNL     1     -35.402  14.328   0.216  0.00  0.00    +0.211 HD
ENDBRANCH  27  28
ENDBRANCH  21  27
ENDBRANCH  16  22
TORSDOF 5
ENDMDL
MODEL 7
REMARK VINA RESULT:      -5.7      6.449     10.114
REMARK  Name = 20640627
REMARK  5 active torsions:
REMARK  status: ('A' for Active; 'I' for Inactive)
REMARK    1  A    between atoms: N_16  and  C1*_22
REMARK    2  A    between atoms: C3*_19  and  O3*_23
REMARK    3  A    between atoms: C2*_20  and  O2*_25
REMARK    4  A    between atoms: C4*_21  and  C5*_27
REMARK    5  A    between atoms: C5*_27  and  O5*_28
REMARK                            x       y       z     vdW  Elec       q    Type
REMARK                         _______ _______ _______ _____ _____    ______ ____
ROOT
ATOM      1  O   UNL     1     -34.758  20.827   1.635  0.00  0.00    -0.083 OA
ATOM      2  N   UNL     1     -34.909  17.228  -0.303  0.00  0.00    -0.250 N 
ATOM      3  N   UNL     1     -34.813  19.704   1.029  0.00  0.00    -0.192 N 
ATOM      4  N   UNL     1     -38.275  19.763  -0.349  0.00  0.00    -0.232 NA
ATOM      5  N   UNL     1     -37.199  17.704  -0.986  0.00  0.00    -0.231 NA
ATOM      6  C   UNL     1     -37.144  20.108   0.292  0.00  0.00    +0.134 C 
ATOM      7  C   UNL     1     -36.020  19.300   0.327  0.00  0.00    +0.219 C 
ATOM      8  C   UNL     1     -36.068  18.073  -0.334  0.00  0.00    +0.143 C 
ATOM      9  C   UNL     1     -33.757  17.659   0.390  0.00  0.00    +0.076 C 
ATOM     10  C   UNL     1     -33.655  18.828   1.042  0.00  0.00    +0.119 C 
ATOM     11  C   UNL     1     -38.234  18.566  -0.956  0.00  0.00    +0.253 C 
ATOM     12  C   UNL     1     -34.899  15.988  -0.945  0.00  0.00    +0.071 C 
ATOM     13  C   UNL     1     -32.599  16.754   0.390  0.00  0.00    +0.017 C 
ATOM     14  C   UNL     1     -33.841  15.163  -0.946  0.00  0.00    +0.016 C 
ATOM     15  C   UNL     1     -32.643  15.571  -0.246  0.00  0.00    +0.003 C 
ATOM     16  N   UNL     1     -37.173  21.364   0.936  0.00  0.00    -0.297 N 
ATOM     17  H   UNL     1     -36.369  21.663   1.419  0.00  0.00    +0.150 HD
ENDROOT
BRANCH  16  22
ATOM     18  O4* UNL     1     -37.930  23.610   0.922  0.00  0.00    -0.333 OA
ATOM     19  C3* UNL     1     -39.804  23.382   2.350  0.00  0.00    +0.171 C 
ATOM     20  C2* UNL     1     -39.169  22.020   2.166  0.00  0.00    +0.186 C 
ATOM     21  C4* UNL     1     -38.678  24.316   1.935  0.00  0.00    +0.175 C 
ATOM     22  C1* UNL     1     -38.327  22.226   0.917  0.00  0.00    +0.220 C 
BRANCH  19  23
ATOM     23  O3* UNL     1     -40.881  23.556   1.430  0.00  0.00    -0.379 OA
ATOM     24  H3* UNL     1     -41.098  22.703   1.022  0.00  0.00    +0.211 HD
ENDBRANCH  19  23
BRANCH  20  25
ATOM     25  O2* UNL     1     -40.134  20.998   2.007  0.00  0.00    -0.378 OA
ATOM     26  H2* UNL     1     -39.933  20.485   1.210  0.00  0.00    +0.211 HD
ENDBRANCH  20  25
BRANCH  21  27
ATOM     27  C5* UNL     1     -37.727  24.658   3.074  0.00  0.00    +0.169 C 
BRANCH  27  28
ATOM     28  O5* UNL     1     -38.492  25.041   4.204  0.00  0.00    -0.379 OA
ATOM     29  H5* UNL     1     -38.233  24.502   4.968  0.00  0.00    +0.211 HD
ENDBRANCH  27  28
ENDBRANCH  21  27
ENDBRANCH  16  22
TORSDOF 5
ENDMDL
MODEL 8
REMARK VINA RESULT:      -5.6      2.317      3.255
REMARK  Name = 20640627
REMARK  5 active torsions:
REMARK  status: ('A' for Active; 'I' for Inactive)
REMARK    1  A    between atoms: N_16  and  C1*_22
REMARK    2  A    between atoms: C3*_19  and  O3*_23
REMARK    3  A    between atoms: C2*_20  and  O2*_25
REMARK    4  A    between atoms: C4*_21  and  C5*_27
REMARK    5  A    between atoms: C5*_27  and  O5*_28
REMARK                            x       y       z     vdW  Elec       q    Type
REMARK                         _______ _______ _______ _____ _____    ______ ____
ROOT
ATOM      1  O   UNL     1     -33.343  25.291   1.421  0.00  0.00    -0.083 OA
ATOM      2  N   UNL     1     -32.537  27.663   4.655  0.00  0.00    -0.250 N 
ATOM      3  N   UNL     1     -33.098  26.029   2.434  0.00  0.00    -0.192 N 
ATOM      4  N   UNL     1     -35.442  24.626   4.968  0.00  0.00    -0.232 NA
ATOM      5  N   UNL     1     -34.198  26.441   5.951  0.00  0.00    -0.231 NA
ATOM      6  C   UNL     1     -34.768  24.839   3.824  0.00  0.00    +0.134 C 
ATOM      7  C   UNL     1     -33.808  25.826   3.686  0.00  0.00    +0.219 C 
ATOM      8  C   UNL     1     -33.530  26.636   4.787  0.00  0.00    +0.143 C 
ATOM      9  C   UNL     1     -31.871  27.825   3.421  0.00  0.00    +0.076 C 
ATOM     10  C   UNL     1     -32.097  27.076   2.329  0.00  0.00    +0.119 C 
ATOM     11  C   UNL     1     -35.113  25.450   5.976  0.00  0.00    +0.253 C 
ATOM     12  C   UNL     1     -32.218  28.504   5.722  0.00  0.00    +0.071 C 
ATOM     13  C   UNL     1     -30.863  28.892   3.340  0.00  0.00    +0.017 C 
ATOM     14  C   UNL     1     -31.297  29.477   5.648  0.00  0.00    +0.016 C 
ATOM     15  C   UNL     1     -30.594  29.674   4.399  0.00  0.00    +0.003 C 
ATOM     16  N   UNL     1     -35.105  23.979   2.756  0.00  0.00    -0.297 N 
ATOM     17  H   UNL     1     -34.639  24.094   1.896  0.00  0.00    +0.150 HD
ENDROOT
BRANCH  16  22
ATOM     18  O4* UNL     1     -35.499  21.705   3.292  0.00  0.00    -0.333 OA
ATOM     19  C3* UNL     1     -37.119  21.206   1.638  0.00  0.00    +0.171 C 
ATOM     20  C2* UNL     1     -36.741  22.667   1.519  0.00  0.00    +0.186 C 
ATOM     21  C4* UNL     1     -35.948  20.639   2.428  0.00  0.00    +0.175 C 
ATOM     22  C1* UNL     1     -36.099  22.943   2.869  0.00  0.00    +0.220 C 
BRANCH  19  23
ATOM     23  O3* UNL     1     -38.296  21.062   2.432  0.00  0.00    -0.379 OA
ATOM     24  H3* UNL     1     -38.835  21.865   2.360  0.00  0.00    +0.211 HD
ENDBRANCH  19  23
BRANCH  20  25
ATOM     25  O2* UNL     1     -37.863  23.491   1.273  0.00  0.00    -0.378 OA
ATOM     26  H2* UNL     1     -37.719  24.000   0.461  0.00  0.00    +0.211 HD
ENDBRANCH  20  25
BRANCH  21  27
ATOM     27  C5* UNL     1     -34.778  20.215   1.550  0.00  0.00    +0.169 C 
BRANCH  27  28
ATOM     28  O5* UNL     1     -34.089  19.157   2.193  0.00  0.00    -0.379 OA
ATOM     29  H5* UNL     1     -33.359  18.856   1.629  0.00  0.00    +0.211 HD
ENDBRANCH  27  28
ENDBRANCH  21  27
ENDBRANCH  16  22
TORSDOF 5
ENDMDL
MODEL 9
REMARK VINA RESULT:      -5.6      5.224      9.773
REMARK  Name = 20640627
REMARK  5 active torsions:
REMARK  status: ('A' for Active; 'I' for Inactive)
REMARK    1  A    between atoms: N_16  and  C1*_22
REMARK    2  A    between atoms: C3*_19  and  O3*_23
REMARK    3  A    between atoms: C2*_20  and  O2*_25
REMARK    4  A    between atoms: C4*_21  and  C5*_27
REMARK    5  A    between atoms: C5*_27  and  O5*_28
REMARK                            x       y       z     vdW  Elec       q    Type
REMARK                         _______ _______ _______ _____ _____    ______ ____
ROOT
ATOM      1  O   UNL     1     -34.380  20.071   1.742  0.00  0.00    -0.083 OA
ATOM      2  N   UNL     1     -37.144  18.278  -0.683  0.00  0.00    -0.250 N 
ATOM      3  N   UNL     1     -35.249  19.515   0.988  0.00  0.00    -0.192 N 
ATOM      4  N   UNL     1     -38.229  21.679   1.557  0.00  0.00    -0.232 NA
ATOM      5  N   UNL     1     -38.796  19.938  -0.009  0.00  0.00    -0.231 NA
ATOM      6  C   UNL     1     -36.988  21.163   1.620  0.00  0.00    +0.134 C 
ATOM      7  C   UNL     1     -36.598  20.048   0.897  0.00  0.00    +0.219 C 
ATOM      8  C   UNL     1     -37.538  19.434   0.069  0.00  0.00    +0.143 C 
ATOM      9  C   UNL     1     -35.824  17.794  -0.566  0.00  0.00    +0.076 C 
ATOM     10  C   UNL     1     -34.878  18.343   0.215  0.00  0.00    +0.119 C 
ATOM     11  C   UNL     1     -39.069  21.027   0.737  0.00  0.00    +0.253 C 
ATOM     12  C   UNL     1     -38.043  17.623  -1.527  0.00  0.00    +0.071 C 
ATOM     13  C   UNL     1     -35.474  16.606  -1.358  0.00  0.00    +0.017 C 
ATOM     14  C   UNL     1     -37.722  16.539  -2.251  0.00  0.00    +0.016 C 
ATOM     15  C   UNL     1     -36.378  16.014  -2.156  0.00  0.00    +0.003 C 
ATOM     16  N   UNL     1     -36.095  21.838   2.478  0.00  0.00    -0.297 N 
ATOM     17  H   UNL     1     -35.174  21.499   2.559  0.00  0.00    +0.150 HD
ENDROOT
BRANCH  16  22
ATOM     18  O4* UNL     1     -36.166  24.207   2.518  0.00  0.00    -0.333 OA
ATOM     19  C3* UNL     1     -35.616  24.559   4.794  0.00  0.00    +0.171 C 
ATOM     20  C2* UNL     1     -35.680  23.069   4.538  0.00  0.00    +0.186 C 
ATOM     21  C4* UNL     1     -35.457  25.116   3.387  0.00  0.00    +0.175 C 
ATOM     22  C1* UNL     1     -36.472  23.000   3.242  0.00  0.00    +0.220 C 
BRANCH  19  23
ATOM     23  O3* UNL     1     -36.859  25.028   5.314  0.00  0.00    -0.379 OA
ATOM     24  H3* UNL     1     -37.542  24.962   4.628  0.00  0.00    +0.211 HD
ENDBRANCH  19  23
BRANCH  20  25
ATOM     25  O2* UNL     1     -36.310  22.372   5.595  0.00  0.00    -0.378 OA
ATOM     26  H2* UNL     1     -37.109  21.936   5.264  0.00  0.00    +0.211 HD
ENDBRANCH  20  25
BRANCH  21  27
ATOM     27  C5* UNL     1     -34.007  25.181   2.924  0.00  0.00    +0.169 C 
BRANCH  27  28
ATOM     28  O5* UNL     1     -33.181  25.412   4.052  0.00  0.00    -0.379 OA
ATOM     29  H5* UNL     1     -33.505  24.891   4.803  0.00  0.00    +0.211 HD
ENDBRANCH  27  28
ENDBRANCH  21  27
ENDBRANCH  16  22
TORSDOF 5
ENDMDL
