MODEL 1
REMARK VINA RESULT:      -5.8      0.000      0.000
REMARK  Name = 192887
REMARK  8 active torsions:
REMARK  status: ('A' for Active; 'I' for Inactive)
REMARK    1  A    between atoms: C_1  and  C_15
REMARK    2  A    between atoms: C_4  and  N_9
REMARK    3  A    between atoms: C_5  and  O_7
REMARK    4  A    between atoms: N_9  and  S_11
REMARK    5  A    between atoms: C_15  and  O_16
REMARK    6  A    between atoms: C_15  and  C_18
REMARK    7  A    between atoms: C_18  and  N_19
REMARK    8  A    between atoms: N_19  and  C_22
REMARK                            x       y       z     vdW  Elec       q    Type
REMARK                         _______ _______ _______ _____ _____    ______ ____
ROOT
ATOM      1  C   UNL     1     -35.452  26.017   4.559  0.00  0.00    +0.005 C 
ATOM      2  C   UNL     1     -34.697  25.978   5.719  0.00  0.00    +0.036 C 
ATOM      3  C   UNL     1     -35.045  26.745   3.454  0.00  0.00    -0.001 C 
ATOM      4  C   UNL     1     -33.074  27.429   4.671  0.00  0.00    +0.098 C 
ATOM      5  C   UNL     1     -33.500  26.689   5.775  0.00  0.00    +0.148 C 
ATOM      6  C   UNL     1     -33.847  27.456   3.511  0.00  0.00    +0.019 C 
ENDROOT
BRANCH   5   7
ATOM      7  O   UNL     1     -32.756  26.650   6.917  0.00  0.00    -0.504 OA
ATOM      8  H   UNL     1     -32.180  27.358   7.126  0.00  0.00    +0.292 HD
ENDBRANCH   5   7
BRANCH   4   9
ATOM      9  N   UNL     1     -31.847  28.162   4.713  0.00  0.00    -0.216 N 
ATOM     10  H   UNL     1     -31.035  27.814   4.281  0.00  0.00    +0.173 HD
BRANCH   9  11
ATOM     11  S   UNL     1     -31.831  29.670   5.543  0.00  0.00    +0.056 S 
ATOM     12  O   UNL     1     -32.917  30.486   5.032  0.00  0.00    -0.154 OA
ATOM     13  O   UNL     1     -31.665  29.475   6.971  0.00  0.00    -0.154 OA
ATOM     14  C   UNL     1     -30.321  30.363   4.908  0.00  0.00    +0.200 C 
ENDBRANCH   9  11
ENDBRANCH   4   9
BRANCH   1  15
ATOM     15  C   UNL     1     -36.751  25.244   4.496  0.00  0.00    +0.112 C 
BRANCH  15  16
ATOM     16  O   UNL     1     -37.793  26.151   4.138  0.00  0.00    -0.382 OA
ATOM     17  H   UNL     1     -38.544  26.034   4.740  0.00  0.00    +0.211 HD
ENDBRANCH  15  16
BRANCH  15  18
ATOM     18  C   UNL     1     -36.673  24.096   3.482  0.00  0.00    -0.047 C 
BRANCH  18  19
ATOM     19  N   UNL     1     -36.767  22.802   4.154  0.00  0.00    +0.387 N 
ATOM     20  H   UNL     1     -37.363  22.184   3.601  0.00  0.00    -0.084 HD
ATOM     21  H   UNL     1     -37.162  22.950   5.083  0.00  0.00    -0.084 HD
BRANCH  19  22
ATOM     22  C   UNL     1     -35.470  22.189   4.305  0.00  0.00    -0.062 C 
ATOM     23  C   UNL     1     -35.331  21.004   3.359  0.00  0.00    -0.023 C 
ATOM     24  C   UNL     1     -35.239  21.771   5.751  0.00  0.00    -0.023 C 
ENDBRANCH  19  22
ENDBRANCH  18  19
ENDBRANCH  15  18
ENDBRANCH   1  15
TORSDOF 8
ENDMDL
MODEL 2
REMARK VINA RESULT:      -5.7      0.749      1.549
REMARK  Name = 192887
REMARK  8 active torsions:
REMARK  status: ('A' for Active; 'I' for Inactive)
REMARK    1  A    between atoms: C_1  and  C_15
REMARK    2  A    between atoms: C_4  and  N_9
REMARK    3  A    between atoms: C_5  and  O_7
REMARK    4  A    between atoms: N_9  and  S_11
REMARK    5  A    between atoms: C_15  and  O_16
REMARK    6  A    between atoms: C_15  and  C_18
REMARK    7  A    between atoms: C_18  and  N_19
REMARK    8  A    between atoms: N_19  and  C_22
REMARK                            x       y       z     vdW  Elec       q    Type
REMARK                         _______ _______ _______ _____ _____    ______ ____
ROOT
ATOM      1  C   UNL     1     -35.513  26.092   4.542  0.00  0.00    +0.005 C 
ATOM      2  C   UNL     1     -35.103  26.954   3.540  0.00  0.00    +0.036 C 
ATOM      3  C   UNL     1     -34.741  25.872   5.670  0.00  0.00    -0.001 C 
ATOM      4  C   UNL     1     -33.091  27.405   4.799  0.00  0.00    +0.098 C 
ATOM      5  C   UNL     1     -33.882  27.616   3.670  0.00  0.00    +0.148 C 
ATOM      6  C   UNL     1     -33.520  26.533   5.799  0.00  0.00    +0.019 C 
ENDROOT
BRANCH   5   7
ATOM      7  O   UNL     1     -33.479  28.466   2.683  0.00  0.00    -0.504 OA
ATOM      8  H   UNL     1     -32.625  28.849   2.715  0.00  0.00    +0.292 HD
ENDBRANCH   5   7
BRANCH   4   9
ATOM      9  N   UNL     1     -31.837  28.078   4.947  0.00  0.00    -0.216 N 
ATOM     10  H   UNL     1     -31.005  27.678   4.606  0.00  0.00    +0.173 HD
BRANCH   9  11
ATOM     11  S   UNL     1     -31.824  29.605   5.742  0.00  0.00    +0.056 S 
ATOM     12  O   UNL     1     -32.841  30.445   5.136  0.00  0.00    -0.154 OA
ATOM     13  O   UNL     1     -31.768  29.440   7.181  0.00  0.00    -0.154 OA
ATOM     14  C   UNL     1     -30.249  30.227   5.201  0.00  0.00    +0.200 C 
ENDBRANCH   9  11
ENDBRANCH   4   9
BRANCH   1  15
ATOM     15  C   UNL     1     -36.838  25.374   4.404  0.00  0.00    +0.112 C 
BRANCH  15  16
ATOM     16  O   UNL     1     -37.772  26.274   3.810  0.00  0.00    -0.382 OA
ATOM     17  H   UNL     1     -37.307  26.868   3.200  0.00  0.00    +0.211 HD
ENDBRANCH  15  16
BRANCH  15  18
ATOM     18  C   UNL     1     -36.705  24.106   3.552  0.00  0.00    -0.047 C 
BRANCH  18  19
ATOM     19  N   UNL     1     -36.730  22.911   4.391  0.00  0.00    +0.387 N 
ATOM     20  H   UNL     1     -37.427  22.263   4.024  0.00  0.00    -0.084 HD
ATOM     21  H   UNL     1     -36.962  23.192   5.344  0.00  0.00    -0.084 HD
BRANCH  19  22
ATOM     22  C   UNL     1     -35.446  22.253   4.413  0.00  0.00    -0.062 C 
ATOM     23  C   UNL     1     -35.412  21.124   3.392  0.00  0.00    -0.023 C 
ATOM     24  C   UNL     1     -35.129  21.742   5.812  0.00  0.00    -0.023 C 
ENDBRANCH  19  22
ENDBRANCH  18  19
ENDBRANCH  15  18
ENDBRANCH   1  15
TORSDOF 8
ENDMDL
MODEL 3
REMARK VINA RESULT:      -5.5      3.344      4.912
REMARK  Name = 192887
REMARK  8 active torsions:
REMARK  status: ('A' for Active; 'I' for Inactive)
REMARK    1  A    between atoms: C_1  and  C_15
REMARK    2  A    between atoms: C_4  and  N_9
REMARK    3  A    between atoms: C_5  and  O_7
REMARK    4  A    between atoms: N_9  and  S_11
REMARK    5  A    between atoms: C_15  and  O_16
REMARK    6  A    between atoms: C_15  and  C_18
REMARK    7  A    between atoms: C_18  and  N_19
REMARK    8  A    between atoms: N_19  and  C_22
REMARK                            x       y       z     vdW  Elec       q    Type
REMARK                         _______ _______ _______ _____ _____    ______ ____
ROOT
ATOM      1  C   UNL     1     -35.515  21.749   2.549  0.00  0.00    +0.005 C 
ATOM      2  C   UNL     1     -35.944  22.279   3.754  0.00  0.00    +0.036 C 
ATOM      3  C   UNL     1     -35.027  22.557   1.536  0.00  0.00    -0.001 C 
ATOM      4  C   UNL     1     -35.397  24.487   2.941  0.00  0.00    +0.098 C 
ATOM      5  C   UNL     1     -35.885  23.657   3.951  0.00  0.00    +0.148 C 
ATOM      6  C   UNL     1     -34.968  23.936   1.733  0.00  0.00    +0.019 C 
ENDROOT
BRANCH   5   7
ATOM      7  O   UNL     1     -36.307  24.178   5.139  0.00  0.00    -0.504 OA
ATOM      8  H   UNL     1     -36.516  23.608   5.852  0.00  0.00    +0.292 HD
ENDBRANCH   5   7
BRANCH   4   9
ATOM      9  N   UNL     1     -35.328  25.902   3.129  0.00  0.00    -0.216 N 
ATOM     10  H   UNL     1     -36.006  26.499   2.737  0.00  0.00    +0.173 HD
BRANCH   9  11
ATOM     11  S   UNL     1     -34.025  26.536   4.059  0.00  0.00    +0.056 S 
ATOM     12  O   UNL     1     -34.488  26.735   5.420  0.00  0.00    -0.154 OA
ATOM     13  O   UNL     1     -32.799  25.808   3.797  0.00  0.00    -0.154 OA
ATOM     14  C   UNL     1     -33.869  28.148   3.325  0.00  0.00    +0.200 C 
ENDBRANCH   9  11
ENDBRANCH   4   9
BRANCH   1  15
ATOM     15  C   UNL     1     -35.577  20.253   2.334  0.00  0.00    +0.112 C 
BRANCH  15  16
ATOM     16  O   UNL     1     -36.891  19.809   2.669  0.00  0.00    -0.382 OA
ATOM     17  H   UNL     1     -37.132  20.144   3.547  0.00  0.00    +0.211 HD
ENDBRANCH  15  16
BRANCH  15  18
ATOM     18  C   UNL     1     -35.241  19.879   0.886  0.00  0.00    -0.047 C 
BRANCH  18  19
ATOM     19  N   UNL     1     -34.353  18.719   0.841  0.00  0.00    +0.387 N 
ATOM     20  H   UNL     1     -34.346  18.345  -0.108  0.00  0.00    -0.084 HD
ATOM     21  H   UNL     1     -34.699  18.024   1.502  0.00  0.00    -0.084 HD
BRANCH  19  22
ATOM     22  C   UNL     1     -33.005  19.071   1.216  0.00  0.00    -0.062 C 
ATOM     23  C   UNL     1     -32.461  20.149   0.289  0.00  0.00    -0.023 C 
ATOM     24  C   UNL     1     -32.110  17.838   1.214  0.00  0.00    -0.023 C 
ENDBRANCH  19  22
ENDBRANCH  18  19
ENDBRANCH  15  18
ENDBRANCH   1  15
TORSDOF 8
ENDMDL
MODEL 4
REMARK VINA RESULT:      -5.4      2.303      3.199
REMARK  Name = 192887
REMARK  8 active torsions:
REMARK  status: ('A' for Active; 'I' for Inactive)
REMARK    1  A    between atoms: C_1  and  C_15
REMARK    2  A    between atoms: C_4  and  N_9
REMARK    3  A    between atoms: C_5  and  O_7
REMARK    4  A    between atoms: N_9  and  S_11
REMARK    5  A    between atoms: C_15  and  O_16
REMARK    6  A    between atoms: C_15  and  C_18
REMARK    7  A    between atoms: C_18  and  N_19
REMARK    8  A    between atoms: N_19  and  C_22
REMARK                            x       y       z     vdW  Elec       q    Type
REMARK                         _______ _______ _______ _____ _____    ______ ____
ROOT
ATOM      1  C   UNL     1     -34.879  24.019   4.356  0.00  0.00    +0.005 C 
ATOM      2  C   UNL     1     -34.334  24.644   3.247  0.00  0.00    +0.036 C 
ATOM      3  C   UNL     1     -34.957  24.658   5.582  0.00  0.00    -0.001 C 
ATOM      4  C   UNL     1     -33.922  26.605   4.596  0.00  0.00    +0.098 C 
ATOM      5  C   UNL     1     -33.852  25.947   3.369  0.00  0.00    +0.148 C 
ATOM      6  C   UNL     1     -34.475  25.961   5.703  0.00  0.00    +0.019 C 
ENDROOT
BRANCH   5   7
ATOM      7  O   UNL     1     -33.317  26.561   2.276  0.00  0.00    -0.504 OA
ATOM      8  H   UNL     1     -33.825  27.182   1.792  0.00  0.00    +0.292 HD
ENDBRANCH   5   7
BRANCH   4   9
ATOM      9  N   UNL     1     -33.434  27.942   4.736  0.00  0.00    -0.216 N 
ATOM     10  H   UNL     1     -34.036  28.714   4.641  0.00  0.00    +0.173 HD
BRANCH   9  11
ATOM     11  S   UNL     1     -31.760  28.163   5.073  0.00  0.00    +0.056 S 
ATOM     12  O   UNL     1     -31.488  27.643   6.401  0.00  0.00    -0.154 OA
ATOM     13  O   UNL     1     -30.945  27.760   3.944  0.00  0.00    -0.154 OA
ATOM     14  C   UNL     1     -31.694  29.936   5.189  0.00  0.00    +0.200 C 
ENDBRANCH   9  11
ENDBRANCH   4   9
BRANCH   1  15
ATOM     15  C   UNL     1     -35.404  22.606   4.225  0.00  0.00    +0.112 C 
BRANCH  15  16
ATOM     16  O   UNL     1     -36.209  22.322   5.369  0.00  0.00    -0.382 OA
ATOM     17  H   UNL     1     -36.677  23.127   5.643  0.00  0.00    +0.211 HD
ENDBRANCH  15  16
BRANCH  15  18
ATOM     18  C   UNL     1     -36.222  22.427   2.941  0.00  0.00    -0.047 C 
BRANCH  18  19
ATOM     19  N   UNL     1     -37.655  22.467   3.226  0.00  0.00    +0.387 N 
ATOM     20  H   UNL     1     -37.789  22.618   4.226  0.00  0.00    -0.084 HD
ATOM     21  H   UNL     1     -38.065  21.579   2.935  0.00  0.00    -0.084 HD
BRANCH  19  22
ATOM     22  C   UNL     1     -38.309  23.528   2.501  0.00  0.00    -0.062 C 
ATOM     23  C   UNL     1     -38.305  24.811   3.321  0.00  0.00    -0.023 C 
ATOM     24  C   UNL     1     -39.727  23.121   2.119  0.00  0.00    -0.023 C 
ENDBRANCH  19  22
ENDBRANCH  18  19
ENDBRANCH  15  18
ENDBRANCH   1  15
TORSDOF 8
ENDMDL
MODEL 5
REMARK VINA RESULT:      -5.4      2.340      3.023
REMARK  Name = 192887
REMARK  8 active torsions:
REMARK  status: ('A' for Active; 'I' for Inactive)
REMARK    1  A    between atoms: C_1  and  C_15
REMARK    2  A    between atoms: C_4  and  N_9
REMARK    3  A    between atoms: C_5  and  O_7
REMARK    4  A    between atoms: N_9  and  S_11
REMARK    5  A    between atoms: C_15  and  O_16
REMARK    6  A    between atoms: C_15  and  C_18
REMARK    7  A    between atoms: C_18  and  N_19
REMARK    8  A    between atoms: N_19  and  C_22
REMARK                            x       y       z     vdW  Elec       q    Type
REMARK                         _______ _______ _______ _____ _____    ______ ____
ROOT
ATOM      1  C   UNL     1     -34.961  23.865   4.480  0.00  0.00    +0.005 C 
ATOM      2  C   UNL     1     -34.374  24.420   3.356  0.00  0.00    +0.036 C 
ATOM      3  C   UNL     1     -35.110  24.589   5.651  0.00  0.00    -0.001 C 
ATOM      4  C   UNL     1     -34.064  26.482   4.576  0.00  0.00    +0.098 C 
ATOM      5  C   UNL     1     -33.922  25.738   3.404  0.00  0.00    +0.148 C 
ATOM      6  C   UNL     1     -34.658  25.907   5.699  0.00  0.00    +0.019 C 
ENDROOT
BRANCH   5   7
ATOM      7  O   UNL     1     -33.345  26.284   2.296  0.00  0.00    -0.504 OA
ATOM      8  H   UNL     1     -33.862  26.789   1.700  0.00  0.00    +0.292 HD
ENDBRANCH   5   7
BRANCH   4   9
ATOM      9  N   UNL     1     -33.607  27.835   4.640  0.00  0.00    -0.216 N 
ATOM     10  H   UNL     1     -34.220  28.585   4.467  0.00  0.00    +0.173 HD
BRANCH   9  11
ATOM     11  S   UNL     1     -31.953  28.116   5.027  0.00  0.00    +0.056 S 
ATOM     12  O   UNL     1     -31.709  27.632   6.374  0.00  0.00    -0.154 OA
ATOM     13  O   UNL     1     -31.089  27.716   3.934  0.00  0.00    -0.154 OA
ATOM     14  C   UNL     1     -31.945  29.892   5.107  0.00  0.00    +0.200 C 
ENDBRANCH   9  11
ENDBRANCH   4   9
BRANCH   1  15
ATOM     15  C   UNL     1     -35.453  22.436   4.428  0.00  0.00    +0.112 C 
BRANCH  15  16
ATOM     16  O   UNL     1     -36.198  22.177   5.618  0.00  0.00    -0.382 OA
ATOM     17  H   UNL     1     -36.247  22.986   6.151  0.00  0.00    +0.211 HD
ENDBRANCH  15  16
BRANCH  15  18
ATOM     18  C   UNL     1     -36.323  22.185   3.191  0.00  0.00    -0.047 C 
BRANCH  18  19
ATOM     19  N   UNL     1     -36.363  20.762   2.862  0.00  0.00    +0.387 N 
ATOM     20  H   UNL     1     -37.335  20.455   2.838  0.00  0.00    -0.084 HD
ATOM     21  H   UNL     1     -35.838  20.254   3.573  0.00  0.00    -0.084 HD
BRANCH  19  22
ATOM     22  C   UNL     1     -35.758  20.500   1.578  0.00  0.00    -0.062 C 
ATOM     23  C   UNL     1     -34.411  19.814   1.758  0.00  0.00    -0.023 C 
ATOM     24  C   UNL     1     -35.619  21.788   0.778  0.00  0.00    -0.023 C 
ENDBRANCH  19  22
ENDBRANCH  18  19
ENDBRANCH  15  18
ENDBRANCH   1  15
TORSDOF 8
ENDMDL
MODEL 6
REMARK VINA RESULT:      -5.3      2.993      3.837
REMARK  Name = 192887
REMARK  8 active torsions:
REMARK  status: ('A' for Active; 'I' for Inactive)
REMARK    1  A    between atoms: C_1  and  C_15
REMARK    2  A    between atoms: C_4  and  N_9
REMARK    3  A    between atoms: C_5  and  O_7
REMARK    4  A    between atoms: N_9  and  S_11
REMARK    5  A    between atoms: C_15  and  O_16
REMARK    6  A    between atoms: C_15  and  C_18
REMARK    7  A    between atoms: C_18  and  N_19
REMARK    8  A    between atoms: N_19  and  C_22
REMARK                            x       y       z     vdW  Elec       q    Type
REMARK                         _______ _______ _______ _____ _____    ______ ____
ROOT
ATOM      1  C   UNL     1     -35.075  23.794   5.219  0.00  0.00    +0.005 C 
ATOM      2  C   UNL     1     -33.943  24.292   4.596  0.00  0.00    +0.036 C 
ATOM      3  C   UNL     1     -36.196  24.582   5.421  0.00  0.00    -0.001 C 
ATOM      4  C   UNL     1     -35.052  26.425   4.360  0.00  0.00    +0.098 C 
ATOM      5  C   UNL     1     -33.932  25.617   4.164  0.00  0.00    +0.148 C 
ATOM      6  C   UNL     1     -36.184  25.907   4.989  0.00  0.00    +0.019 C 
ENDROOT
BRANCH   5   7
ATOM      7  O   UNL     1     -32.817  26.107   3.550  0.00  0.00    -0.504 OA
ATOM      8  H   UNL     1     -32.748  26.082   2.617  0.00  0.00    +0.292 HD
ENDBRANCH   5   7
BRANCH   4   9
ATOM      9  N   UNL     1     -35.056  27.786   3.921  0.00  0.00    -0.216 N 
ATOM     10  H   UNL     1     -34.930  28.524   4.559  0.00  0.00    +0.173 HD
BRANCH   9  11
ATOM     11  S   UNL     1     -35.291  28.097   2.244  0.00  0.00    +0.056 S 
ATOM     12  O   UNL     1     -35.774  29.457   2.094  0.00  0.00    -0.154 OA
ATOM     13  O   UNL     1     -34.160  27.627   1.467  0.00  0.00    -0.154 OA
ATOM     14  C   UNL     1     -36.666  27.019   1.913  0.00  0.00    +0.200 C 
ENDBRANCH   9  11
ENDBRANCH   4   9
BRANCH   1  15
ATOM     15  C   UNL     1     -35.090  22.356   5.687  0.00  0.00    +0.112 C 
BRANCH  15  16
ATOM     16  O   UNL     1     -36.230  22.171   6.524  0.00  0.00    -0.382 OA
ATOM     17  H   UNL     1     -36.706  21.371   6.251  0.00  0.00    +0.211 HD
ENDBRANCH  15  16
BRANCH  15  18
ATOM     18  C   UNL     1     -35.133  21.380   4.505  0.00  0.00    -0.047 C 
BRANCH  18  19
ATOM     19  N   UNL     1     -36.272  21.667   3.635  0.00  0.00    +0.387 N 
ATOM     20  H   UNL     1     -36.540  22.644   3.753  0.00  0.00    -0.084 HD
ATOM     21  H   UNL     1     -37.038  21.047   3.894  0.00  0.00    -0.084 HD
BRANCH  19  22
ATOM     22  C   UNL     1     -35.949  21.435   2.248  0.00  0.00    -0.062 C 
ATOM     23  C   UNL     1     -34.951  20.292   2.121  0.00  0.00    -0.023 C 
ATOM     24  C   UNL     1     -35.417  22.707   1.601  0.00  0.00    -0.023 C 
ENDBRANCH  19  22
ENDBRANCH  18  19
ENDBRANCH  15  18
ENDBRANCH   1  15
TORSDOF 8
ENDMDL
MODEL 7
REMARK VINA RESULT:      -5.3      6.585      8.635
REMARK  Name = 192887
REMARK  8 active torsions:
REMARK  status: ('A' for Active; 'I' for Inactive)
REMARK    1  A    between atoms: C_1  and  C_15
REMARK    2  A    between atoms: C_4  and  N_9
REMARK    3  A    between atoms: C_5  and  O_7
REMARK    4  A    between atoms: N_9  and  S_11
REMARK    5  A    between atoms: C_15  and  O_16
REMARK    6  A    between atoms: C_15  and  C_18
REMARK    7  A    between atoms: C_18  and  N_19
REMARK    8  A    between atoms: N_19  and  C_22
REMARK                            x       y       z     vdW  Elec       q    Type
REMARK                         _______ _______ _______ _____ _____    ______ ____
ROOT
ATOM      1  C   UNL     1     -34.687  20.589   1.374  0.00  0.00    +0.005 C 
ATOM      2  C   UNL     1     -34.125  19.383   1.757  0.00  0.00    +0.036 C 
ATOM      3  C   UNL     1     -34.033  21.451   0.511  0.00  0.00    -0.001 C 
ATOM      4  C   UNL     1     -32.196  19.888   0.392  0.00  0.00    +0.098 C 
ATOM      5  C   UNL     1     -32.870  19.030   1.263  0.00  0.00    +0.148 C 
ATOM      6  C   UNL     1     -32.778  21.098   0.017  0.00  0.00    +0.019 C 
ENDROOT
BRANCH   5   7
ATOM      7  O   UNL     1     -32.318  17.842   1.640  0.00  0.00    -0.504 OA
ATOM      8  H   UNL     1     -31.661  17.441   1.106  0.00  0.00    +0.292 HD
ENDBRANCH   5   7
BRANCH   4   9
ATOM      9  N   UNL     1     -30.910  19.539  -0.124  0.00  0.00    -0.216 N 
ATOM     10  H   UNL     1     -30.086  19.840   0.322  0.00  0.00    +0.173 HD
BRANCH   9  11
ATOM     11  S   UNL     1     -30.841  18.578  -1.551  0.00  0.00    +0.056 S 
ATOM     12  O   UNL     1     -31.378  17.265  -1.245  0.00  0.00    -0.154 OA
ATOM     13  O   UNL     1     -31.322  19.320  -2.700  0.00  0.00    -0.154 OA
ATOM     14  C   UNL     1     -29.081  18.390  -1.721  0.00  0.00    +0.200 C 
ENDBRANCH   9  11
ENDBRANCH   4   9
BRANCH   1  15
ATOM     15  C   UNL     1     -36.049  20.973   1.909  0.00  0.00    +0.112 C 
BRANCH  15  16
ATOM     16  O   UNL     1     -36.509  19.920   2.755  0.00  0.00    -0.382 OA
ATOM     17  H   UNL     1     -37.357  20.171   3.153  0.00  0.00    +0.211 HD
ENDBRANCH  15  16
BRANCH  15  18
ATOM     18  C   UNL     1     -35.997  22.295   2.684  0.00  0.00    -0.047 C 
BRANCH  18  19
ATOM     19  N   UNL     1     -36.398  22.099   4.075  0.00  0.00    +0.387 N 
ATOM     20  H   UNL     1     -36.443  21.099   4.269  0.00  0.00    -0.084 HD
ATOM     21  H   UNL     1     -37.310  22.536   4.211  0.00  0.00    -0.084 HD
BRANCH  19  22
ATOM     22  C   UNL     1     -35.462  22.711   4.986  0.00  0.00    -0.062 C 
ATOM     23  C   UNL     1     -35.418  21.940   6.298  0.00  0.00    -0.023 C 
ATOM     24  C   UNL     1     -35.818  24.174   5.217  0.00  0.00    -0.023 C 
ENDBRANCH  19  22
ENDBRANCH  18  19
ENDBRANCH  15  18
ENDBRANCH   1  15
TORSDOF 8
ENDMDL
MODEL 8
REMARK VINA RESULT:      -5.2      3.193      4.115
REMARK  Name = 192887
REMARK  8 active torsions:
REMARK  status: ('A' for Active; 'I' for Inactive)
REMARK    1  A    between atoms: C_1  and  C_15
REMARK    2  A    between atoms: C_4  and  N_9
REMARK    3  A    between atoms: C_5  and  O_7
REMARK    4  A    between atoms: N_9  and  S_11
REMARK    5  A    between atoms: C_15  and  O_16
REMARK    6  A    between atoms: C_15  and  C_18
REMARK    7  A    between atoms: C_18  and  N_19
REMARK    8  A    between atoms: N_19  and  C_22
REMARK                            x       y       z     vdW  Elec       q    Type
REMARK                         _______ _______ _______ _____ _____    ______ ____
ROOT
ATOM      1  C   UNL     1     -35.363  23.738   4.508  0.00  0.00    +0.005 C 
ATOM      2  C   UNL     1     -36.569  24.364   4.244  0.00  0.00    +0.036 C 
ATOM      3  C   UNL     1     -34.172  24.442   4.533  0.00  0.00    -0.001 C 
ATOM      4  C   UNL     1     -35.392  26.461   4.016  0.00  0.00    +0.098 C 
ATOM      5  C   UNL     1     -36.584  25.735   3.995  0.00  0.00    +0.148 C 
ATOM      6  C   UNL     1     -34.186  25.814   4.284  0.00  0.00    +0.019 C 
ENDROOT
BRANCH   5   7
ATOM      7  O   UNL     1     -37.772  26.351   3.736  0.00  0.00    -0.504 OA
ATOM      8  H   UNL     1     -38.507  25.848   3.448  0.00  0.00    +0.292 HD
ENDBRANCH   5   7
BRANCH   4   9
ATOM      9  N   UNL     1     -35.391  27.869   3.765  0.00  0.00    -0.216 N 
ATOM     10  H   UNL     1     -35.353  28.515   4.506  0.00  0.00    +0.173 HD
BRANCH   9  11
ATOM     11  S   UNL     1     -35.461  28.402   2.129  0.00  0.00    +0.056 S 
ATOM     12  O   UNL     1     -34.314  27.861   1.422  0.00  0.00    -0.154 OA
ATOM     13  O   UNL     1     -36.798  28.248   1.590  0.00  0.00    -0.154 OA
ATOM     14  C   UNL     1     -35.159  30.140   2.352  0.00  0.00    +0.200 C 
ENDBRANCH   9  11
ENDBRANCH   4   9
BRANCH   1  15
ATOM     15  C   UNL     1     -35.346  22.249   4.779  0.00  0.00    +0.112 C 
BRANCH  15  16
ATOM     16  O   UNL     1     -36.128  22.000   5.946  0.00  0.00    -0.382 OA
ATOM     17  H   UNL     1     -35.818  22.566   6.671  0.00  0.00    +0.211 HD
ENDBRANCH  15  16
BRANCH  15  18
ATOM     18  C   UNL     1     -35.897  21.455   3.589  0.00  0.00    -0.047 C 
BRANCH  18  19
ATOM     19  N   UNL     1     -34.923  20.470   3.125  0.00  0.00    +0.387 N 
ATOM     20  H   UNL     1     -35.193  19.549   3.470  0.00  0.00    -0.084 HD
ATOM     21  H   UNL     1     -34.004  20.735   3.480  0.00  0.00    -0.084 HD
BRANCH  19  22
ATOM     22  C   UNL     1     -34.858  20.429   1.684  0.00  0.00    -0.062 C 
ATOM     23  C   UNL     1     -33.796  19.438   1.230  0.00  0.00    -0.023 C 
ATOM     24  C   UNL     1     -34.594  21.819   1.120  0.00  0.00    -0.023 C 
ENDBRANCH  19  22
ENDBRANCH  18  19
ENDBRANCH  15  18
ENDBRANCH   1  15
TORSDOF 8
ENDMDL
MODEL 9
REMARK VINA RESULT:      -5.2      2.191      3.041
REMARK  Name = 192887
REMARK  8 active torsions:
REMARK  status: ('A' for Active; 'I' for Inactive)
REMARK    1  A    between atoms: C_1  and  C_15
REMARK    2  A    between atoms: C_4  and  N_9
REMARK    3  A    between atoms: C_5  and  O_7
REMARK    4  A    between atoms: N_9  and  S_11
REMARK    5  A    between atoms: C_15  and  O_16
REMARK    6  A    between atoms: C_15  and  C_18
REMARK    7  A    between atoms: C_18  and  N_19
REMARK    8  A    between atoms: N_19  and  C_22
REMARK                            x       y       z     vdW  Elec       q    Type
REMARK                         _______ _______ _______ _____ _____    ______ ____
ROOT
ATOM      1  C   UNL     1     -33.762  26.789   4.939  0.00  0.00    +0.005 C 
ATOM      2  C   UNL     1     -33.049  27.732   4.218  0.00  0.00    +0.036 C 
ATOM      3  C   UNL     1     -33.509  26.561   6.281  0.00  0.00    -0.001 C 
ATOM      4  C   UNL     1     -31.783  28.248   6.209  0.00  0.00    +0.098 C 
ATOM      5  C   UNL     1     -32.052  28.466   4.858  0.00  0.00    +0.148 C 
ATOM      6  C   UNL     1     -32.511  27.295   6.921  0.00  0.00    +0.019 C 
ENDROOT
BRANCH   5   7
ATOM      7  O   UNL     1     -31.351  29.395   4.147  0.00  0.00    -0.504 OA
ATOM      8  H   UNL     1     -30.907  29.145   3.361  0.00  0.00    +0.292 HD
ENDBRANCH   5   7
BRANCH   4   9
ATOM      9  N   UNL     1     -30.764  28.995   6.880  0.00  0.00    -0.216 N 
ATOM     10  H   UNL     1     -30.996  29.720   7.504  0.00  0.00    +0.173 HD
BRANCH   9  11
ATOM     11  S   UNL     1     -29.121  28.593   6.562  0.00  0.00    +0.056 S 
ATOM     12  O   UNL     1     -28.958  27.161   6.737  0.00  0.00    -0.154 OA
ATOM     13  O   UNL     1     -28.651  29.245   5.356  0.00  0.00    -0.154 OA
ATOM     14  C   UNL     1     -28.331  29.377   7.950  0.00  0.00    +0.200 C 
ENDBRANCH   9  11
ENDBRANCH   4   9
BRANCH   1  15
ATOM     15  C   UNL     1     -34.846  25.993   4.247  0.00  0.00    +0.112 C 
BRANCH  15  16
ATOM     16  O   UNL     1     -34.358  25.595   2.966  0.00  0.00    -0.382 OA
ATOM     17  H   UNL     1     -34.137  26.383   2.446  0.00  0.00    +0.211 HD
ENDBRANCH  15  16
BRANCH  15  18
ATOM     18  C   UNL     1     -35.251  24.762   5.068  0.00  0.00    -0.047 C 
BRANCH  18  19
ATOM     19  N   UNL     1     -34.763  23.536   4.441  0.00  0.00    +0.387 N 
ATOM     20  H   UNL     1     -33.826  23.335   4.791  0.00  0.00    -0.084 HD
ATOM     21  H   UNL     1     -34.752  23.674   3.431  0.00  0.00    -0.084 HD
BRANCH  19  22
ATOM     22  C   UNL     1     -35.623  22.415   4.735  0.00  0.00    -0.062 C 
ATOM     23  C   UNL     1     -35.339  21.882   6.133  0.00  0.00    -0.023 C 
ATOM     24  C   UNL     1     -35.459  21.324   3.685  0.00  0.00    -0.023 C 
ENDBRANCH  19  22
ENDBRANCH  18  19
ENDBRANCH  15  18
ENDBRANCH   1  15
TORSDOF 8
ENDMDL
