MODEL 1
REMARK VINA RESULT:      -6.2      0.000      0.000
REMARK  Name = 193481
REMARK  10 active torsions:
REMARK  status: ('A' for Active; 'I' for Inactive)
REMARK    1  A    between atoms: N_2  and  C_19
REMARK    2  A    between atoms: C_11  and  C_16
REMARK    3  A    between atoms: C_19  and  C_20
REMARK    4  A    between atoms: C_20  and  O_21
REMARK    5  A    between atoms: C_20  and  C_23
REMARK    6  A    between atoms: C_23  and  O_24
REMARK    7  A    between atoms: C_23  and  C_26
REMARK    8  A    between atoms: C_26  and  O_27
REMARK    9  A    between atoms: C_26  and  C_29
REMARK   10  A    between atoms: C_29  and  O_30
REMARK                            x       y       z     vdW  Elec       q    Type
REMARK                         _______ _______ _______ _____ _____    ______ ____
ROOT
ATOM      1  O   UNL     1     -42.944  29.978   5.490  0.00  0.00    -0.267 OA
ATOM      2  N   UNL     1     -44.058  28.096   4.651  0.00  0.00    -0.263 N 
ATOM      3  N   UNL     1     -45.737  28.404   6.924  0.00  0.00    -0.395 NA
ATOM      4  C   UNL     1     -45.143  27.191   4.875  0.00  0.00    +0.150 C 
ATOM      5  C   UNL     1     -45.952  27.370   6.005  0.00  0.00    +0.131 C 
ATOM      6  C   UNL     1     -43.831  29.136   5.560  0.00  0.00    +0.284 C 
ATOM      7  C   UNL     1     -45.419  26.130   3.997  0.00  0.00    -0.004 C 
ATOM      8  C   UNL     1     -46.484  25.263   4.241  0.00  0.00    -0.028 C 
ATOM      9  C   UNL     1     -47.285  25.442   5.362  0.00  0.00    -0.024 C 
ATOM     10  C   UNL     1     -47.019  26.492   6.240  0.00  0.00    +0.025 C 
ATOM     11  C   UNL     1     -44.761  29.232   6.737  0.00  0.00    +0.237 C 
ATOM     12  C   UNL     1     -46.744  24.146   3.283  0.00  0.00    +0.030 C 
ATOM     13  C   UNL     1     -48.432  24.528   5.648  0.00  0.00    +0.031 C 
ENDROOT
BRANCH  11  16
ATOM     14  O   UNL     1     -45.619  30.956   8.048  0.00  0.00    -0.267 OA
ATOM     15  N   UNL     1     -43.385  30.367   8.327  0.00  0.00    -0.323 N 
ATOM     16  C   UNL     1     -44.636  30.287   7.784  0.00  0.00    +0.277 C 
ATOM     17  H   UNL     1     -43.194  31.031   9.028  0.00  0.00    +0.145 HD
ATOM     18  H   UNL     1     -42.674  29.760   8.017  0.00  0.00    +0.145 HD
ENDBRANCH  11  16
BRANCH   2  19
ATOM     19  C   UNL     1     -43.208  27.939   3.499  0.00  0.00    +0.126 C 
BRANCH  19  20
ATOM     20  C   UNL     1     -42.040  26.993   3.787  0.00  0.00    +0.159 C 
BRANCH  20  21
ATOM     21  O   UNL     1     -41.026  27.719   4.482  0.00  0.00    -0.380 OA
ATOM     22  H   UNL     1     -40.721  28.456   3.931  0.00  0.00    +0.211 HD
ENDBRANCH  20  21
BRANCH  20  23
ATOM     23  C   UNL     1     -41.442  26.381   2.505  0.00  0.00    +0.168 C 
BRANCH  23  24
ATOM     24  O   UNL     1     -42.474  25.752   1.747  0.00  0.00    -0.379 OA
ATOM     25  H   UNL     1     -43.119  26.419   1.464  0.00  0.00    +0.211 HD
ENDBRANCH  23  24
BRANCH  23  26
ATOM     26  C   UNL     1     -40.337  25.346   2.788  0.00  0.00    +0.169 C 
BRANCH  26  27
ATOM     27  O   UNL     1     -40.310  25.063   4.187  0.00  0.00    -0.379 OA
ATOM     28  H   UNL     1     -39.417  25.222   4.532  0.00  0.00    +0.211 HD
ENDBRANCH  26  27
BRANCH  26  29
ATOM     29  C   UNL     1     -38.954  25.842   2.367  0.00  0.00    +0.169 C 
BRANCH  29  30
ATOM     30  O   UNL     1     -38.343  26.492   3.477  0.00  0.00    -0.379 OA
ATOM     31  H   UNL     1     -39.028  26.899   4.031  0.00  0.00    +0.211 HD
ENDBRANCH  29  30
ENDBRANCH  26  29
ENDBRANCH  23  26
ENDBRANCH  20  23
ENDBRANCH  19  20
ENDBRANCH   2  19
TORSDOF 10
ENDMDL
MODEL 2
REMARK VINA RESULT:      -5.9      7.429     10.888
REMARK  Name = 193481
REMARK  10 active torsions:
REMARK  status: ('A' for Active; 'I' for Inactive)
REMARK    1  A    between atoms: N_2  and  C_19
REMARK    2  A    between atoms: C_11  and  C_16
REMARK    3  A    between atoms: C_19  and  C_20
REMARK    4  A    between atoms: C_20  and  O_21
REMARK    5  A    between atoms: C_20  and  C_23
REMARK    6  A    between atoms: C_23  and  O_24
REMARK    7  A    between atoms: C_23  and  C_26
REMARK    8  A    between atoms: C_26  and  O_27
REMARK    9  A    between atoms: C_26  and  C_29
REMARK   10  A    between atoms: C_29  and  O_30
REMARK                            x       y       z     vdW  Elec       q    Type
REMARK                         _______ _______ _______ _____ _____    ______ ____
ROOT
ATOM      1  O   UNL     1     -38.773  22.813   2.746  0.00  0.00    -0.267 OA
ATOM      2  N   UNL     1     -36.808  21.583   2.405  0.00  0.00    -0.263 N 
ATOM      3  N   UNL     1     -38.268  20.336   0.309  0.00  0.00    -0.395 NA
ATOM      4  C   UNL     1     -36.198  20.564   1.607  0.00  0.00    +0.150 C 
ATOM      5  C   UNL     1     -36.944  19.970   0.581  0.00  0.00    +0.131 C 
ATOM      6  C   UNL     1     -38.130  21.960   2.145  0.00  0.00    +0.284 C 
ATOM      7  C   UNL     1     -34.874  20.146   1.822  0.00  0.00    -0.004 C 
ATOM      8  C   UNL     1     -34.305  19.151   1.027  0.00  0.00    -0.028 C 
ATOM      9  C   UNL     1     -35.047  18.562   0.010  0.00  0.00    -0.024 C 
ATOM     10  C   UNL     1     -36.361  18.971  -0.211  0.00  0.00    +0.025 C 
ATOM     11  C   UNL     1     -38.836  21.254   1.020  0.00  0.00    +0.237 C 
ATOM     12  C   UNL     1     -32.894  18.733   1.288  0.00  0.00    +0.030 C 
ATOM     13  C   UNL     1     -34.462  17.495  -0.855  0.00  0.00    +0.031 C 
ENDROOT
BRANCH  11  16
ATOM     14  O   UNL     1     -40.998  20.619   0.430  0.00  0.00    -0.267 OA
ATOM     15  N   UNL     1     -40.513  22.891   0.554  0.00  0.00    -0.323 N 
ATOM     16  C   UNL     1     -40.245  21.554   0.633  0.00  0.00    +0.277 C 
ATOM     17  H   UNL     1     -41.414  23.199   0.305  0.00  0.00    +0.145 HD
ATOM     18  H   UNL     1     -39.804  23.547   0.745  0.00  0.00    +0.145 HD
ENDBRANCH  11  16
BRANCH   2  19
ATOM     19  C   UNL     1     -36.069  22.214   3.467  0.00  0.00    +0.126 C 
BRANCH  19  20
ATOM     20  C   UNL     1     -35.687  23.653   3.110  0.00  0.00    +0.159 C 
BRANCH  20  21
ATOM     21  O   UNL     1     -34.440  23.633   2.415  0.00  0.00    -0.380 OA
ATOM     22  H   UNL     1     -34.587  23.841   1.479  0.00  0.00    +0.211 HD
ENDBRANCH  20  21
BRANCH  20  23
ATOM     23  C   UNL     1     -35.565  24.560   4.350  0.00  0.00    +0.168 C 
BRANCH  23  24
ATOM     24  O   UNL     1     -36.179  23.925   5.471  0.00  0.00    -0.379 OA
ATOM     25  H   UNL     1     -35.949  22.982   5.474  0.00  0.00    +0.211 HD
ENDBRANCH  23  24
BRANCH  23  26
ATOM     26  C   UNL     1     -36.212  25.943   4.152  0.00  0.00    +0.169 C 
BRANCH  26  27
ATOM     27  O   UNL     1     -36.479  26.522   5.430  0.00  0.00    -0.379 OA
ATOM     28  H   UNL     1     -35.656  26.574   5.940  0.00  0.00    +0.211 HD
ENDBRANCH  26  27
BRANCH  26  29
ATOM     29  C   UNL     1     -37.525  25.864   3.371  0.00  0.00    +0.169 C 
BRANCH  29  30
ATOM     30  O   UNL     1     -38.489  25.180   4.166  0.00  0.00    -0.379 OA
ATOM     31  H   UNL     1     -39.380  25.384   3.840  0.00  0.00    +0.211 HD
ENDBRANCH  29  30
ENDBRANCH  26  29
ENDBRANCH  23  26
ENDBRANCH  20  23
ENDBRANCH  19  20
ENDBRANCH   2  19
TORSDOF 10
ENDMDL
MODEL 3
REMARK VINA RESULT:      -5.9      8.705     10.361
REMARK  Name = 193481
REMARK  10 active torsions:
REMARK  status: ('A' for Active; 'I' for Inactive)
REMARK    1  A    between atoms: N_2  and  C_19
REMARK    2  A    between atoms: C_11  and  C_16
REMARK    3  A    between atoms: C_19  and  C_20
REMARK    4  A    between atoms: C_20  and  O_21
REMARK    5  A    between atoms: C_20  and  C_23
REMARK    6  A    between atoms: C_23  and  O_24
REMARK    7  A    between atoms: C_23  and  C_26
REMARK    8  A    between atoms: C_26  and  O_27
REMARK    9  A    between atoms: C_26  and  C_29
REMARK   10  A    between atoms: C_29  and  O_30
REMARK                            x       y       z     vdW  Elec       q    Type
REMARK                         _______ _______ _______ _____ _____    ______ ____
ROOT
ATOM      1  O   UNL     1     -32.962  29.103   3.188  0.00  0.00    -0.267 OA
ATOM      2  N   UNL     1     -34.279  27.169   3.089  0.00  0.00    -0.263 N 
ATOM      3  N   UNL     1     -33.060  26.529   5.575  0.00  0.00    -0.395 NA
ATOM      4  C   UNL     1     -34.618  25.956   3.768  0.00  0.00    +0.150 C 
ATOM      5  C   UNL     1     -33.999  25.671   4.992  0.00  0.00    +0.131 C 
ATOM      6  C   UNL     1     -33.343  28.038   3.659  0.00  0.00    +0.284 C 
ATOM      7  C   UNL     1     -35.551  25.047   3.244  0.00  0.00    -0.004 C 
ATOM      8  C   UNL     1     -35.863  23.872   3.930  0.00  0.00    -0.028 C 
ATOM      9  C   UNL     1     -35.248  23.591   5.144  0.00  0.00    -0.024 C 
ATOM     10  C   UNL     1     -34.320  24.487   5.672  0.00  0.00    +0.025 C 
ATOM     11  C   UNL     1     -32.741  27.629   4.975  0.00  0.00    +0.237 C 
ATOM     12  C   UNL     1     -36.860  22.930   3.338  0.00  0.00    +0.030 C 
ATOM     13  C   UNL     1     -35.562  22.341   5.898  0.00  0.00    +0.031 C 
ENDROOT
BRANCH  11  16
ATOM     14  O   UNL     1     -30.645  27.963   5.933  0.00  0.00    -0.267 OA
ATOM     15  N   UNL     1     -32.179  29.710   6.006  0.00  0.00    -0.323 N 
ATOM     16  C   UNL     1     -31.731  28.458   5.696  0.00  0.00    +0.277 C 
ATOM     17  H   UNL     1     -31.591  30.340   6.483  0.00  0.00    +0.145 HD
ATOM     18  H   UNL     1     -33.091  29.984   5.753  0.00  0.00    +0.145 HD
ENDBRANCH  11  16
BRANCH   2  19
ATOM     19  C   UNL     1     -34.897  27.492   1.829  0.00  0.00    +0.126 C 
BRANCH  19  20
ATOM     20  C   UNL     1     -35.978  28.563   1.990  0.00  0.00    +0.159 C 
BRANCH  20  21
ATOM     21  O   UNL     1     -37.223  28.024   1.544  0.00  0.00    -0.380 OA
ATOM     22  H   UNL     1     -37.272  27.085   1.781  0.00  0.00    +0.211 HD
ENDBRANCH  20  21
BRANCH  20  23
ATOM     23  C   UNL     1     -35.665  29.847   1.196  0.00  0.00    +0.168 C 
BRANCH  23  24
ATOM     24  O   UNL     1     -34.375  29.736   0.595  0.00  0.00    -0.379 OA
ATOM     25  H   UNL     1     -33.900  30.577   0.693  0.00  0.00    +0.211 HD
ENDBRANCH  23  24
BRANCH  23  26
ATOM     26  C   UNL     1     -35.697  31.118   2.066  0.00  0.00    +0.169 C 
BRANCH  26  27
ATOM     27  O   UNL     1     -35.611  30.744   3.441  0.00  0.00    -0.379 OA
ATOM     28  H   UNL     1     -34.703  30.876   3.756  0.00  0.00    +0.211 HD
ENDBRANCH  26  27
BRANCH  26  29
ATOM     29  C   UNL     1     -36.976  31.929   1.862  0.00  0.00    +0.169 C 
BRANCH  29  30
ATOM     30  O   UNL     1     -37.891  31.156   1.091  0.00  0.00    -0.379 OA
ATOM     31  H   UNL     1     -37.689  31.261   0.148  0.00  0.00    +0.211 HD
ENDBRANCH  29  30
ENDBRANCH  26  29
ENDBRANCH  23  26
ENDBRANCH  20  23
ENDBRANCH  19  20
ENDBRANCH   2  19
TORSDOF 10
ENDMDL
MODEL 4
REMARK VINA RESULT:      -5.7      5.759      9.919
REMARK  Name = 193481
REMARK  10 active torsions:
REMARK  status: ('A' for Active; 'I' for Inactive)
REMARK    1  A    between atoms: N_2  and  C_19
REMARK    2  A    between atoms: C_11  and  C_16
REMARK    3  A    between atoms: C_19  and  C_20
REMARK    4  A    between atoms: C_20  and  O_21
REMARK    5  A    between atoms: C_20  and  C_23
REMARK    6  A    between atoms: C_23  and  O_24
REMARK    7  A    between atoms: C_23  and  C_26
REMARK    8  A    between atoms: C_26  and  O_27
REMARK    9  A    between atoms: C_26  and  C_29
REMARK   10  A    between atoms: C_29  and  O_30
REMARK                            x       y       z     vdW  Elec       q    Type
REMARK                         _______ _______ _______ _____ _____    ______ ____
ROOT
ATOM      1  O   UNL     1     -37.530  24.226   4.052  0.00  0.00    -0.267 OA
ATOM      2  N   UNL     1     -37.322  22.830   2.183  0.00  0.00    -0.263 N 
ATOM      3  N   UNL     1     -35.318  21.520   3.715  0.00  0.00    -0.395 NA
ATOM      4  C   UNL     1     -36.622  21.704   1.645  0.00  0.00    +0.150 C 
ATOM      5  C   UNL     1     -35.641  21.081   2.426  0.00  0.00    +0.131 C 
ATOM      6  C   UNL     1     -37.012  23.280   3.471  0.00  0.00    +0.284 C 
ATOM      7  C   UNL     1     -36.892  21.208   0.359  0.00  0.00    -0.004 C 
ATOM      8  C   UNL     1     -36.194  20.107  -0.140  0.00  0.00    -0.028 C 
ATOM      9  C   UNL     1     -35.220  19.490   0.636  0.00  0.00    -0.024 C 
ATOM     10  C   UNL     1     -34.946  19.976   1.914  0.00  0.00    +0.025 C 
ATOM     11  C   UNL     1     -35.940  22.536   4.218  0.00  0.00    +0.237 C 
ATOM     12  C   UNL     1     -36.509  19.610  -1.513  0.00  0.00    +0.030 C 
ATOM     13  C   UNL     1     -34.458  18.312   0.127  0.00  0.00    +0.031 C 
ENDROOT
BRANCH  11  16
ATOM     14  O   UNL     1     -35.819  22.171   6.516  0.00  0.00    -0.267 OA
ATOM     15  N   UNL     1     -34.792  24.069   5.647  0.00  0.00    -0.323 N 
ATOM     16  C   UNL     1     -35.508  22.906   5.597  0.00  0.00    +0.277 C 
ATOM     17  H   UNL     1     -34.458  24.405   6.509  0.00  0.00    +0.145 HD
ATOM     18  H   UNL     1     -34.611  24.571   4.819  0.00  0.00    +0.145 HD
ENDBRANCH  11  16
BRANCH   2  19
ATOM     19  C   UNL     1     -38.337  23.493   1.407  0.00  0.00    +0.126 C 
BRANCH  19  20
ATOM     20  C   UNL     1     -39.733  23.269   1.994  0.00  0.00    +0.159 C 
BRANCH  20  21
ATOM     21  O   UNL     1     -40.323  22.142   1.347  0.00  0.00    -0.380 OA
ATOM     22  H   UNL     1     -40.045  22.120   0.418  0.00  0.00    +0.211 HD
ENDBRANCH  20  21
BRANCH  20  23
ATOM     23  C   UNL     1     -40.652  24.495   1.824  0.00  0.00    +0.168 C 
BRANCH  23  24
ATOM     24  O   UNL     1     -40.498  25.031   0.510  0.00  0.00    -0.379 OA
ATOM     25  H   UNL     1     -41.372  25.222   0.135  0.00  0.00    +0.211 HD
ENDBRANCH  23  24
BRANCH  23  26
ATOM     26  C   UNL     1     -40.368  25.609   2.848  0.00  0.00    +0.169 C 
BRANCH  26  27
ATOM     27  O   UNL     1     -40.114  25.019   4.123  0.00  0.00    -0.379 OA
ATOM     28  H   UNL     1     -40.492  25.578   4.820  0.00  0.00    +0.211 HD
ENDBRANCH  26  27
BRANCH  26  29
ATOM     29  C   UNL     1     -41.539  26.582   2.989  0.00  0.00    +0.169 C 
BRANCH  29  30
ATOM     30  O   UNL     1     -41.340  27.373   4.156  0.00  0.00    -0.379 OA
ATOM     31  H   UNL     1     -40.403  27.350   4.406  0.00  0.00    +0.211 HD
ENDBRANCH  29  30
ENDBRANCH  26  29
ENDBRANCH  23  26
ENDBRANCH  20  23
ENDBRANCH  19  20
ENDBRANCH   2  19
TORSDOF 10
ENDMDL
MODEL 5
REMARK VINA RESULT:      -5.6     18.308     20.750
REMARK  Name = 193481
REMARK  10 active torsions:
REMARK  status: ('A' for Active; 'I' for Inactive)
REMARK    1  A    between atoms: N_2  and  C_19
REMARK    2  A    between atoms: C_11  and  C_16
REMARK    3  A    between atoms: C_19  and  C_20
REMARK    4  A    between atoms: C_20  and  O_21
REMARK    5  A    between atoms: C_20  and  C_23
REMARK    6  A    between atoms: C_23  and  O_24
REMARK    7  A    between atoms: C_23  and  C_26
REMARK    8  A    between atoms: C_26  and  O_27
REMARK    9  A    between atoms: C_26  and  C_29
REMARK   10  A    between atoms: C_29  and  O_30
REMARK                            x       y       z     vdW  Elec       q    Type
REMARK                         _______ _______ _______ _____ _____    ______ ____
ROOT
ATOM      1  O   UNL     1     -30.947  43.432   6.713  0.00  0.00    -0.267 OA
ATOM      2  N   UNL     1     -31.722  43.652   4.513  0.00  0.00    -0.263 N 
ATOM      3  N   UNL     1     -32.479  40.927   4.788  0.00  0.00    -0.395 NA
ATOM      4  C   UNL     1     -32.356  42.966   3.429  0.00  0.00    +0.150 C 
ATOM      5  C   UNL     1     -32.717  41.624   3.597  0.00  0.00    +0.131 C 
ATOM      6  C   UNL     1     -31.478  42.970   5.710  0.00  0.00    +0.284 C 
ATOM      7  C   UNL     1     -32.626  43.601   2.206  0.00  0.00    -0.004 C 
ATOM      8  C   UNL     1     -33.246  42.907   1.166  0.00  0.00    -0.028 C 
ATOM      9  C   UNL     1     -33.603  41.574   1.334  0.00  0.00    -0.024 C 
ATOM     10  C   UNL     1     -33.339  40.936   2.545  0.00  0.00    +0.025 C 
ATOM     11  C   UNL     1     -31.907  41.530   5.778  0.00  0.00    +0.237 C 
ATOM     12  C   UNL     1     -33.515  43.617  -0.121  0.00  0.00    +0.030 C 
ATOM     13  C   UNL     1     -34.267  40.808   0.238  0.00  0.00    +0.031 C 
ENDROOT
BRANCH  11  16
ATOM     14  O   UNL     1     -31.047  39.667   6.880  0.00  0.00    -0.267 OA
ATOM     15  N   UNL     1     -32.324  41.178   8.104  0.00  0.00    -0.323 N 
ATOM     16  C   UNL     1     -31.709  40.682   6.989  0.00  0.00    +0.277 C 
ATOM     17  H   UNL     1     -32.257  40.695   8.960  0.00  0.00    +0.145 HD
ATOM     18  H   UNL     1     -32.834  42.019   8.052  0.00  0.00    +0.145 HD
ENDBRANCH  11  16
BRANCH   2  19
ATOM     19  C   UNL     1     -31.338  45.033   4.373  0.00  0.00    +0.126 C 
BRANCH  19  20
ATOM     20  C   UNL     1     -32.503  45.976   4.686  0.00  0.00    +0.159 C 
BRANCH  20  21
ATOM     21  O   UNL     1     -32.786  46.750   3.521  0.00  0.00    -0.380 OA
ATOM     22  H   UNL     1     -33.708  46.609   3.255  0.00  0.00    +0.211 HD
ENDBRANCH  20  21
BRANCH  20  23
ATOM     23  C   UNL     1     -32.201  46.921   5.866  0.00  0.00    +0.168 C 
BRANCH  23  24
ATOM     24  O   UNL     1     -31.493  46.210   6.881  0.00  0.00    -0.379 OA
ATOM     25  H   UNL     1     -31.884  45.329   6.991  0.00  0.00    +0.211 HD
ENDBRANCH  23  24
BRANCH  23  26
ATOM     26  C   UNL     1     -33.469  47.536   6.487  0.00  0.00    +0.169 C 
BRANCH  26  27
ATOM     27  O   UNL     1     -34.575  46.665   6.248  0.00  0.00    -0.379 OA
ATOM     28  H   UNL     1     -34.338  46.020   5.562  0.00  0.00    +0.211 HD
ENDBRANCH  26  27
BRANCH  26  29
ATOM     29  C   UNL     1     -33.797  48.908   5.900  0.00  0.00    +0.169 C 
BRANCH  29  30
ATOM     30  O   UNL     1     -34.863  48.765   4.967  0.00  0.00    -0.379 OA
ATOM     31  H   UNL     1     -34.758  49.413   4.253  0.00  0.00    +0.211 HD
ENDBRANCH  29  30
ENDBRANCH  26  29
ENDBRANCH  23  26
ENDBRANCH  20  23
ENDBRANCH  19  20
ENDBRANCH   2  19
TORSDOF 10
ENDMDL
MODEL 6
REMARK VINA RESULT:      -5.6      8.666     10.482
REMARK  Name = 193481
REMARK  10 active torsions:
REMARK  status: ('A' for Active; 'I' for Inactive)
REMARK    1  A    between atoms: N_2  and  C_19
REMARK    2  A    between atoms: C_11  and  C_16
REMARK    3  A    between atoms: C_19  and  C_20
REMARK    4  A    between atoms: C_20  and  O_21
REMARK    5  A    between atoms: C_20  and  C_23
REMARK    6  A    between atoms: C_23  and  O_24
REMARK    7  A    between atoms: C_23  and  C_26
REMARK    8  A    between atoms: C_26  and  O_27
REMARK    9  A    between atoms: C_26  and  C_29
REMARK   10  A    between atoms: C_29  and  O_30
REMARK                            x       y       z     vdW  Elec       q    Type
REMARK                         _______ _______ _______ _____ _____    ______ ____
ROOT
ATOM      1  O   UNL     1     -33.064  26.230   5.101  0.00  0.00    -0.267 OA
ATOM      2  N   UNL     1     -34.529  27.067   3.475  0.00  0.00    -0.263 N 
ATOM      3  N   UNL     1     -33.193  29.536   3.925  0.00  0.00    -0.395 NA
ATOM      4  C   UNL     1     -34.911  28.238   2.747  0.00  0.00    +0.150 C 
ATOM      5  C   UNL     1     -34.232  29.439   2.992  0.00  0.00    +0.131 C 
ATOM      6  C   UNL     1     -33.491  27.148   4.411  0.00  0.00    +0.284 C 
ATOM      7  C   UNL     1     -35.944  28.216   1.795  0.00  0.00    -0.004 C 
ATOM      8  C   UNL     1     -36.294  29.373   1.099  0.00  0.00    -0.028 C 
ATOM      9  C   UNL     1     -35.620  30.564   1.343  0.00  0.00    -0.024 C 
ATOM     10  C   UNL     1     -34.593  30.595   2.286  0.00  0.00    +0.025 C 
ATOM     11  C   UNL     1     -32.835  28.488   4.593  0.00  0.00    +0.237 C 
ATOM     12  C   UNL     1     -37.399  29.309   0.096  0.00  0.00    +0.030 C 
ATOM     13  C   UNL     1     -35.975  31.817   0.613  0.00  0.00    +0.031 C 
ENDROOT
BRANCH  11  16
ATOM     14  O   UNL     1     -30.648  29.096   5.115  0.00  0.00    -0.267 OA
ATOM     15  N   UNL     1     -32.060  28.467   6.853  0.00  0.00    -0.323 N 
ATOM     16  C   UNL     1     -31.718  28.720   5.555  0.00  0.00    +0.277 C 
ATOM     17  H   UNL     1     -31.396  28.588   7.570  0.00  0.00    +0.145 HD
ATOM     18  H   UNL     1     -32.971  28.163   7.072  0.00  0.00    +0.145 HD
ENDBRANCH  11  16
BRANCH   2  19
ATOM     19  C   UNL     1     -35.206  25.817   3.248  0.00  0.00    +0.126 C 
BRANCH  19  20
ATOM     20  C   UNL     1     -36.304  25.575   4.287  0.00  0.00    +0.159 C 
BRANCH  20  21
ATOM     21  O   UNL     1     -36.337  26.687   5.181  0.00  0.00    -0.380 OA
ATOM     22  H   UNL     1     -35.494  26.746   5.657  0.00  0.00    +0.211 HD
ENDBRANCH  20  21
BRANCH  20  23
ATOM     23  C   UNL     1     -36.083  24.279   5.093  0.00  0.00    +0.168 C 
BRANCH  23  24
ATOM     24  O   UNL     1     -34.903  24.403   5.886  0.00  0.00    -0.379 OA
ATOM     25  H   UNL     1     -34.592  23.520   6.142  0.00  0.00    +0.211 HD
ENDBRANCH  23  24
BRANCH  23  26
ATOM     26  C   UNL     1     -35.949  23.030   4.202  0.00  0.00    +0.169 C 
BRANCH  26  27
ATOM     27  O   UNL     1     -37.234  22.687   3.682  0.00  0.00    -0.379 OA
ATOM     28  H   UNL     1     -37.832  23.447   3.770  0.00  0.00    +0.211 HD
ENDBRANCH  26  27
BRANCH  26  29
ATOM     29  C   UNL     1     -35.400  21.826   4.968  0.00  0.00    +0.169 C 
BRANCH  29  30
ATOM     30  O   UNL     1     -36.013  21.782   6.252  0.00  0.00    -0.379 OA
ATOM     31  H   UNL     1     -36.442  20.920   6.376  0.00  0.00    +0.211 HD
ENDBRANCH  29  30
ENDBRANCH  26  29
ENDBRANCH  23  26
ENDBRANCH  20  23
ENDBRANCH  19  20
ENDBRANCH   2  19
TORSDOF 10
ENDMDL
MODEL 7
REMARK VINA RESULT:      -5.6      7.103      9.442
REMARK  Name = 193481
REMARK  10 active torsions:
REMARK  status: ('A' for Active; 'I' for Inactive)
REMARK    1  A    between atoms: N_2  and  C_19
REMARK    2  A    between atoms: C_11  and  C_16
REMARK    3  A    between atoms: C_19  and  C_20
REMARK    4  A    between atoms: C_20  and  O_21
REMARK    5  A    between atoms: C_20  and  C_23
REMARK    6  A    between atoms: C_23  and  O_24
REMARK    7  A    between atoms: C_23  and  C_26
REMARK    8  A    between atoms: C_26  and  O_27
REMARK    9  A    between atoms: C_26  and  C_29
REMARK   10  A    between atoms: C_29  and  O_30
REMARK                            x       y       z     vdW  Elec       q    Type
REMARK                         _______ _______ _______ _____ _____    ______ ____
ROOT
ATOM      1  O   UNL     1     -33.955  24.218   4.280  0.00  0.00    -0.267 OA
ATOM      2  N   UNL     1     -35.627  25.250   3.005  0.00  0.00    -0.263 N 
ATOM      3  N   UNL     1     -37.226  23.038   3.796  0.00  0.00    -0.395 NA
ATOM      4  C   UNL     1     -36.984  25.145   2.563  0.00  0.00    +0.150 C 
ATOM      5  C   UNL     1     -37.745  24.043   2.971  0.00  0.00    +0.131 C 
ATOM      6  C   UNL     1     -35.094  24.254   3.831  0.00  0.00    +0.284 C 
ATOM      7  C   UNL     1     -37.571  26.115   1.735  0.00  0.00    -0.004 C 
ATOM      8  C   UNL     1     -38.898  25.987   1.320  0.00  0.00    -0.028 C 
ATOM      9  C   UNL     1     -39.651  24.892   1.726  0.00  0.00    -0.024 C 
ATOM     10  C   UNL     1     -39.076  23.925   2.548  0.00  0.00    +0.025 C 
ATOM     11  C   UNL     1     -36.002  23.116   4.205  0.00  0.00    +0.237 C 
ATOM     12  C   UNL     1     -39.486  27.040   0.437  0.00  0.00    +0.030 C 
ATOM     13  C   UNL     1     -41.073  24.730   1.296  0.00  0.00    +0.031 C 
ENDROOT
BRANCH  11  16
ATOM     14  O   UNL     1     -35.191  20.959   4.544  0.00  0.00    -0.267 OA
ATOM     15  N   UNL     1     -35.656  22.266   6.412  0.00  0.00    -0.323 N 
ATOM     16  C   UNL     1     -35.568  21.986   5.077  0.00  0.00    +0.277 C 
ATOM     17  H   UNL     1     -35.394  21.588   7.076  0.00  0.00    +0.145 HD
ATOM     18  H   UNL     1     -35.982  23.146   6.709  0.00  0.00    +0.145 HD
ENDBRANCH  11  16
BRANCH   2  19
ATOM     19  C   UNL     1     -34.817  26.371   2.604  0.00  0.00    +0.126 C 
BRANCH  19  20
ATOM     20  C   UNL     1     -34.656  27.385   3.739  0.00  0.00    +0.159 C 
BRANCH  20  21
ATOM     21  O   UNL     1     -35.291  28.604   3.353  0.00  0.00    -0.380 OA
ATOM     22  H   UNL     1     -36.253  28.486   3.366  0.00  0.00    +0.211 HD
ENDBRANCH  20  21
BRANCH  20  23
ATOM     23  C   UNL     1     -33.179  27.665   4.080  0.00  0.00    +0.168 C 
BRANCH  23  24
ATOM     24  O   UNL     1     -32.339  27.088   3.081  0.00  0.00    -0.379 OA
ATOM     25  H   UNL     1     -32.776  27.148   2.217  0.00  0.00    +0.211 HD
ENDBRANCH  23  24
BRANCH  23  26
ATOM     26  C   UNL     1     -32.762  27.112   5.455  0.00  0.00    +0.169 C 
BRANCH  26  27
ATOM     27  O   UNL     1     -33.923  26.643   6.142  0.00  0.00    -0.379 OA
ATOM     28  H   UNL     1     -34.477  27.398   6.394  0.00  0.00    +0.211 HD
ENDBRANCH  26  27
BRANCH  26  29
ATOM     29  C   UNL     1     -32.079  28.168   6.324  0.00  0.00    +0.169 C 
BRANCH  29  30
ATOM     30  O   UNL     1     -30.763  27.722   6.637  0.00  0.00    -0.379 OA
ATOM     31  H   UNL     1     -30.124  28.164   6.057  0.00  0.00    +0.211 HD
ENDBRANCH  29  30
ENDBRANCH  26  29
ENDBRANCH  23  26
ENDBRANCH  20  23
ENDBRANCH  19  20
ENDBRANCH   2  19
TORSDOF 10
ENDMDL
MODEL 8
REMARK VINA RESULT:      -5.6      6.297      9.347
REMARK  Name = 193481
REMARK  10 active torsions:
REMARK  status: ('A' for Active; 'I' for Inactive)
REMARK    1  A    between atoms: N_2  and  C_19
REMARK    2  A    between atoms: C_11  and  C_16
REMARK    3  A    between atoms: C_19  and  C_20
REMARK    4  A    between atoms: C_20  and  O_21
REMARK    5  A    between atoms: C_20  and  C_23
REMARK    6  A    between atoms: C_23  and  O_24
REMARK    7  A    between atoms: C_23  and  C_26
REMARK    8  A    between atoms: C_26  and  O_27
REMARK    9  A    between atoms: C_26  and  C_29
REMARK   10  A    between atoms: C_29  and  O_30
REMARK                            x       y       z     vdW  Elec       q    Type
REMARK                         _______ _______ _______ _____ _____    ______ ____
ROOT
ATOM      1  O   UNL     1     -35.116  21.703   3.668  0.00  0.00    -0.267 OA
ATOM      2  N   UNL     1     -36.867  23.256   3.567  0.00  0.00    -0.263 N 
ATOM      3  N   UNL     1     -37.878  21.584   1.503  0.00  0.00    -0.395 NA
ATOM      4  C   UNL     1     -38.092  23.586   2.906  0.00  0.00    +0.150 C 
ATOM      5  C   UNL     1     -38.563  22.741   1.893  0.00  0.00    +0.131 C 
ATOM      6  C   UNL     1     -36.170  22.103   3.189  0.00  0.00    +0.284 C 
ATOM      7  C   UNL     1     -38.833  24.730   3.244  0.00  0.00    -0.004 C 
ATOM      8  C   UNL     1     -40.026  25.026   2.582  0.00  0.00    -0.028 C 
ATOM      9  C   UNL     1     -40.492  24.186   1.578  0.00  0.00    -0.024 C 
ATOM     10  C   UNL     1     -39.763  23.049   1.235  0.00  0.00    +0.025 C 
ATOM     11  C   UNL     1     -36.769  21.270   2.089  0.00  0.00    +0.237 C 
ATOM     12  C   UNL     1     -40.785  26.253   2.970  0.00  0.00    +0.030 C 
ATOM     13  C   UNL     1     -41.764  24.480   0.853  0.00  0.00    +0.031 C 
ENDROOT
BRANCH  11  16
ATOM     14  O   UNL     1     -34.920  19.953   1.566  0.00  0.00    -0.267 OA
ATOM     15  N   UNL     1     -37.040  19.071   1.195  0.00  0.00    -0.323 N 
ATOM     16  C   UNL     1     -36.135  20.017   1.585  0.00  0.00    +0.277 C 
ATOM     17  H   UNL     1     -36.728  18.205   0.846  0.00  0.00    +0.145 HD
ATOM     18  H   UNL     1     -38.005  19.255   1.263  0.00  0.00    +0.145 HD
ENDBRANCH  11  16
BRANCH   2  19
ATOM     19  C   UNL     1     -36.354  24.104   4.612  0.00  0.00    +0.126 C 
BRANCH  19  20
ATOM     20  C   UNL     1     -35.112  24.873   4.154  0.00  0.00    +0.159 C 
BRANCH  20  21
ATOM     21  O   UNL     1     -33.969  24.318   4.805  0.00  0.00    -0.380 OA
ATOM     22  H   UNL     1     -33.269  24.988   4.856  0.00  0.00    +0.211 HD
ENDBRANCH  20  21
BRANCH  20  23
ATOM     23  C   UNL     1     -35.197  26.380   4.469  0.00  0.00    +0.168 C 
BRANCH  23  24
ATOM     24  O   UNL     1     -36.472  26.680   5.037  0.00  0.00    -0.379 OA
ATOM     25  H   UNL     1     -36.627  26.106   5.804  0.00  0.00    +0.211 HD
ENDBRANCH  23  24
BRANCH  23  26
ATOM     26  C   UNL     1     -34.989  27.268   3.228  0.00  0.00    +0.169 C 
BRANCH  26  27
ATOM     27  O   UNL     1     -35.295  28.621   3.566  0.00  0.00    -0.379 OA
ATOM     28  H   UNL     1     -35.887  28.637   4.334  0.00  0.00    +0.211 HD
ENDBRANCH  26  27
BRANCH  26  29
ATOM     29  C   UNL     1     -35.877  26.848   2.057  0.00  0.00    +0.169 C 
BRANCH  29  30
ATOM     30  O   UNL     1     -37.126  27.523   2.164  0.00  0.00    -0.379 OA
ATOM     31  H   UNL     1     -37.459  27.446   3.072  0.00  0.00    +0.211 HD
ENDBRANCH  29  30
ENDBRANCH  26  29
ENDBRANCH  23  26
ENDBRANCH  20  23
ENDBRANCH  19  20
ENDBRANCH   2  19
TORSDOF 10
ENDMDL
MODEL 9
REMARK VINA RESULT:      -5.5      6.543      9.265
REMARK  Name = 193481
REMARK  10 active torsions:
REMARK  status: ('A' for Active; 'I' for Inactive)
REMARK    1  A    between atoms: N_2  and  C_19
REMARK    2  A    between atoms: C_11  and  C_16
REMARK    3  A    between atoms: C_19  and  C_20
REMARK    4  A    between atoms: C_20  and  O_21
REMARK    5  A    between atoms: C_20  and  C_23
REMARK    6  A    between atoms: C_23  and  O_24
REMARK    7  A    between atoms: C_23  and  C_26
REMARK    8  A    between atoms: C_26  and  O_27
REMARK    9  A    between atoms: C_26  and  C_29
REMARK   10  A    between atoms: C_29  and  O_30
REMARK                            x       y       z     vdW  Elec       q    Type
REMARK                         _______ _______ _______ _____ _____    ______ ____
ROOT
ATOM      1  O   UNL     1     -40.062  23.812   0.714  0.00  0.00    -0.267 OA
ATOM      2  N   UNL     1     -38.388  23.346   2.286  0.00  0.00    -0.263 N 
ATOM      3  N   UNL     1     -38.255  26.170   2.586  0.00  0.00    -0.395 NA
ATOM      4  C   UNL     1     -37.463  23.932   3.207  0.00  0.00    +0.150 C 
ATOM      5  C   UNL     1     -37.423  25.326   3.332  0.00  0.00    +0.131 C 
ATOM      6  C   UNL     1     -39.228  24.176   1.534  0.00  0.00    +0.284 C 
ATOM      7  C   UNL     1     -36.598  23.149   3.988  0.00  0.00    -0.004 C 
ATOM      8  C   UNL     1     -35.706  23.747   4.880  0.00  0.00    -0.028 C 
ATOM      9  C   UNL     1     -35.667  25.131   5.001  0.00  0.00    -0.024 C 
ATOM     10  C   UNL     1     -36.523  25.916   4.230  0.00  0.00    +0.025 C 
ATOM     11  C   UNL     1     -39.097  25.658   1.749  0.00  0.00    +0.237 C 
ATOM     12  C   UNL     1     -34.801  22.880   5.692  0.00  0.00    +0.030 C 
ATOM     13  C   UNL     1     -34.723  25.798   5.947  0.00  0.00    +0.031 C 
ENDROOT
BRANCH  11  16
ATOM     14  O   UNL     1     -40.778  27.268   1.637  0.00  0.00    -0.267 OA
ATOM     15  N   UNL     1     -39.607  26.762  -0.309  0.00  0.00    -0.323 N 
ATOM     16  C   UNL     1     -39.926  26.659   1.016  0.00  0.00    +0.277 C 
ATOM     17  H   UNL     1     -40.093  27.394  -0.885  0.00  0.00    +0.145 HD
ATOM     18  H   UNL     1     -38.889  26.204  -0.687  0.00  0.00    +0.145 HD
ENDBRANCH  11  16
BRANCH   2  19
ATOM     19  C   UNL     1     -38.455  21.916   2.134  0.00  0.00    +0.126 C 
BRANCH  19  20
ATOM     20  C   UNL     1     -37.516  21.423   1.030  0.00  0.00    +0.159 C 
BRANCH  20  21
ATOM     21  O   UNL     1     -38.224  21.435  -0.209  0.00  0.00    -0.380 OA
ATOM     22  H   UNL     1     -37.806  22.065  -0.815  0.00  0.00    +0.211 HD
ENDBRANCH  20  21
BRANCH  20  23
ATOM     23  C   UNL     1     -36.979  20.003   1.298  0.00  0.00    +0.168 C 
BRANCH  23  24
ATOM     24  O   UNL     1     -36.715  19.845   2.691  0.00  0.00    -0.379 OA
ATOM     25  H   UNL     1     -36.048  20.494   2.969  0.00  0.00    +0.211 HD
ENDBRANCH  23  24
BRANCH  23  26
ATOM     26  C   UNL     1     -35.692  19.686   0.513  0.00  0.00    +0.169 C 
BRANCH  26  27
ATOM     27  O   UNL     1     -35.585  18.273   0.342  0.00  0.00    -0.379 OA
ATOM     28  H   UNL     1     -34.875  18.076  -0.289  0.00  0.00    +0.211 HD
ENDBRANCH  26  27
BRANCH  26  29
ATOM     29  C   UNL     1     -34.437  20.185   1.230  0.00  0.00    +0.169 C 
BRANCH  29  30
ATOM     30  O   UNL     1     -33.878  19.108   1.976  0.00  0.00    -0.379 OA
ATOM     31  H   UNL     1     -33.578  18.415   1.367  0.00  0.00    +0.211 HD
ENDBRANCH  29  30
ENDBRANCH  26  29
ENDBRANCH  23  26
ENDBRANCH  20  23
ENDBRANCH  19  20
ENDBRANCH   2  19
TORSDOF 10
ENDMDL
