MODEL 1
REMARK VINA RESULT:      -6.2      0.000      0.000
REMARK  Name = 195010
REMARK  3 active torsions:
REMARK  status: ('A' for Active; 'I' for Inactive)
REMARK    1  A    between atoms: C_5  and  C_14
REMARK    2  A    between atoms: C_6  and  C_23
REMARK    3  A    between atoms: C_17  and  N_22
REMARK                            x       y       z     vdW  Elec       q    Type
REMARK                         _______ _______ _______ _____ _____    ______ ____
ROOT
ATOM      1  N   UNL     1     -37.897  22.070   2.531  0.00  0.00    -0.337 NA
ATOM      2  N   UNL     1     -39.304  24.026   2.583  0.00  0.00    -0.317 NA
ATOM      3  N   UNL     1     -38.488  26.071   3.443  0.00  0.00    -0.335 N 
ATOM      4  N   UNL     1     -40.101  21.989   1.731  0.00  0.00    -0.283 N 
ATOM      5  C   UNL     1     -37.046  24.144   3.412  0.00  0.00    +0.138 C 
ATOM      6  C   UNL     1     -36.913  22.808   3.084  0.00  0.00    +0.112 C 
ATOM      7  C   UNL     1     -38.277  24.704   3.135  0.00  0.00    +0.178 C 
ATOM      8  C   UNL     1     -39.049  22.731   2.310  0.00  0.00    +0.196 C 
ATOM      9  H   UNL     1     -39.359  26.490   3.253  0.00  0.00    +0.144 HD
ATOM     10  H   UNL     1     -37.764  26.602   3.847  0.00  0.00    +0.144 HD
ATOM     11  H   UNL     1     -39.971  21.039   1.511  0.00  0.00    +0.156 HD
ATOM     12  H   UNL     1     -40.966  22.423   1.547  0.00  0.00    +0.156 HD
ENDROOT
BRANCH   5  14
ATOM     13  F   UNL     1     -32.872  27.038   5.715  0.00  0.00    -0.202 F 
ATOM     14  C   UNL     1     -35.961  24.895   4.005  0.00  0.00    -0.006 C 
ATOM     15  C   UNL     1     -34.962  25.435   3.196  0.00  0.00    +0.023 C 
ATOM     16  C   UNL     1     -35.915  25.078   5.387  0.00  0.00    -0.001 C 
ATOM     17  C   UNL     1     -33.916  26.160   3.769  0.00  0.00    +0.170 C 
ATOM     18  C   UNL     1     -34.870  25.802   5.960  0.00  0.00    +0.031 C 
ATOM     19  C   UNL     1     -33.870  26.344   5.150  0.00  0.00    +0.162 C 
BRANCH  17  22
ATOM     20  O   UNL     1     -33.134  27.772   2.317  0.00  0.00    -0.126 OA
ATOM     21  O   UNL     1     -31.797  26.118   2.861  0.00  0.00    -0.126 OA
ATOM     22  N   UNL     1     -32.901  26.709   2.943  0.00  0.00    +0.060 N 
ENDBRANCH  17  22
ENDBRANCH   5  14
BRANCH   6  23
ATOM     23  C   UNL     1     -35.632  22.080   3.333  0.00  0.00    +0.056 C 
ATOM     24  C   UNL     1     -35.578  20.741   2.605  0.00  0.00    +0.008 C 
ENDBRANCH   6  23
TORSDOF 3
ENDMDL
MODEL 2
REMARK VINA RESULT:      -6.2      4.103      6.159
REMARK  Name = 195010
REMARK  3 active torsions:
REMARK  status: ('A' for Active; 'I' for Inactive)
REMARK    1  A    between atoms: C_5  and  C_14
REMARK    2  A    between atoms: C_6  and  C_23
REMARK    3  A    between atoms: C_17  and  N_22
REMARK                            x       y       z     vdW  Elec       q    Type
REMARK                         _______ _______ _______ _____ _____    ______ ____
ROOT
ATOM      1  N   UNL     1     -34.715  24.834   5.693  0.00  0.00    -0.337 NA
ATOM      2  N   UNL     1     -34.360  26.120   3.686  0.00  0.00    -0.317 NA
ATOM      3  N   UNL     1     -35.155  25.340   1.601  0.00  0.00    -0.335 N 
ATOM      4  N   UNL     1     -33.576  26.883   5.763  0.00  0.00    -0.283 N 
ATOM      5  C   UNL     1     -35.534  24.020   3.579  0.00  0.00    +0.138 C 
ATOM      6  C   UNL     1     -35.354  23.911   4.944  0.00  0.00    +0.112 C 
ATOM      7  C   UNL     1     -35.010  25.158   2.999  0.00  0.00    +0.178 C 
ATOM      8  C   UNL     1     -34.250  25.897   5.010  0.00  0.00    +0.196 C 
ATOM      9  H   UNL     1     -34.789  26.145   1.169  0.00  0.00    +0.144 HD
ATOM     10  H   UNL     1     -35.623  24.661   1.063  0.00  0.00    +0.144 HD
ATOM     11  H   UNL     1     -33.466  26.772   6.734  0.00  0.00    +0.156 HD
ATOM     12  H   UNL     1     -33.216  27.683   5.315  0.00  0.00    +0.156 HD
ENDROOT
BRANCH   5  14
ATOM     13  F   UNL     1     -38.187  20.094   0.637  0.00  0.00    -0.202 F 
ATOM     14  C   UNL     1     -36.226  23.003   2.817  0.00  0.00    -0.006 C 
ATOM     15  C   UNL     1     -37.618  23.017   2.738  0.00  0.00    +0.023 C 
ATOM     16  C   UNL     1     -35.500  22.009   2.162  0.00  0.00    -0.001 C 
ATOM     17  C   UNL     1     -38.285  22.036   2.003  0.00  0.00    +0.170 C 
ATOM     18  C   UNL     1     -36.166  21.029   1.428  0.00  0.00    +0.031 C 
ATOM     19  C   UNL     1     -37.559  21.043   1.348  0.00  0.00    +0.162 C 
BRANCH  17  22
ATOM     20  O   UNL     1     -40.271  23.045   1.407  0.00  0.00    -0.126 OA
ATOM     21  O   UNL     1     -40.348  21.076   2.374  0.00  0.00    -0.126 OA
ATOM     22  N   UNL     1     -39.702  22.053   1.924  0.00  0.00    +0.060 N 
ENDBRANCH  17  22
ENDBRANCH   5  14
BRANCH   6  23
ATOM     23  C   UNL     1     -35.872  22.727   5.695  0.00  0.00    +0.056 C 
ATOM     24  C   UNL     1     -34.763  21.749   6.067  0.00  0.00    +0.008 C 
ENDBRANCH   6  23
TORSDOF 3
ENDMDL
MODEL 3
REMARK VINA RESULT:      -6.1      4.233      6.349
REMARK  Name = 195010
REMARK  3 active torsions:
REMARK  status: ('A' for Active; 'I' for Inactive)
REMARK    1  A    between atoms: C_5  and  C_14
REMARK    2  A    between atoms: C_6  and  C_23
REMARK    3  A    between atoms: C_17  and  N_22
REMARK                            x       y       z     vdW  Elec       q    Type
REMARK                         _______ _______ _______ _____ _____    ______ ____
ROOT
ATOM      1  N   UNL     1     -34.476  25.635   3.884  0.00  0.00    -0.337 NA
ATOM      2  N   UNL     1     -34.979  24.366   5.870  0.00  0.00    -0.317 NA
ATOM      3  N   UNL     1     -36.015  22.246   5.712  0.00  0.00    -0.335 N 
ATOM      4  N   UNL     1     -33.950  26.470   6.012  0.00  0.00    -0.283 N 
ATOM      5  C   UNL     1     -35.533  23.478   3.700  0.00  0.00    +0.138 C 
ATOM      6  C   UNL     1     -35.004  24.631   3.153  0.00  0.00    +0.112 C 
ATOM      7  C   UNL     1     -35.492  23.401   5.078  0.00  0.00    +0.178 C 
ATOM      8  C   UNL     1     -34.496  25.440   5.216  0.00  0.00    +0.196 C 
ATOM      9  H   UNL     1     -35.995  22.172   6.693  0.00  0.00    +0.144 HD
ATOM     10  H   UNL     1     -36.399  21.519   5.171  0.00  0.00    +0.144 HD
ATOM     11  H   UNL     1     -33.583  27.279   5.587  0.00  0.00    +0.156 HD
ATOM     12  H   UNL     1     -33.937  26.380   6.992  0.00  0.00    +0.156 HD
ENDROOT
BRANCH   5  14
ATOM     13  F   UNL     1     -37.662  19.424   0.517  0.00  0.00    -0.202 F 
ATOM     14  C   UNL     1     -36.089  22.428   2.875  0.00  0.00    -0.006 C 
ATOM     15  C   UNL     1     -37.436  22.463   2.515  0.00  0.00    +0.023 C 
ATOM     16  C   UNL     1     -35.278  21.381   2.439  0.00  0.00    -0.001 C 
ATOM     17  C   UNL     1     -37.972  21.450   1.719  0.00  0.00    +0.170 C 
ATOM     18  C   UNL     1     -35.813  20.368   1.644  0.00  0.00    +0.031 C 
ATOM     19  C   UNL     1     -37.160  20.404   1.283  0.00  0.00    +0.162 C 
BRANCH  17  22
ATOM     20  O   UNL     1     -39.655  21.879   0.202  0.00  0.00    -0.126 OA
ATOM     21  O   UNL     1     -40.206  21.132   2.192  0.00  0.00    -0.126 OA
ATOM     22  N   UNL     1     -39.343  21.489   1.354  0.00  0.00    +0.060 N 
ENDBRANCH  17  22
ENDBRANCH   5  14
BRANCH   6  23
ATOM     23  C   UNL     1     -34.987  24.842   1.673  0.00  0.00    +0.056 C 
ATOM     24  C   UNL     1     -33.578  24.770   1.096  0.00  0.00    +0.008 C 
ENDBRANCH   6  23
TORSDOF 3
ENDMDL
MODEL 4
REMARK VINA RESULT:      -5.9      3.938      5.534
REMARK  Name = 195010
REMARK  3 active torsions:
REMARK  status: ('A' for Active; 'I' for Inactive)
REMARK    1  A    between atoms: C_5  and  C_14
REMARK    2  A    between atoms: C_6  and  C_23
REMARK    3  A    between atoms: C_17  and  N_22
REMARK                            x       y       z     vdW  Elec       q    Type
REMARK                         _______ _______ _______ _____ _____    ______ ____
ROOT
ATOM      1  N   UNL     1     -36.106  24.190   5.145  0.00  0.00    -0.337 NA
ATOM      2  N   UNL     1     -36.736  25.480   3.210  0.00  0.00    -0.317 NA
ATOM      3  N   UNL     1     -36.755  24.495   1.061  0.00  0.00    -0.335 N 
ATOM      4  N   UNL     1     -36.713  26.446   5.349  0.00  0.00    -0.283 N 
ATOM      5  C   UNL     1     -36.118  23.166   2.965  0.00  0.00    +0.138 C 
ATOM      6  C   UNL     1     -35.920  23.130   4.332  0.00  0.00    +0.112 C 
ATOM      7  C   UNL     1     -36.530  24.381   2.456  0.00  0.00    +0.178 C 
ATOM      8  C   UNL     1     -36.507  25.317   4.528  0.00  0.00    +0.196 C 
ATOM      9  H   UNL     1     -37.049  25.352   0.678  0.00  0.00    +0.144 HD
ATOM     10  H   UNL     1     -36.616  23.716   0.475  0.00  0.00    +0.144 HD
ATOM     11  H   UNL     1     -36.561  26.384   6.319  0.00  0.00    +0.156 HD
ATOM     12  H   UNL     1     -37.008  27.297   4.951  0.00  0.00    +0.156 HD
ENDROOT
BRANCH   5  14
ATOM     13  F   UNL     1     -35.312  18.672  -0.239  0.00  0.00    -0.202 F 
ATOM     14  C   UNL     1     -35.905  22.001   2.133  0.00  0.00    -0.006 C 
ATOM     15  C   UNL     1     -34.652  21.769   1.565  0.00  0.00    +0.023 C 
ATOM     16  C   UNL     1     -36.952  21.111   1.899  0.00  0.00    -0.001 C 
ATOM     17  C   UNL     1     -34.447  20.646   0.763  0.00  0.00    +0.170 C 
ATOM     18  C   UNL     1     -36.748  19.989   1.097  0.00  0.00    +0.031 C 
ATOM     19  C   UNL     1     -35.495  19.756   0.529  0.00  0.00    +0.162 C 
BRANCH  17  22
ATOM     20  O   UNL     1     -32.890  20.956  -0.909  0.00  0.00    -0.126 OA
ATOM     21  O   UNL     1     -32.360  19.668   0.788  0.00  0.00    -0.126 OA
ATOM     22  N   UNL     1     -33.171  20.412   0.186  0.00  0.00    +0.060 N 
ENDBRANCH  17  22
ENDBRANCH   5  14
BRANCH   6  23
ATOM     23  C   UNL     1     -35.472  21.875   5.011  0.00  0.00    +0.056 C 
ATOM     24  C   UNL     1     -35.227  22.082   6.501  0.00  0.00    +0.008 C 
ENDBRANCH   6  23
TORSDOF 3
ENDMDL
MODEL 5
REMARK VINA RESULT:      -5.8      4.032      5.929
REMARK  Name = 195010
REMARK  3 active torsions:
REMARK  status: ('A' for Active; 'I' for Inactive)
REMARK    1  A    between atoms: C_5  and  C_14
REMARK    2  A    between atoms: C_6  and  C_23
REMARK    3  A    between atoms: C_17  and  N_22
REMARK                            x       y       z     vdW  Elec       q    Type
REMARK                         _______ _______ _______ _____ _____    ______ ____
ROOT
ATOM      1  N   UNL     1     -36.321  25.437   3.313  0.00  0.00    -0.337 NA
ATOM      2  N   UNL     1     -36.197  24.123   5.328  0.00  0.00    -0.317 NA
ATOM      3  N   UNL     1     -35.970  21.772   5.219  0.00  0.00    -0.335 N 
ATOM      4  N   UNL     1     -36.422  26.457   5.422  0.00  0.00    -0.283 N 
ATOM      5  C   UNL     1     -36.089  23.043   3.178  0.00  0.00    +0.138 C 
ATOM      6  C   UNL     1     -36.209  24.294   2.604  0.00  0.00    +0.112 C 
ATOM      7  C   UNL     1     -36.089  23.020   4.558  0.00  0.00    +0.178 C 
ATOM      8  C   UNL     1     -36.308  25.281   4.650  0.00  0.00    +0.196 C 
ATOM      9  H   UNL     1     -35.967  21.734   6.203  0.00  0.00    +0.144 HD
ATOM     10  H   UNL     1     -35.889  20.943   4.694  0.00  0.00    +0.144 HD
ATOM     11  H   UNL     1     -36.506  27.332   4.979  0.00  0.00    +0.156 HD
ATOM     12  H   UNL     1     -36.418  26.402   6.406  0.00  0.00    +0.156 HD
ENDROOT
BRANCH   5  14
ATOM     13  F   UNL     1     -35.659  18.421   0.087  0.00  0.00    -0.202 F 
ATOM     14  C   UNL     1     -35.973  21.845   2.376  0.00  0.00    -0.006 C 
ATOM     15  C   UNL     1     -34.720  21.278   2.145  0.00  0.00    +0.023 C 
ATOM     16  C   UNL     1     -37.115  21.255   1.835  0.00  0.00    -0.001 C 
ATOM     17  C   UNL     1     -34.609  20.122   1.372  0.00  0.00    +0.170 C 
ATOM     18  C   UNL     1     -37.004  20.100   1.062  0.00  0.00    +0.031 C 
ATOM     19  C   UNL     1     -35.751  19.533   0.831  0.00  0.00    +0.162 C 
BRANCH  17  22
ATOM     20  O   UNL     1     -33.070  18.424   1.634  0.00  0.00    -0.126 OA
ATOM     21  O   UNL     1     -32.499  20.178   0.445  0.00  0.00    -0.126 OA
ATOM     22  N   UNL     1     -33.331  19.547   1.139  0.00  0.00    +0.060 N 
ENDBRANCH  17  22
ENDBRANCH   5  14
BRANCH   6  23
ATOM     23  C   UNL     1     -36.224  24.460   1.119  0.00  0.00    +0.056 C 
ATOM     24  C   UNL     1     -34.868  24.895   0.573  0.00  0.00    +0.008 C 
ENDBRANCH   6  23
TORSDOF 3
ENDMDL
MODEL 6
REMARK VINA RESULT:      -5.7      4.013      5.312
REMARK  Name = 195010
REMARK  3 active torsions:
REMARK  status: ('A' for Active; 'I' for Inactive)
REMARK    1  A    between atoms: C_5  and  C_14
REMARK    2  A    between atoms: C_6  and  C_23
REMARK    3  A    between atoms: C_17  and  N_22
REMARK                            x       y       z     vdW  Elec       q    Type
REMARK                         _______ _______ _______ _____ _____    ______ ____
ROOT
ATOM      1  N   UNL     1     -35.659  21.838   4.233  0.00  0.00    -0.337 NA
ATOM      2  N   UNL     1     -35.424  23.594   5.866  0.00  0.00    -0.317 NA
ATOM      3  N   UNL     1     -36.333  25.740   5.463  0.00  0.00    -0.335 N 
ATOM      4  N   UNL     1     -34.528  21.460   6.253  0.00  0.00    -0.283 N 
ATOM      5  C   UNL     1     -36.592  24.016   3.802  0.00  0.00    +0.138 C 
ATOM      6  C   UNL     1     -36.334  22.705   3.451  0.00  0.00    +0.112 C 
ATOM      7  C   UNL     1     -36.107  24.408   5.034  0.00  0.00    +0.178 C 
ATOM      8  C   UNL     1     -35.238  22.341   5.409  0.00  0.00    +0.196 C 
ATOM      9  H   UNL     1     -35.996  26.038   6.338  0.00  0.00    +0.144 HD
ATOM     10  H   UNL     1     -36.827  26.366   4.886  0.00  0.00    +0.144 HD
ATOM     11  H   UNL     1     -34.363  20.532   5.970  0.00  0.00    +0.156 HD
ATOM     12  H   UNL     1     -34.197  21.774   7.126  0.00  0.00    +0.156 HD
ENDROOT
BRANCH   5  14
ATOM     13  F   UNL     1     -39.387  27.468   0.429  0.00  0.00    -0.202 F 
ATOM     14  C   UNL     1     -37.321  24.910   2.929  0.00  0.00    -0.006 C 
ATOM     15  C   UNL     1     -38.694  25.084   3.097  0.00  0.00    +0.023 C 
ATOM     16  C   UNL     1     -36.649  25.598   1.919  0.00  0.00    -0.001 C 
ATOM     17  C   UNL     1     -39.397  25.946   2.255  0.00  0.00    +0.170 C 
ATOM     18  C   UNL     1     -37.351  26.460   1.077  0.00  0.00    +0.031 C 
ATOM     19  C   UNL     1     -38.725  26.635   1.245  0.00  0.00    +0.162 C 
BRANCH  17  22
ATOM     20  O   UNL     1     -41.583  25.343   1.839  0.00  0.00    -0.126 OA
ATOM     21  O   UNL     1     -41.204  27.050   3.166  0.00  0.00    -0.126 OA
ATOM     22  N   UNL     1     -40.795  26.121   2.429  0.00  0.00    +0.060 N 
ENDBRANCH  17  22
ENDBRANCH   5  14
BRANCH   6  23
ATOM     23  C   UNL     1     -36.803  22.153   2.143  0.00  0.00    +0.056 C 
ATOM     24  C   UNL     1     -36.545  20.655   2.023  0.00  0.00    +0.008 C 
ENDBRANCH   6  23
TORSDOF 3
ENDMDL
MODEL 7
REMARK VINA RESULT:      -5.7      2.582      3.462
REMARK  Name = 195010
REMARK  3 active torsions:
REMARK  status: ('A' for Active; 'I' for Inactive)
REMARK    1  A    between atoms: C_5  and  C_14
REMARK    2  A    between atoms: C_6  and  C_23
REMARK    3  A    between atoms: C_17  and  N_22
REMARK                            x       y       z     vdW  Elec       q    Type
REMARK                         _______ _______ _______ _____ _____    ______ ____
ROOT
ATOM      1  N   UNL     1     -35.487  23.562   2.583  0.00  0.00    -0.337 NA
ATOM      2  N   UNL     1     -36.886  24.279   4.409  0.00  0.00    -0.317 NA
ATOM      3  N   UNL     1     -36.535  26.377   5.442  0.00  0.00    -0.335 N 
ATOM      4  N   UNL     1     -37.224  22.200   3.375  0.00  0.00    -0.283 N 
ATOM      5  C   UNL     1     -35.112  25.703   3.620  0.00  0.00    +0.138 C 
ATOM      6  C   UNL     1     -34.813  24.726   2.690  0.00  0.00    +0.112 C 
ATOM      7  C   UNL     1     -36.169  25.421   4.461  0.00  0.00    +0.178 C 
ATOM      8  C   UNL     1     -36.496  23.406   3.460  0.00  0.00    +0.196 C 
ATOM      9  H   UNL     1     -37.286  26.194   6.051  0.00  0.00    +0.144 HD
ATOM     10  H   UNL     1     -36.037  27.223   5.513  0.00  0.00    +0.144 HD
ATOM     11  H   UNL     1     -36.983  21.525   2.700  0.00  0.00    +0.156 HD
ATOM     12  H   UNL     1     -37.973  22.032   3.992  0.00  0.00    +0.156 HD
ENDROOT
BRANCH   5  14
ATOM     13  F   UNL     1     -32.220  30.464   3.906  0.00  0.00    -0.202 F 
ATOM     14  C   UNL     1     -34.359  26.937   3.698  0.00  0.00    -0.006 C 
ATOM     15  C   UNL     1     -33.313  27.059   4.612  0.00  0.00    +0.023 C 
ATOM     16  C   UNL     1     -34.681  28.003   2.859  0.00  0.00    -0.001 C 
ATOM     17  C   UNL     1     -32.587  28.249   4.686  0.00  0.00    +0.170 C 
ATOM     18  C   UNL     1     -33.957  29.192   2.933  0.00  0.00    +0.031 C 
ATOM     19  C   UNL     1     -32.909  29.315   3.847  0.00  0.00    +0.162 C 
BRANCH  17  22
ATOM     20  O   UNL     1     -31.758  28.857   6.750  0.00  0.00    -0.126 OA
ATOM     21  O   UNL     1     -30.375  27.989   5.282  0.00  0.00    -0.126 OA
ATOM     22  N   UNL     1     -31.522  28.371   5.617  0.00  0.00    +0.060 N 
ENDBRANCH  17  22
ENDBRANCH   5  14
BRANCH   6  23
ATOM     23  C   UNL     1     -33.691  24.906   1.720  0.00  0.00    +0.056 C 
ATOM     24  C   UNL     1     -34.186  25.275   0.326  0.00  0.00    +0.008 C 
ENDBRANCH   6  23
TORSDOF 3
ENDMDL
MODEL 8
REMARK VINA RESULT:      -5.6      3.746      5.714
REMARK  Name = 195010
REMARK  3 active torsions:
REMARK  status: ('A' for Active; 'I' for Inactive)
REMARK    1  A    between atoms: C_5  and  C_14
REMARK    2  A    between atoms: C_6  and  C_23
REMARK    3  A    between atoms: C_17  and  N_22
REMARK                            x       y       z     vdW  Elec       q    Type
REMARK                         _______ _______ _______ _____ _____    ______ ____
ROOT
ATOM      1  N   UNL     1     -34.641  24.976   5.911  0.00  0.00    -0.337 NA
ATOM      2  N   UNL     1     -34.798  26.926   4.504  0.00  0.00    -0.317 NA
ATOM      3  N   UNL     1     -36.329  26.991   2.704  0.00  0.00    -0.335 N 
ATOM      4  N   UNL     1     -33.282  26.849   6.294  0.00  0.00    -0.283 N 
ATOM      5  C   UNL     1     -36.208  25.020   4.082  0.00  0.00    +0.138 C 
ATOM      6  C   UNL     1     -35.606  24.404   5.162  0.00  0.00    +0.112 C 
ATOM      7  C   UNL     1     -35.758  26.294   3.798  0.00  0.00    +0.178 C 
ATOM      8  C   UNL     1     -34.289  26.219   5.532  0.00  0.00    +0.196 C 
ATOM      9  H   UNL     1     -36.023  27.900   2.485  0.00  0.00    +0.144 HD
ATOM     10  H   UNL     1     -37.033  26.565   2.163  0.00  0.00    +0.144 HD
ATOM     11  H   UNL     1     -32.875  26.380   7.057  0.00  0.00    +0.156 HD
ATOM     12  H   UNL     1     -32.986  27.760   6.062  0.00  0.00    +0.156 HD
ENDROOT
BRANCH   5  14
ATOM     13  F   UNL     1     -40.199  22.503   1.107  0.00  0.00    -0.202 F 
ATOM     14  C   UNL     1     -37.240  24.365   3.308  0.00  0.00    -0.006 C 
ATOM     15  C   UNL     1     -36.895  23.411   2.351  0.00  0.00    +0.023 C 
ATOM     16  C   UNL     1     -38.580  24.688   3.519  0.00  0.00    -0.001 C 
ATOM     17  C   UNL     1     -37.891  22.779   1.605  0.00  0.00    +0.170 C 
ATOM     18  C   UNL     1     -39.575  24.058   2.773  0.00  0.00    +0.031 C 
ATOM     19  C   UNL     1     -39.231  23.102   1.816  0.00  0.00    +0.162 C 
BRANCH  17  22
ATOM     20  O   UNL     1     -37.256  22.186  -0.531  0.00  0.00    -0.126 OA
ATOM     21  O   UNL     1     -37.514  20.598   0.962  0.00  0.00    -0.126 OA
ATOM     22  N   UNL     1     -37.537  21.808   0.633  0.00  0.00    +0.060 N 
ENDBRANCH  17  22
ENDBRANCH   5  14
BRANCH   6  23
ATOM     23  C   UNL     1     -36.000  23.023   5.576  0.00  0.00    +0.056 C 
ATOM     24  C   UNL     1     -34.792  22.146   5.888  0.00  0.00    +0.008 C 
ENDBRANCH   6  23
TORSDOF 3
ENDMDL
MODEL 9
REMARK VINA RESULT:      -5.6      1.003      2.593
REMARK  Name = 195010
REMARK  3 active torsions:
REMARK  status: ('A' for Active; 'I' for Inactive)
REMARK    1  A    between atoms: C_5  and  C_14
REMARK    2  A    between atoms: C_6  and  C_23
REMARK    3  A    between atoms: C_17  and  N_22
REMARK                            x       y       z     vdW  Elec       q    Type
REMARK                         _______ _______ _______ _____ _____    ______ ____
ROOT
ATOM      1  N   UNL     1     -39.424  23.608   2.152  0.00  0.00    -0.337 NA
ATOM      2  N   UNL     1     -38.035  21.654   2.393  0.00  0.00    -0.317 NA
ATOM      3  N   UNL     1     -35.903  21.811   3.402  0.00  0.00    -0.335 N 
ATOM      4  N   UNL     1     -40.154  21.513   1.393  0.00  0.00    -0.283 N 
ATOM      5  C   UNL     1     -37.255  23.791   3.183  0.00  0.00    +0.138 C 
ATOM      6  C   UNL     1     -38.449  24.329   2.744  0.00  0.00    +0.112 C 
ATOM      7  C   UNL     1     -37.103  22.435   2.978  0.00  0.00    +0.178 C 
ATOM      8  C   UNL     1     -39.155  22.297   2.009  0.00  0.00    +0.196 C 
ATOM      9  H   UNL     1     -35.775  20.845   3.265  0.00  0.00    +0.144 HD
ATOM     10  H   UNL     1     -35.197  22.345   3.833  0.00  0.00    +0.144 HD
ATOM     11  H   UNL     1     -40.993  21.930   1.092  0.00  0.00    +0.156 HD
ATOM     12  H   UNL     1     -40.011  20.547   1.264  0.00  0.00    +0.156 HD
ENDROOT
BRANCH   5  14
ATOM     13  F   UNL     1     -33.344  26.928   5.628  0.00  0.00    -0.202 F 
ATOM     14  C   UNL     1     -36.238  24.605   3.813  0.00  0.00    -0.006 C 
ATOM     15  C   UNL     1     -35.213  25.159   3.047  0.00  0.00    +0.023 C 
ATOM     16  C   UNL     1     -36.284  24.836   5.187  0.00  0.00    -0.001 C 
ATOM     17  C   UNL     1     -34.233  25.944   3.655  0.00  0.00    +0.170 C 
ATOM     18  C   UNL     1     -35.305  25.620   5.796  0.00  0.00    +0.031 C 
ATOM     19  C   UNL     1     -34.279  26.175   5.029  0.00  0.00    +0.162 C 
BRANCH  17  22
ATOM     20  O   UNL     1     -32.096  25.898   2.789  0.00  0.00    -0.126 OA
ATOM     21  O   UNL     1     -33.392  27.596   2.285  0.00  0.00    -0.126 OA
ATOM     22  N   UNL     1     -33.191  26.506   2.872  0.00  0.00    +0.060 N 
ENDBRANCH  17  22
ENDBRANCH   5  14
BRANCH   6  23
ATOM     23  C   UNL     1     -38.741  25.786   2.904  0.00  0.00    +0.056 C 
ATOM     24  C   UNL     1     -40.237  26.080   2.895  0.00  0.00    +0.008 C 
ENDBRANCH   6  23
TORSDOF 3
ENDMDL
