MODEL 1
REMARK VINA RESULT:      -6.5      0.000      0.000
REMARK  Name = 53462009
REMARK  15 active torsions:
REMARK  status: ('A' for Active; 'I' for Inactive)
REMARK    1  A    between atoms: C_1  and  O_2
REMARK    2  A    between atoms: C_1  and  C_4
REMARK    3  A    between atoms: C_1  and  C_20
REMARK    4  A    between atoms: C_4  and  C_5
REMARK    5  A    between atoms: C_5  and  O_6
REMARK    6  A    between atoms: C_5  and  C_8
REMARK    7  A    between atoms: C_8  and  C_9
REMARK    8  A    between atoms: C_9  and  C_10
REMARK    9  A    between atoms: C_13  and  O_16
REMARK   10  A    between atoms: C_15  and  O_18
REMARK   11  A    between atoms: C_20  and  C_21
REMARK   12  A    between atoms: C_21  and  C_22
REMARK   13  A    between atoms: C_25  and  O_28
REMARK   14  A    between atoms: C_26  and  O_30
REMARK   15  A    between atoms: C_27  and  O_32
REMARK                            x       y       z     vdW  Elec       q    Type
REMARK                         _______ _______ _______ _____ _____    ______ ____
ROOT
ATOM      1  C   UNL     1     -35.107  21.857   4.680  0.00  0.00    +0.113 C 
ENDROOT
BRANCH   1   2
ATOM      2  O   UNL     1     -35.412  20.672   5.411  0.00  0.00    -0.384 OA
ATOM      3  H   UNL     1     -36.007  20.890   6.146  0.00  0.00    +0.210 HD
ENDBRANCH   1   2
BRANCH   1   4
ATOM      4  C   UNL     1     -36.193  22.105   3.620  0.00  0.00    +0.058 C 
BRANCH   4   5
ATOM      5  C   UNL     1     -36.093  21.143   2.427  0.00  0.00    +0.113 C 
BRANCH   5   6
ATOM      6  O   UNL     1     -36.691  19.899   2.784  0.00  0.00    -0.384 OA
ATOM      7  H   UNL     1     -37.259  20.025   3.561  0.00  0.00    +0.210 HD
ENDBRANCH   5   6
BRANCH   5   8
ATOM      8  C   UNL     1     -34.648  20.910   1.961  0.00  0.00    +0.034 C 
BRANCH   8   9
ATOM      9  C   UNL     1     -34.376  19.494   1.437  0.00  0.00    +0.029 C 
BRANCH   9  10
ATOM     10  C   UNL     1     -32.969  19.363   0.908  0.00  0.00    -0.019 C 
ATOM     11  C   UNL     1     -32.248  18.189   1.128  0.00  0.00    +0.036 C 
ATOM     12  C   UNL     1     -32.389  20.415   0.200  0.00  0.00    -0.001 C 
ATOM     13  C   UNL     1     -30.947  18.068   0.639  0.00  0.00    +0.172 C 
ATOM     14  C   UNL     1     -31.088  20.294  -0.290  0.00  0.00    +0.039 C 
ATOM     15  C   UNL     1     -30.367  19.120  -0.070  0.00  0.00    +0.168 C 
BRANCH  13  16
ATOM     16  O   UNL     1     -30.254  16.915   0.858  0.00  0.00    -0.468 OA
ATOM     17  C   UNL     1     -30.454  15.852  -0.071  0.00  0.00    +0.253 C 
ENDBRANCH  13  16
BRANCH  15  18
ATOM     18  O   UNL     1     -29.097  19.012  -0.553  0.00  0.00    -0.503 OA
ATOM     19  H   UNL     1     -28.817  19.563  -1.257  0.00  0.00    +0.292 HD
ENDBRANCH  15  18
ENDBRANCH   9  10
ENDBRANCH   8   9
ENDBRANCH   5   8
ENDBRANCH   4   5
ENDBRANCH   1   4
BRANCH   1  20
ATOM     20  C   UNL     1     -35.003  23.046   5.649  0.00  0.00    +0.034 C 
BRANCH  20  21
ATOM     21  C   UNL     1     -35.952  24.206   5.318  0.00  0.00    +0.029 C 
BRANCH  21  22
ATOM     22  C   UNL     1     -35.261  25.401   4.711  0.00  0.00    -0.016 C 
ATOM     23  C   UNL     1     -35.853  26.083   3.648  0.00  0.00    +0.036 C 
ATOM     24  C   UNL     1     -34.029  25.824   5.211  0.00  0.00    +0.036 C 
ATOM     25  C   UNL     1     -33.390  26.928   4.650  0.00  0.00    +0.175 C 
ATOM     26  C   UNL     1     -35.213  27.188   3.086  0.00  0.00    +0.175 C 
ATOM     27  C   UNL     1     -33.982  27.611   3.587  0.00  0.00    +0.202 C 
BRANCH  25  28
ATOM     28  O   UNL     1     -32.187  27.331   5.147  0.00  0.00    -0.468 OA
ATOM     29  C   UNL     1     -32.194  27.959   6.428  0.00  0.00    +0.253 C 
ENDBRANCH  25  28
BRANCH  26  30
ATOM     30  O   UNL     1     -35.803  27.847   2.049  0.00  0.00    -0.468 OA
ATOM     31  C   UNL     1     -37.004  27.284   1.524  0.00  0.00    +0.253 C 
ENDBRANCH  26  30
BRANCH  27  32
ATOM     32  O   UNL     1     -33.358  28.691   3.037  0.00  0.00    -0.501 OA
ATOM     33  H   UNL     1     -33.664  29.556   3.228  0.00  0.00    +0.292 HD
ENDBRANCH  27  32
ENDBRANCH  21  22
ENDBRANCH  20  21
ENDBRANCH   1  20
TORSDOF 15
ENDMDL
MODEL 2
REMARK VINA RESULT:      -6.5      3.428      7.152
REMARK  Name = 53462009
REMARK  15 active torsions:
REMARK  status: ('A' for Active; 'I' for Inactive)
REMARK    1  A    between atoms: C_1  and  O_2
REMARK    2  A    between atoms: C_1  and  C_4
REMARK    3  A    between atoms: C_1  and  C_20
REMARK    4  A    between atoms: C_4  and  C_5
REMARK    5  A    between atoms: C_5  and  O_6
REMARK    6  A    between atoms: C_5  and  C_8
REMARK    7  A    between atoms: C_8  and  C_9
REMARK    8  A    between atoms: C_9  and  C_10
REMARK    9  A    between atoms: C_13  and  O_16
REMARK   10  A    between atoms: C_15  and  O_18
REMARK   11  A    between atoms: C_20  and  C_21
REMARK   12  A    between atoms: C_21  and  C_22
REMARK   13  A    between atoms: C_25  and  O_28
REMARK   14  A    between atoms: C_26  and  O_30
REMARK   15  A    between atoms: C_27  and  O_32
REMARK                            x       y       z     vdW  Elec       q    Type
REMARK                         _______ _______ _______ _____ _____    ______ ____
ROOT
ATOM      1  C   UNL     1     -35.895  19.860   1.167  0.00  0.00    +0.113 C 
ENDROOT
BRANCH   1   2
ATOM      2  O   UNL     1     -36.750  19.612   2.279  0.00  0.00    -0.384 OA
ATOM      3  H   UNL     1     -36.237  19.212   2.999  0.00  0.00    +0.210 HD
ENDBRANCH   1   2
BRANCH   1   4
ATOM      4  C   UNL     1     -36.717  20.431  -0.001  0.00  0.00    +0.058 C 
BRANCH   4   5
ATOM      5  C   UNL     1     -38.200  20.037   0.065  0.00  0.00    +0.113 C 
BRANCH   5   6
ATOM      6  O   UNL     1     -38.551  19.354  -1.136  0.00  0.00    -0.384 OA
ATOM      7  H   UNL     1     -38.965  19.977  -1.754  0.00  0.00    +0.210 HD
ENDBRANCH   5   6
BRANCH   5   8
ATOM      8  C   UNL     1     -39.134  21.239   0.271  0.00  0.00    +0.034 C 
BRANCH   8   9
ATOM      9  C   UNL     1     -38.537  22.583  -0.166  0.00  0.00    +0.029 C 
BRANCH   9  10
ATOM     10  C   UNL     1     -38.848  23.674   0.829  0.00  0.00    -0.019 C 
ATOM     11  C   UNL     1     -38.811  25.011   0.432  0.00  0.00    +0.036 C 
ATOM     12  C   UNL     1     -39.173  23.346   2.145  0.00  0.00    -0.001 C 
ATOM     13  C   UNL     1     -39.099  26.019   1.353  0.00  0.00    +0.172 C 
ATOM     14  C   UNL     1     -39.461  24.354   3.066  0.00  0.00    +0.039 C 
ATOM     15  C   UNL     1     -39.425  25.691   2.669  0.00  0.00    +0.168 C 
BRANCH  13  16
ATOM     16  O   UNL     1     -39.062  27.321   0.952  0.00  0.00    -0.468 OA
ATOM     17  C   UNL     1     -37.885  27.758   0.276  0.00  0.00    +0.253 C 
ENDBRANCH  13  16
BRANCH  15  18
ATOM     18  O   UNL     1     -39.708  26.668   3.576  0.00  0.00    -0.503 OA
ATOM     19  H   UNL     1     -39.959  27.521   3.281  0.00  0.00    +0.292 HD
ENDBRANCH  15  18
ENDBRANCH   9  10
ENDBRANCH   8   9
ENDBRANCH   5   8
ENDBRANCH   4   5
ENDBRANCH   1   4
BRANCH   1  20
ATOM     20  C   UNL     1     -34.780  20.835   1.582  0.00  0.00    +0.034 C 
BRANCH  20  21
ATOM     21  C   UNL     1     -35.029  22.287   1.153  0.00  0.00    +0.029 C 
BRANCH  21  22
ATOM     22  C   UNL     1     -35.400  23.202   2.293  0.00  0.00    -0.016 C 
ATOM     23  C   UNL     1     -35.488  24.578   2.082  0.00  0.00    +0.036 C 
ATOM     24  C   UNL     1     -35.655  22.672   3.559  0.00  0.00    +0.036 C 
ATOM     25  C   UNL     1     -35.998  23.518   4.612  0.00  0.00    +0.175 C 
ATOM     26  C   UNL     1     -35.830  25.424   3.137  0.00  0.00    +0.175 C 
ATOM     27  C   UNL     1     -36.085  24.894   4.402  0.00  0.00    +0.202 C 
BRANCH  25  28
ATOM     28  O   UNL     1     -36.244  22.989   5.843  0.00  0.00    -0.468 OA
ATOM     29  C   UNL     1     -35.243  22.132   6.391  0.00  0.00    +0.253 C 
ENDBRANCH  25  28
BRANCH  26  30
ATOM     30  O   UNL     1     -35.913  26.767   2.918  0.00  0.00    -0.468 OA
ATOM     31  C   UNL     1     -34.690  27.501   2.928  0.00  0.00    +0.253 C 
ENDBRANCH  26  30
BRANCH  27  32
ATOM     32  O   UNL     1     -36.420  25.722   5.433  0.00  0.00    -0.501 OA
ATOM     33  H   UNL     1     -37.308  26.003   5.538  0.00  0.00    +0.292 HD
ENDBRANCH  27  32
ENDBRANCH  21  22
ENDBRANCH  20  21
ENDBRANCH   1  20
TORSDOF 15
ENDMDL
MODEL 3
REMARK VINA RESULT:      -6.4      2.913      6.345
REMARK  Name = 53462009
REMARK  15 active torsions:
REMARK  status: ('A' for Active; 'I' for Inactive)
REMARK    1  A    between atoms: C_1  and  O_2
REMARK    2  A    between atoms: C_1  and  C_4
REMARK    3  A    between atoms: C_1  and  C_20
REMARK    4  A    between atoms: C_4  and  C_5
REMARK    5  A    between atoms: C_5  and  O_6
REMARK    6  A    between atoms: C_5  and  C_8
REMARK    7  A    between atoms: C_8  and  C_9
REMARK    8  A    between atoms: C_9  and  C_10
REMARK    9  A    between atoms: C_13  and  O_16
REMARK   10  A    between atoms: C_15  and  O_18
REMARK   11  A    between atoms: C_20  and  C_21
REMARK   12  A    between atoms: C_21  and  C_22
REMARK   13  A    between atoms: C_25  and  O_28
REMARK   14  A    between atoms: C_26  and  O_30
REMARK   15  A    between atoms: C_27  and  O_32
REMARK                            x       y       z     vdW  Elec       q    Type
REMARK                         _______ _______ _______ _____ _____    ______ ____
ROOT
ATOM      1  C   UNL     1     -35.440  22.380   0.462  0.00  0.00    +0.113 C 
ENDROOT
BRANCH   1   2
ATOM      2  O   UNL     1     -35.981  21.876  -0.756  0.00  0.00    -0.384 OA
ATOM      3  H   UNL     1     -36.942  21.777  -0.667  0.00  0.00    +0.210 HD
ENDBRANCH   1   2
BRANCH   1   4
ATOM      4  C   UNL     1     -34.308  21.458   0.946  0.00  0.00    +0.058 C 
BRANCH   4   5
ATOM      5  C   UNL     1     -34.811  20.318   1.845  0.00  0.00    +0.113 C 
BRANCH   5   6
ATOM      6  O   UNL     1     -35.416  19.318   1.028  0.00  0.00    -0.384 OA
ATOM      7  H   UNL     1     -35.598  18.530   1.565  0.00  0.00    +0.210 HD
ENDBRANCH   5   6
BRANCH   5   8
ATOM      8  C   UNL     1     -35.807  20.789   2.914  0.00  0.00    +0.034 C 
BRANCH   8   9
ATOM      9  C   UNL     1     -35.153  21.296   4.206  0.00  0.00    +0.029 C 
BRANCH   9  10
ATOM     10  C   UNL     1     -35.548  22.721   4.502  0.00  0.00    -0.019 C 
ATOM     11  C   UNL     1     -36.648  23.289   3.858  0.00  0.00    +0.036 C 
ATOM     12  C   UNL     1     -34.814  23.472   5.420  0.00  0.00    -0.001 C 
ATOM     13  C   UNL     1     -37.013  24.607   4.133  0.00  0.00    +0.172 C 
ATOM     14  C   UNL     1     -35.178  24.791   5.694  0.00  0.00    +0.039 C 
ATOM     15  C   UNL     1     -36.279  25.358   5.051  0.00  0.00    +0.168 C 
BRANCH  13  16
ATOM     16  O   UNL     1     -38.091  25.149   3.499  0.00  0.00    -0.468 OA
ATOM     17  C   UNL     1     -38.763  24.328   2.547  0.00  0.00    +0.253 C 
ENDBRANCH  13  16
BRANCH  15  18
ATOM     18  O   UNL     1     -36.626  26.646   5.327  0.00  0.00    -0.503 OA
ATOM     19  H   UNL     1     -37.523  26.864   5.489  0.00  0.00    +0.292 HD
ENDBRANCH  15  18
ENDBRANCH   9  10
ENDBRANCH   8   9
ENDBRANCH   5   8
ENDBRANCH   4   5
ENDBRANCH   1   4
BRANCH   1  20
ATOM     20  C   UNL     1     -34.926  23.813   0.243  0.00  0.00    +0.034 C 
BRANCH  20  21
ATOM     21  C   UNL     1     -33.997  24.319   1.355  0.00  0.00    +0.029 C 
BRANCH  21  22
ATOM     22  C   UNL     1     -34.353  25.693   1.864  0.00  0.00    -0.016 C 
ATOM     23  C   UNL     1     -33.520  26.334   2.782  0.00  0.00    +0.036 C 
ATOM     24  C   UNL     1     -35.516  26.324   1.418  0.00  0.00    +0.036 C 
ATOM     25  C   UNL     1     -35.844  27.594   1.889  0.00  0.00    +0.175 C 
ATOM     26  C   UNL     1     -33.850  27.605   3.253  0.00  0.00    +0.175 C 
ATOM     27  C   UNL     1     -35.012  28.235   2.807  0.00  0.00    +0.202 C 
BRANCH  25  28
ATOM     28  O   UNL     1     -36.982  28.199   1.447  0.00  0.00    -0.468 OA
ATOM     29  C   UNL     1     -37.843  27.426   0.612  0.00  0.00    +0.253 C 
ENDBRANCH  25  28
BRANCH  26  30
ATOM     30  O   UNL     1     -33.028  28.220   4.149  0.00  0.00    -0.468 OA
ATOM     31  C   UNL     1     -32.780  27.537   5.376  0.00  0.00    +0.253 C 
ENDBRANCH  26  30
BRANCH  27  32
ATOM     32  O   UNL     1     -35.333  29.477   3.268  0.00  0.00    -0.501 OA
ATOM     33  H   UNL     1     -34.719  30.180   3.187  0.00  0.00    +0.292 HD
ENDBRANCH  27  32
ENDBRANCH  21  22
ENDBRANCH  20  21
ENDBRANCH   1  20
TORSDOF 15
ENDMDL
MODEL 4
REMARK VINA RESULT:      -6.4      2.913      5.867
REMARK  Name = 53462009
REMARK  15 active torsions:
REMARK  status: ('A' for Active; 'I' for Inactive)
REMARK    1  A    between atoms: C_1  and  O_2
REMARK    2  A    between atoms: C_1  and  C_4
REMARK    3  A    between atoms: C_1  and  C_20
REMARK    4  A    between atoms: C_4  and  C_5
REMARK    5  A    between atoms: C_5  and  O_6
REMARK    6  A    between atoms: C_5  and  C_8
REMARK    7  A    between atoms: C_8  and  C_9
REMARK    8  A    between atoms: C_9  and  C_10
REMARK    9  A    between atoms: C_13  and  O_16
REMARK   10  A    between atoms: C_15  and  O_18
REMARK   11  A    between atoms: C_20  and  C_21
REMARK   12  A    between atoms: C_21  and  C_22
REMARK   13  A    between atoms: C_25  and  O_28
REMARK   14  A    between atoms: C_26  and  O_30
REMARK   15  A    between atoms: C_27  and  O_32
REMARK                            x       y       z     vdW  Elec       q    Type
REMARK                         _______ _______ _______ _____ _____    ______ ____
ROOT
ATOM      1  C   UNL     1     -35.544  22.307   0.493  0.00  0.00    +0.113 C 
ENDROOT
BRANCH   1   2
ATOM      2  O   UNL     1     -36.155  21.777  -0.681  0.00  0.00    -0.384 OA
ATOM      3  H   UNL     1     -35.919  20.840  -0.773  0.00  0.00    +0.210 HD
ENDBRANCH   1   2
BRANCH   1   4
ATOM      4  C   UNL     1     -34.386  21.394   0.931  0.00  0.00    +0.058 C 
BRANCH   4   5
ATOM      5  C   UNL     1     -34.838  20.268   1.872  0.00  0.00    +0.113 C 
BRANCH   5   6
ATOM      6  O   UNL     1     -35.449  19.236   1.101  0.00  0.00    -0.384 OA
ATOM      7  H   UNL     1     -36.138  18.803   1.629  0.00  0.00    +0.210 HD
ENDBRANCH   5   6
BRANCH   5   8
ATOM      8  C   UNL     1     -35.809  20.748   2.961  0.00  0.00    +0.034 C 
BRANCH   8   9
ATOM      9  C   UNL     1     -35.125  21.287   4.224  0.00  0.00    +0.029 C 
BRANCH   9  10
ATOM     10  C   UNL     1     -35.526  22.714   4.502  0.00  0.00    -0.019 C 
ATOM     11  C   UNL     1     -36.637  23.265   3.862  0.00  0.00    +0.036 C 
ATOM     12  C   UNL     1     -34.787  23.484   5.400  0.00  0.00    -0.001 C 
ATOM     13  C   UNL     1     -37.007  24.585   4.120  0.00  0.00    +0.172 C 
ATOM     14  C   UNL     1     -35.158  24.804   5.659  0.00  0.00    +0.039 C 
ATOM     15  C   UNL     1     -36.269  25.354   5.018  0.00  0.00    +0.168 C 
BRANCH  13  16
ATOM     16  O   UNL     1     -38.095  25.110   3.489  0.00  0.00    -0.468 OA
ATOM     17  C   UNL     1     -38.761  24.276   2.544  0.00  0.00    +0.253 C 
ENDBRANCH  13  16
BRANCH  15  18
ATOM     18  O   UNL     1     -36.621  26.644   5.278  0.00  0.00    -0.503 OA
ATOM     19  H   UNL     1     -37.324  26.827   5.871  0.00  0.00    +0.292 HD
ENDBRANCH  15  18
ENDBRANCH   9  10
ENDBRANCH   8   9
ENDBRANCH   5   8
ENDBRANCH   4   5
ENDBRANCH   1   4
BRANCH   1  20
ATOM     20  C   UNL     1     -35.043  23.733   0.212  0.00  0.00    +0.034 C 
BRANCH  20  21
ATOM     21  C   UNL     1     -34.010  24.243   1.227  0.00  0.00    +0.029 C 
BRANCH  21  22
ATOM     22  C   UNL     1     -34.324  25.612   1.776  0.00  0.00    -0.016 C 
ATOM     23  C   UNL     1     -35.481  26.277   1.372  0.00  0.00    +0.036 C 
ATOM     24  C   UNL     1     -33.456  26.213   2.689  0.00  0.00    +0.036 C 
ATOM     25  C   UNL     1     -33.746  27.479   3.197  0.00  0.00    +0.175 C 
ATOM     26  C   UNL     1     -35.770  27.544   1.880  0.00  0.00    +0.175 C 
ATOM     27  C   UNL     1     -34.903  28.144   2.793  0.00  0.00    +0.202 C 
BRANCH  25  28
ATOM     28  O   UNL     1     -32.891  28.055   4.088  0.00  0.00    -0.468 OA
ATOM     29  C   UNL     1     -32.811  27.464   5.384  0.00  0.00    +0.253 C 
ENDBRANCH  25  28
BRANCH  26  30
ATOM     30  O   UNL     1     -36.904  28.183   1.477  0.00  0.00    -0.468 OA
ATOM     31  C   UNL     1     -37.856  27.414   0.745  0.00  0.00    +0.253 C 
ENDBRANCH  26  30
BRANCH  27  32
ATOM     32  O   UNL     1     -35.187  29.382   3.289  0.00  0.00    -0.501 OA
ATOM     33  H   UNL     1     -34.621  29.772   3.927  0.00  0.00    +0.292 HD
ENDBRANCH  27  32
ENDBRANCH  21  22
ENDBRANCH  20  21
ENDBRANCH   1  20
TORSDOF 15
ENDMDL
MODEL 5
REMARK VINA RESULT:      -6.3      1.594      8.982
REMARK  Name = 53462009
REMARK  15 active torsions:
REMARK  status: ('A' for Active; 'I' for Inactive)
REMARK    1  A    between atoms: C_1  and  O_2
REMARK    2  A    between atoms: C_1  and  C_4
REMARK    3  A    between atoms: C_1  and  C_20
REMARK    4  A    between atoms: C_4  and  C_5
REMARK    5  A    between atoms: C_5  and  O_6
REMARK    6  A    between atoms: C_5  and  C_8
REMARK    7  A    between atoms: C_8  and  C_9
REMARK    8  A    between atoms: C_9  and  C_10
REMARK    9  A    between atoms: C_13  and  O_16
REMARK   10  A    between atoms: C_15  and  O_18
REMARK   11  A    between atoms: C_20  and  C_21
REMARK   12  A    between atoms: C_21  and  C_22
REMARK   13  A    between atoms: C_25  and  O_28
REMARK   14  A    between atoms: C_26  and  O_30
REMARK   15  A    between atoms: C_27  and  O_32
REMARK                            x       y       z     vdW  Elec       q    Type
REMARK                         _______ _______ _______ _____ _____    ______ ____
ROOT
ATOM      1  C   UNL     1     -36.178  21.122   2.454  0.00  0.00    +0.113 C 
ENDROOT
BRANCH   1   2
ATOM      2  O   UNL     1     -36.696  19.833   2.774  0.00  0.00    -0.384 OA
ATOM      3  H   UNL     1     -36.427  19.198   2.090  0.00  0.00    +0.210 HD
ENDBRANCH   1   2
BRANCH   1   4
ATOM      4  C   UNL     1     -36.303  22.047   3.677  0.00  0.00    +0.058 C 
BRANCH   4   5
ATOM      5  C   UNL     1     -35.172  21.846   4.695  0.00  0.00    +0.113 C 
BRANCH   5   6
ATOM      6  O   UNL     1     -35.433  20.664   5.449  0.00  0.00    -0.384 OA
ATOM      7  H   UNL     1     -36.384  20.601   5.634  0.00  0.00    +0.210 HD
ENDBRANCH   5   6
BRANCH   5   8
ATOM      8  C   UNL     1     -34.998  23.040   5.645  0.00  0.00    +0.034 C 
BRANCH   8   9
ATOM      9  C   UNL     1     -35.938  24.217   5.358  0.00  0.00    +0.029 C 
BRANCH   9  10
ATOM     10  C   UNL     1     -35.205  25.363   4.705  0.00  0.00    -0.019 C 
ATOM     11  C   UNL     1     -34.096  25.930   5.334  0.00  0.00    +0.036 C 
ATOM     12  C   UNL     1     -35.636  25.856   3.474  0.00  0.00    -0.001 C 
ATOM     13  C   UNL     1     -33.418  26.990   4.730  0.00  0.00    +0.172 C 
ATOM     14  C   UNL     1     -34.958  26.916   2.870  0.00  0.00    +0.039 C 
ATOM     15  C   UNL     1     -33.849  27.482   3.498  0.00  0.00    +0.168 C 
BRANCH  13  16
ATOM     16  O   UNL     1     -32.335  27.533   5.353  0.00  0.00    -0.468 OA
ATOM     17  C   UNL     1     -32.344  27.540   6.779  0.00  0.00    +0.253 C 
ENDBRANCH  13  16
BRANCH  15  18
ATOM     18  O   UNL     1     -33.195  28.516   2.899  0.00  0.00    -0.503 OA
ATOM     19  H   UNL     1     -33.476  28.824   2.060  0.00  0.00    +0.292 HD
ENDBRANCH  15  18
ENDBRANCH   9  10
ENDBRANCH   8   9
ENDBRANCH   5   8
ENDBRANCH   4   5
ENDBRANCH   1   4
BRANCH   1  20
ATOM     20  C   UNL     1     -34.711  20.991   2.012  0.00  0.00    +0.034 C 
BRANCH  20  21
ATOM     21  C   UNL     1     -34.535  20.476   0.577  0.00  0.00    +0.029 C 
BRANCH  21  22
ATOM     22  C   UNL     1     -33.924  19.099   0.498  0.00  0.00    -0.016 C 
ATOM     23  C   UNL     1     -34.662  18.037  -0.024  0.00  0.00    +0.036 C 
ATOM     24  C   UNL     1     -32.619  18.888   0.947  0.00  0.00    +0.036 C 
ATOM     25  C   UNL     1     -32.054  17.615   0.874  0.00  0.00    +0.175 C 
ATOM     26  C   UNL     1     -34.096  16.764  -0.096  0.00  0.00    +0.175 C 
ATOM     27  C   UNL     1     -32.792  16.553   0.352  0.00  0.00    +0.202 C 
BRANCH  25  28
ATOM     28  O   UNL     1     -30.780  17.422   1.315  0.00  0.00    -0.468 OA
ATOM     29  C   UNL     1     -29.735  18.043   0.569  0.00  0.00    +0.253 C 
ENDBRANCH  25  28
BRANCH  26  30
ATOM     30  O   UNL     1     -34.829  15.735  -0.608  0.00  0.00    -0.468 OA
ATOM     31  C   UNL     1     -36.238  15.774  -0.395  0.00  0.00    +0.253 C 
ENDBRANCH  26  30
BRANCH  27  32
ATOM     32  O   UNL     1     -32.240  15.308   0.281  0.00  0.00    -0.501 OA
ATOM     33  H   UNL     1     -32.092  14.817   1.065  0.00  0.00    +0.292 HD
ENDBRANCH  27  32
ENDBRANCH  21  22
ENDBRANCH  20  21
ENDBRANCH   1  20
TORSDOF 15
ENDMDL
MODEL 6
REMARK VINA RESULT:      -6.2      1.784      3.205
REMARK  Name = 53462009
REMARK  15 active torsions:
REMARK  status: ('A' for Active; 'I' for Inactive)
REMARK    1  A    between atoms: C_1  and  O_2
REMARK    2  A    between atoms: C_1  and  C_4
REMARK    3  A    between atoms: C_1  and  C_20
REMARK    4  A    between atoms: C_4  and  C_5
REMARK    5  A    between atoms: C_5  and  O_6
REMARK    6  A    between atoms: C_5  and  C_8
REMARK    7  A    between atoms: C_8  and  C_9
REMARK    8  A    between atoms: C_9  and  C_10
REMARK    9  A    between atoms: C_13  and  O_16
REMARK   10  A    between atoms: C_15  and  O_18
REMARK   11  A    between atoms: C_20  and  C_21
REMARK   12  A    between atoms: C_21  and  C_22
REMARK   13  A    between atoms: C_25  and  O_28
REMARK   14  A    between atoms: C_26  and  O_30
REMARK   15  A    between atoms: C_27  and  O_32
REMARK                            x       y       z     vdW  Elec       q    Type
REMARK                         _______ _______ _______ _____ _____    ______ ____
ROOT
ATOM      1  C   UNL     1     -38.782  21.424   1.798  0.00  0.00    +0.113 C 
ENDROOT
BRANCH   1   2
ATOM      2  O   UNL     1     -40.114  20.960   1.602  0.00  0.00    -0.384 OA
ATOM      3  H   UNL     1     -40.577  20.935   2.455  0.00  0.00    +0.210 HD
ENDBRANCH   1   2
BRANCH   1   4
ATOM      4  C   UNL     1     -37.877  20.888   0.675  0.00  0.00    +0.058 C 
BRANCH   4   5
ATOM      5  C   UNL     1     -36.798  19.924   1.189  0.00  0.00    +0.113 C 
BRANCH   5   6
ATOM      6  O   UNL     1     -36.988  19.718   2.587  0.00  0.00    -0.384 OA
ATOM      7  H   UNL     1     -37.906  19.450   2.752  0.00  0.00    +0.210 HD
ENDBRANCH   5   6
BRANCH   5   8
ATOM      8  C   UNL     1     -35.369  20.424   0.927  0.00  0.00    +0.034 C 
BRANCH   8   9
ATOM      9  C   UNL     1     -34.312  19.835   1.870  0.00  0.00    +0.029 C 
BRANCH   9  10
ATOM     10  C   UNL     1     -33.104  19.348   1.109  0.00  0.00    -0.019 C 
ATOM     11  C   UNL     1     -32.738  18.003   1.168  0.00  0.00    +0.036 C 
ATOM     12  C   UNL     1     -32.353  20.243   0.346  0.00  0.00    -0.001 C 
ATOM     13  C   UNL     1     -31.620  17.554   0.464  0.00  0.00    +0.172 C 
ATOM     14  C   UNL     1     -31.235  19.793  -0.358  0.00  0.00    +0.039 C 
ATOM     15  C   UNL     1     -30.869  18.448  -0.299  0.00  0.00    +0.168 C 
BRANCH  13  16
ATOM     16  O   UNL     1     -31.273  16.237   0.528  0.00  0.00    -0.468 OA
ATOM     17  C   UNL     1     -32.072  15.320  -0.218  0.00  0.00    +0.253 C 
ENDBRANCH  13  16
BRANCH  15  18
ATOM     18  O   UNL     1     -29.776  18.020  -0.991  0.00  0.00    -0.503 OA
ATOM     19  H   UNL     1     -29.796  17.993  -1.928  0.00  0.00    +0.292 HD
ENDBRANCH  15  18
ENDBRANCH   9  10
ENDBRANCH   8   9
ENDBRANCH   5   8
ENDBRANCH   4   5
ENDBRANCH   1   4
BRANCH   1  20
ATOM     20  C   UNL     1     -38.772  22.962   1.824  0.00  0.00    +0.034 C 
BRANCH  20  21
ATOM     21  C   UNL     1     -37.400  23.582   1.524  0.00  0.00    +0.029 C 
BRANCH  21  22
ATOM     22  C   UNL     1     -36.705  24.135   2.743  0.00  0.00    -0.016 C 
ATOM     23  C   UNL     1     -36.228  25.445   2.740  0.00  0.00    +0.036 C 
ATOM     24  C   UNL     1     -36.539  23.335   3.875  0.00  0.00    +0.036 C 
ATOM     25  C   UNL     1     -35.897  23.846   5.002  0.00  0.00    +0.175 C 
ATOM     26  C   UNL     1     -35.584  25.955   3.867  0.00  0.00    +0.175 C 
ATOM     27  C   UNL     1     -35.419  25.156   4.998  0.00  0.00    +0.202 C 
BRANCH  25  28
ATOM     28  O   UNL     1     -35.741  23.055   6.100  0.00  0.00    -0.468 OA
ATOM     29  C   UNL     1     -35.005  21.845   5.927  0.00  0.00    +0.253 C 
ENDBRANCH  25  28
BRANCH  26  30
ATOM     30  O   UNL     1     -35.122  27.238   3.851  0.00  0.00    -0.468 OA
ATOM     31  C   UNL     1     -33.872  27.468   3.205  0.00  0.00    +0.253 C 
ENDBRANCH  26  30
BRANCH  27  32
ATOM     32  O   UNL     1     -34.790  25.656   6.100  0.00  0.00    -0.501 OA
ATOM     33  H   UNL     1     -35.060  25.386   6.956  0.00  0.00    +0.292 HD
ENDBRANCH  27  32
ENDBRANCH  21  22
ENDBRANCH  20  21
ENDBRANCH   1  20
TORSDOF 15
ENDMDL
MODEL 7
REMARK VINA RESULT:      -6.2      3.502      6.276
REMARK  Name = 53462009
REMARK  15 active torsions:
REMARK  status: ('A' for Active; 'I' for Inactive)
REMARK    1  A    between atoms: C_1  and  O_2
REMARK    2  A    between atoms: C_1  and  C_4
REMARK    3  A    between atoms: C_1  and  C_20
REMARK    4  A    between atoms: C_4  and  C_5
REMARK    5  A    between atoms: C_5  and  O_6
REMARK    6  A    between atoms: C_5  and  C_8
REMARK    7  A    between atoms: C_8  and  C_9
REMARK    8  A    between atoms: C_9  and  C_10
REMARK    9  A    between atoms: C_13  and  O_16
REMARK   10  A    between atoms: C_15  and  O_18
REMARK   11  A    between atoms: C_20  and  C_21
REMARK   12  A    between atoms: C_21  and  C_22
REMARK   13  A    between atoms: C_25  and  O_28
REMARK   14  A    between atoms: C_26  and  O_30
REMARK   15  A    between atoms: C_27  and  O_32
REMARK                            x       y       z     vdW  Elec       q    Type
REMARK                         _______ _______ _______ _____ _____    ______ ____
ROOT
ATOM      1  C   UNL     1     -36.069  20.092   1.611  0.00  0.00    +0.113 C 
ENDROOT
BRANCH   1   2
ATOM      2  O   UNL     1     -36.950  19.642   2.636  0.00  0.00    -0.384 OA
ATOM      3  H   UNL     1     -37.744  19.255   2.234  0.00  0.00    +0.210 HD
ENDBRANCH   1   2
BRANCH   1   4
ATOM      4  C   UNL     1     -36.888  20.609   0.415  0.00  0.00    +0.058 C 
BRANCH   4   5
ATOM      5  C   UNL     1     -38.131  21.402   0.843  0.00  0.00    +0.113 C 
BRANCH   5   6
ATOM      6  O   UNL     1     -39.272  20.550   0.772  0.00  0.00    -0.384 OA
ATOM      7  H   UNL     1     -40.068  21.056   0.999  0.00  0.00    +0.210 HD
ENDBRANCH   5   6
BRANCH   5   8
ATOM      8  C   UNL     1     -38.367  22.658  -0.009  0.00  0.00    +0.034 C 
BRANCH   8   9
ATOM      9  C   UNL     1     -37.097  23.232  -0.650  0.00  0.00    +0.029 C 
BRANCH   9  10
ATOM     10  C   UNL     1     -36.575  24.417   0.124  0.00  0.00    -0.019 C 
ATOM     11  C   UNL     1     -37.373  25.550   0.287  0.00  0.00    +0.036 C 
ATOM     12  C   UNL     1     -35.295  24.380   0.676  0.00  0.00    -0.001 C 
ATOM     13  C   UNL     1     -36.890  26.646   1.004  0.00  0.00    +0.172 C 
ATOM     14  C   UNL     1     -34.811  25.476   1.393  0.00  0.00    +0.039 C 
ATOM     15  C   UNL     1     -35.610  26.608   1.557  0.00  0.00    +0.168 C 
BRANCH  13  16
ATOM     16  O   UNL     1     -37.679  27.745   1.159  0.00  0.00    -0.468 OA
ATOM     17  C   UNL     1     -37.520  28.796   0.208  0.00  0.00    +0.253 C 
ENDBRANCH  13  16
BRANCH  15  18
ATOM     18  O   UNL     1     -35.127  27.672   2.258  0.00  0.00    -0.503 OA
ATOM     19  H   UNL     1     -35.720  28.252   2.695  0.00  0.00    +0.292 HD
ENDBRANCH  15  18
ENDBRANCH   9  10
ENDBRANCH   8   9
ENDBRANCH   5   8
ENDBRANCH   4   5
ENDBRANCH   1   4
BRANCH   1  20
ATOM     20  C   UNL     1     -35.153  21.194   2.167  0.00  0.00    +0.034 C 
BRANCH  20  21
ATOM     21  C   UNL     1     -35.257  21.384   3.687  0.00  0.00    +0.029 C 
BRANCH  21  22
ATOM     22  C   UNL     1     -35.636  22.784   4.098  0.00  0.00    -0.016 C 
ATOM     23  C   UNL     1     -36.879  23.305   3.736  0.00  0.00    +0.036 C 
ATOM     24  C   UNL     1     -34.745  23.560   4.841  0.00  0.00    +0.036 C 
ATOM     25  C   UNL     1     -35.096  24.855   5.221  0.00  0.00    +0.175 C 
ATOM     26  C   UNL     1     -37.229  24.601   4.116  0.00  0.00    +0.175 C 
ATOM     27  C   UNL     1     -36.338  25.375   4.859  0.00  0.00    +0.202 C 
BRANCH  25  28
ATOM     28  O   UNL     1     -34.217  25.602   5.946  0.00  0.00    -0.468 OA
ATOM     29  C   UNL     1     -33.474  26.593   5.239  0.00  0.00    +0.253 C 
ENDBRANCH  25  28
BRANCH  26  30
ATOM     30  O   UNL     1     -38.446  25.097   3.756  0.00  0.00    -0.468 OA
ATOM     31  C   UNL     1     -39.329  24.213   3.070  0.00  0.00    +0.253 C 
ENDBRANCH  26  30
BRANCH  27  32
ATOM     32  O   UNL     1     -36.682  26.642   5.230  0.00  0.00    -0.501 OA
ATOM     33  H   UNL     1     -36.846  27.292   4.576  0.00  0.00    +0.292 HD
ENDBRANCH  27  32
ENDBRANCH  21  22
ENDBRANCH  20  21
ENDBRANCH   1  20
TORSDOF 15
ENDMDL
MODEL 8
REMARK VINA RESULT:      -6.2      2.229      5.354
REMARK  Name = 53462009
REMARK  15 active torsions:
REMARK  status: ('A' for Active; 'I' for Inactive)
REMARK    1  A    between atoms: C_1  and  O_2
REMARK    2  A    between atoms: C_1  and  C_4
REMARK    3  A    between atoms: C_1  and  C_20
REMARK    4  A    between atoms: C_4  and  C_5
REMARK    5  A    between atoms: C_5  and  O_6
REMARK    6  A    between atoms: C_5  and  C_8
REMARK    7  A    between atoms: C_8  and  C_9
REMARK    8  A    between atoms: C_9  and  C_10
REMARK    9  A    between atoms: C_13  and  O_16
REMARK   10  A    between atoms: C_15  and  O_18
REMARK   11  A    between atoms: C_20  and  C_21
REMARK   12  A    between atoms: C_21  and  C_22
REMARK   13  A    between atoms: C_25  and  O_28
REMARK   14  A    between atoms: C_26  and  O_30
REMARK   15  A    between atoms: C_27  and  O_32
REMARK                            x       y       z     vdW  Elec       q    Type
REMARK                         _______ _______ _______ _____ _____    ______ ____
ROOT
ATOM      1  C   UNL     1     -32.909  23.246  -0.816  0.00  0.00    +0.113 C 
ENDROOT
BRANCH   1   2
ATOM      2  O   UNL     1     -31.539  23.488  -0.509  0.00  0.00    -0.384 OA
ATOM      3  H   UNL     1     -31.272  24.347  -0.875  0.00  0.00    +0.210 HD
ENDBRANCH   1   2
BRANCH   1   4
ATOM      4  C   UNL     1     -33.123  21.745  -1.079  0.00  0.00    +0.058 C 
BRANCH   4   5
ATOM      5  C   UNL     1     -32.768  20.872   0.133  0.00  0.00    +0.113 C 
BRANCH   5   6
ATOM      6  O   UNL     1     -31.508  20.246  -0.100  0.00  0.00    -0.384 OA
ATOM      7  H   UNL     1     -30.794  20.860   0.136  0.00  0.00    +0.210 HD
ENDBRANCH   5   6
BRANCH   5   8
ATOM      8  C   UNL     1     -33.829  19.804   0.438  0.00  0.00    +0.034 C 
BRANCH   8   9
ATOM      9  C   UNL     1     -34.245  19.731   1.913  0.00  0.00    +0.029 C 
BRANCH   9  10
ATOM     10  C   UNL     1     -35.347  20.712   2.225  0.00  0.00    -0.019 C 
ATOM     11  C   UNL     1     -35.355  21.387   3.446  0.00  0.00    +0.036 C 
ATOM     12  C   UNL     1     -36.359  20.944   1.293  0.00  0.00    -0.001 C 
ATOM     13  C   UNL     1     -36.375  22.295   3.734  0.00  0.00    +0.172 C 
ATOM     14  C   UNL     1     -37.379  21.852   1.582  0.00  0.00    +0.039 C 
ATOM     15  C   UNL     1     -37.386  22.527   2.802  0.00  0.00    +0.168 C 
BRANCH  13  16
ATOM     16  O   UNL     1     -36.370  22.950   4.929  0.00  0.00    -0.468 OA
ATOM     17  C   UNL     1     -35.427  22.511   5.905  0.00  0.00    +0.253 C 
ENDBRANCH  13  16
BRANCH  15  18
ATOM     18  O   UNL     1     -38.387  23.411   3.073  0.00  0.00    -0.503 OA
ATOM     19  H   UNL     1     -38.591  23.630   3.961  0.00  0.00    +0.292 HD
ENDBRANCH  15  18
ENDBRANCH   9  10
ENDBRANCH   8   9
ENDBRANCH   5   8
ENDBRANCH   4   5
ENDBRANCH   1   4
BRANCH   1  20
ATOM     20  C   UNL     1     -33.790  23.731   0.346  0.00  0.00    +0.034 C 
BRANCH  20  21
ATOM     21  C   UNL     1     -33.204  24.919   1.121  0.00  0.00    +0.029 C 
BRANCH  21  22
ATOM     22  C   UNL     1     -34.053  25.363   2.285  0.00  0.00    -0.016 C 
ATOM     23  C   UNL     1     -35.418  25.586   2.108  0.00  0.00    +0.036 C 
ATOM     24  C   UNL     1     -33.473  25.552   3.541  0.00  0.00    +0.036 C 
ATOM     25  C   UNL     1     -34.258  25.963   4.617  0.00  0.00    +0.175 C 
ATOM     26  C   UNL     1     -36.203  25.998   3.185  0.00  0.00    +0.175 C 
ATOM     27  C   UNL     1     -35.624  26.185   4.439  0.00  0.00    +0.202 C 
BRANCH  25  28
ATOM     28  O   UNL     1     -33.681  26.143   5.838  0.00  0.00    -0.468 OA
ATOM     29  C   UNL     1     -32.811  27.265   5.982  0.00  0.00    +0.253 C 
ENDBRANCH  25  28
BRANCH  26  30
ATOM     30  O   UNL     1     -37.537  26.211   2.998  0.00  0.00    -0.468 OA
ATOM     31  C   UNL     1     -37.949  26.628   1.698  0.00  0.00    +0.253 C 
ENDBRANCH  26  30
BRANCH  27  32
ATOM     32  O   UNL     1     -36.392  26.587   5.492  0.00  0.00    -0.501 OA
ATOM     33  H   UNL     1     -36.271  26.198   6.335  0.00  0.00    +0.292 HD
ENDBRANCH  27  32
ENDBRANCH  21  22
ENDBRANCH  20  21
ENDBRANCH   1  20
TORSDOF 15
ENDMDL
MODEL 9
REMARK VINA RESULT:      -6.2      3.597      6.576
REMARK  Name = 53462009
REMARK  15 active torsions:
REMARK  status: ('A' for Active; 'I' for Inactive)
REMARK    1  A    between atoms: C_1  and  O_2
REMARK    2  A    between atoms: C_1  and  C_4
REMARK    3  A    between atoms: C_1  and  C_20
REMARK    4  A    between atoms: C_4  and  C_5
REMARK    5  A    between atoms: C_5  and  O_6
REMARK    6  A    between atoms: C_5  and  C_8
REMARK    7  A    between atoms: C_8  and  C_9
REMARK    8  A    between atoms: C_9  and  C_10
REMARK    9  A    between atoms: C_13  and  O_16
REMARK   10  A    between atoms: C_15  and  O_18
REMARK   11  A    between atoms: C_20  and  C_21
REMARK   12  A    between atoms: C_21  and  C_22
REMARK   13  A    between atoms: C_25  and  O_28
REMARK   14  A    between atoms: C_26  and  O_30
REMARK   15  A    between atoms: C_27  and  O_32
REMARK                            x       y       z     vdW  Elec       q    Type
REMARK                         _______ _______ _______ _____ _____    ______ ____
ROOT
ATOM      1  C   UNL     1     -38.334  20.970   0.783  0.00  0.00    +0.113 C 
ENDROOT
BRANCH   1   2
ATOM      2  O   UNL     1     -38.929  19.803   0.223  0.00  0.00    -0.384 OA
ATOM      3  H   UNL     1     -39.350  19.284   0.928  0.00  0.00    +0.210 HD
ENDBRANCH   1   2
BRANCH   1   4
ATOM      4  C   UNL     1     -36.819  20.958   0.514  0.00  0.00    +0.058 C 
BRANCH   4   5
ATOM      5  C   UNL     1     -36.025  20.232   1.609  0.00  0.00    +0.113 C 
BRANCH   5   6
ATOM      6  O   UNL     1     -36.939  19.620   2.516  0.00  0.00    -0.384 OA
ATOM      7  H   UNL     1     -37.844  19.893   2.296  0.00  0.00    +0.210 HD
ENDBRANCH   5   6
BRANCH   5   8
ATOM      8  C   UNL     1     -35.072  21.159   2.378  0.00  0.00    +0.034 C 
BRANCH   8   9
ATOM      9  C   UNL     1     -34.930  22.560   1.770  0.00  0.00    +0.029 C 
BRANCH   9  10
ATOM     10  C   UNL     1     -35.324  23.633   2.755  0.00  0.00    -0.019 C 
ATOM     11  C   UNL     1     -34.466  24.705   2.999  0.00  0.00    +0.036 C 
ATOM     12  C   UNL     1     -36.546  23.551   3.422  0.00  0.00    -0.001 C 
ATOM     13  C   UNL     1     -34.832  25.697   3.911  0.00  0.00    +0.172 C 
ATOM     14  C   UNL     1     -36.912  24.543   4.334  0.00  0.00    +0.039 C 
ATOM     15  C   UNL     1     -36.054  25.616   4.577  0.00  0.00    +0.168 C 
BRANCH  13  16
ATOM     16  O   UNL     1     -33.986  26.741   4.138  0.00  0.00    -0.468 OA
ATOM     17  C   UNL     1     -33.933  27.761   3.143  0.00  0.00    +0.253 C 
ENDBRANCH  13  16
BRANCH  15  18
ATOM     18  O   UNL     1     -36.421  26.578   5.469  0.00  0.00    -0.503 OA
ATOM     19  H   UNL     1     -37.202  26.473   5.976  0.00  0.00    +0.292 HD
ENDBRANCH  15  18
ENDBRANCH   9  10
ENDBRANCH   8   9
ENDBRANCH   5   8
ENDBRANCH   4   5
ENDBRANCH   1   4
BRANCH   1  20
ATOM     20  C   UNL     1     -38.989  22.222   0.179  0.00  0.00    +0.034 C 
BRANCH  20  21
ATOM     21  C   UNL     1     -38.024  23.108  -0.621  0.00  0.00    +0.029 C 
BRANCH  21  22
ATOM     22  C   UNL     1     -37.756  24.446   0.020  0.00  0.00    -0.016 C 
ATOM     23  C   UNL     1     -38.641  24.953   0.972  0.00  0.00    +0.036 C 
ATOM     24  C   UNL     1     -36.624  25.179  -0.341  0.00  0.00    +0.036 C 
ATOM     25  C   UNL     1     -36.377  26.417   0.252  0.00  0.00    +0.175 C 
ATOM     26  C   UNL     1     -38.393  26.191   1.564  0.00  0.00    +0.175 C 
ATOM     27  C   UNL     1     -37.262  26.923   1.205  0.00  0.00    +0.202 C 
BRANCH  25  28
ATOM     28  O   UNL     1     -35.269  27.123  -0.108  0.00  0.00    -0.468 OA
ATOM     29  C   UNL     1     -34.077  26.378  -0.347  0.00  0.00    +0.253 C 
ENDBRANCH  25  28
BRANCH  26  30
ATOM     30  O   UNL     1     -39.265  26.674   2.494  0.00  0.00    -0.468 OA
ATOM     31  C   UNL     1     -40.335  25.817   2.885  0.00  0.00    +0.253 C 
ENDBRANCH  26  30
BRANCH  27  32
ATOM     32  O   UNL     1     -37.021  28.134   1.784  0.00  0.00    -0.501 OA
ATOM     33  H   UNL     1     -36.597  28.811   1.294  0.00  0.00    +0.292 HD
ENDBRANCH  27  32
ENDBRANCH  21  22
ENDBRANCH  20  21
ENDBRANCH   1  20
TORSDOF 15
ENDMDL
