MODEL 1
REMARK VINA RESULT:      -7.5      0.000      0.000
REMARK  Name = 191314
REMARK  8 active torsions:
REMARK  status: ('A' for Active; 'I' for Inactive)
REMARK    1  A    between atoms: C_1  and  N_8
REMARK    2  A    between atoms: C_2  and  N_20
REMARK    3  A    between atoms: C_3  and  C_32
REMARK    4  A    between atoms: C_9  and  C_11
REMARK    5  A    between atoms: C_12  and  O_17
REMARK    6  A    between atoms: C_21  and  C_23
REMARK    7  A    between atoms: C_24  and  O_29
REMARK    8  A    between atoms: C_32  and  O_33
REMARK                            x       y       z     vdW  Elec       q    Type
REMARK                         _______ _______ _______ _____ _____    ______ ____
ROOT
ATOM      1  C   UNL     1     -40.596  25.447   2.982  0.00  0.00    +0.058 C 
ATOM      2  C   UNL     1     -42.496  26.934   3.118  0.00  0.00    +0.052 C 
ATOM      3  C   UNL     1     -41.117  24.890   1.814  0.00  0.00    +0.089 C 
ATOM      4  C   UNL     1     -41.286  26.470   3.633  0.00  0.00    +0.030 C 
ATOM      5  C   UNL     1     -43.016  26.377   1.950  0.00  0.00    +0.015 C 
ATOM      6  C   UNL     1     -42.327  25.354   1.299  0.00  0.00    +0.009 C 
ENDROOT
BRANCH   1   8
ATOM      7  O   UNL     1     -37.810  26.491   2.619  0.00  0.00    -0.270 OA
ATOM      8  N   UNL     1     -39.386  24.997   3.517  0.00  0.00    -0.280 N 
ATOM      9  C   UNL     1     -38.107  25.525   3.313  0.00  0.00    +0.252 C 
ATOM     10  H   UNL     1     -39.441  24.213   4.110  0.00  0.00    +0.155 HD
BRANCH   9  11
ATOM     11  C   UNL     1     -37.004  24.804   4.003  0.00  0.00    +0.087 C 
ATOM     12  C   UNL     1     -36.283  25.439   4.992  0.00  0.00    +0.138 C 
ATOM     13  C   UNL     1     -36.741  23.503   3.620  0.00  0.00    +0.008 C 
ATOM     14  C   UNL     1     -35.253  24.745   5.627  0.00  0.00    +0.037 C 
ATOM     15  C   UNL     1     -35.710  22.810   4.255  0.00  0.00    +0.000 C 
ATOM     16  C   UNL     1     -34.966  23.431   5.259  0.00  0.00    +0.003 C 
BRANCH  12  17
ATOM     17  O   UNL     1     -36.547  26.722   5.367  0.00  0.00    -0.505 OA
ATOM     18  H   UNL     1     -36.086  27.432   4.964  0.00  0.00    +0.292 HD
ENDBRANCH  12  17
ENDBRANCH   9  11
ENDBRANCH   1   8
BRANCH   2  20
ATOM     19  O   UNL     1     -44.824  26.808   5.002  0.00  0.00    -0.270 OA
ATOM     20  N   UNL     1     -43.185  27.957   3.769  0.00  0.00    -0.280 N 
ATOM     21  C   UNL     1     -44.274  27.843   4.645  0.00  0.00    +0.252 C 
ATOM     22  H   UNL     1     -42.869  28.873   3.591  0.00  0.00    +0.155 HD
BRANCH  21  23
ATOM     23  C   UNL     1     -44.814  29.128   5.160  0.00  0.00    +0.087 C 
ATOM     24  C   UNL     1     -43.954  30.076   5.677  0.00  0.00    +0.138 C 
ATOM     25  C   UNL     1     -46.179  29.328   5.103  0.00  0.00    +0.008 C 
ATOM     26  C   UNL     1     -44.482  31.275   6.156  0.00  0.00    +0.037 C 
ATOM     27  C   UNL     1     -46.706  30.527   5.582  0.00  0.00    +0.000 C 
ATOM     28  C   UNL     1     -45.858  31.501   6.109  0.00  0.00    +0.003 C 
BRANCH  24  29
ATOM     29  O   UNL     1     -42.608  29.874   5.732  0.00  0.00    -0.505 OA
ATOM     30  H   UNL     1     -42.050  30.529   6.104  0.00  0.00    +0.292 HD
ENDBRANCH  24  29
ENDBRANCH  21  23
ENDBRANCH   2  20
BRANCH   3  32
ATOM     31  O   UNL     1     -39.979  23.892  -0.038  0.00  0.00    -0.245 OA
ATOM     32  C   UNL     1     -40.423  23.819   1.110  0.00  0.00    +0.339 C 
BRANCH  32  33
ATOM     33  O   UNL     1     -40.307  22.693   1.865  0.00  0.00    -0.477 OA
ATOM     34  H   UNL     1     -40.952  22.497   2.514  0.00  0.00    +0.295 HD
ENDBRANCH  32  33
ENDBRANCH   3  32
TORSDOF 8
ENDMDL
MODEL 2
REMARK VINA RESULT:      -7.5      0.649      1.274
REMARK  Name = 191314
REMARK  8 active torsions:
REMARK  status: ('A' for Active; 'I' for Inactive)
REMARK    1  A    between atoms: C_1  and  N_8
REMARK    2  A    between atoms: C_2  and  N_20
REMARK    3  A    between atoms: C_3  and  C_32
REMARK    4  A    between atoms: C_9  and  C_11
REMARK    5  A    between atoms: C_12  and  O_17
REMARK    6  A    between atoms: C_21  and  C_23
REMARK    7  A    between atoms: C_24  and  O_29
REMARK    8  A    between atoms: C_32  and  O_33
REMARK                            x       y       z     vdW  Elec       q    Type
REMARK                         _______ _______ _______ _____ _____    ______ ____
ROOT
ATOM      1  C   UNL     1     -40.438  25.359   3.059  0.00  0.00    +0.058 C 
ATOM      2  C   UNL     1     -42.363  26.818   3.085  0.00  0.00    +0.052 C 
ATOM      3  C   UNL     1     -40.915  24.750   1.897  0.00  0.00    +0.089 C 
ATOM      4  C   UNL     1     -41.162  26.393   3.652  0.00  0.00    +0.030 C 
ATOM      5  C   UNL     1     -42.840  26.210   1.923  0.00  0.00    +0.015 C 
ATOM      6  C   UNL     1     -42.116  25.176   1.330  0.00  0.00    +0.009 C 
ENDROOT
BRANCH   1   8
ATOM      7  O   UNL     1     -37.627  26.272   2.560  0.00  0.00    -0.270 OA
ATOM      8  N   UNL     1     -39.237  24.947   3.644  0.00  0.00    -0.280 N 
ATOM      9  C   UNL     1     -37.945  25.411   3.372  0.00  0.00    +0.252 C 
ATOM     10  H   UNL     1     -39.310  24.248   4.333  0.00  0.00    +0.155 HD
BRANCH   9  11
ATOM     11  C   UNL     1     -36.859  24.754   4.146  0.00  0.00    +0.087 C 
ATOM     12  C   UNL     1     -36.690  23.387   4.067  0.00  0.00    +0.138 C 
ATOM     13  C   UNL     1     -36.047  25.551   4.929  0.00  0.00    +0.008 C 
ATOM     14  C   UNL     1     -35.666  22.791   4.801  0.00  0.00    +0.037 C 
ATOM     15  C   UNL     1     -35.023  24.954   5.664  0.00  0.00    +0.000 C 
ATOM     16  C   UNL     1     -34.832  23.573   5.600  0.00  0.00    +0.003 C 
BRANCH  12  17
ATOM     17  O   UNL     1     -37.493  22.605   3.293  0.00  0.00    -0.505 OA
ATOM     18  H   UNL     1     -37.603  22.801   2.383  0.00  0.00    +0.292 HD
ENDBRANCH  12  17
ENDBRANCH   9  11
ENDBRANCH   1   8
BRANCH   2  20
ATOM     19  O   UNL     1     -44.787  26.724   4.847  0.00  0.00    -0.270 OA
ATOM     20  N   UNL     1     -43.087  27.852   3.678  0.00  0.00    -0.280 N 
ATOM     21  C   UNL     1     -44.220  27.753   4.498  0.00  0.00    +0.252 C 
ATOM     22  H   UNL     1     -42.763  28.764   3.498  0.00  0.00    +0.155 HD
BRANCH  21  23
ATOM     23  C   UNL     1     -44.788  29.047   4.958  0.00  0.00    +0.087 C 
ATOM     24  C   UNL     1     -43.960  30.004   5.507  0.00  0.00    +0.138 C 
ATOM     25  C   UNL     1     -46.147  29.245   4.818  0.00  0.00    +0.008 C 
ATOM     26  C   UNL     1     -44.513  31.212   5.932  0.00  0.00    +0.037 C 
ATOM     27  C   UNL     1     -46.701  30.453   5.243  0.00  0.00    +0.000 C 
ATOM     28  C   UNL     1     -45.884  31.436   5.801  0.00  0.00    +0.003 C 
BRANCH  24  29
ATOM     29  O   UNL     1     -42.619  29.803   5.644  0.00  0.00    -0.505 OA
ATOM     30  H   UNL     1     -42.032  30.080   4.968  0.00  0.00    +0.292 HD
ENDBRANCH  24  29
ENDBRANCH  21  23
ENDBRANCH   2  20
BRANCH   3  32
ATOM     31  O   UNL     1     -39.628  23.736   0.154  0.00  0.00    -0.245 OA
ATOM     32  C   UNL     1     -40.184  23.667   1.253  0.00  0.00    +0.339 C 
BRANCH  32  33
ATOM     33  O   UNL     1     -40.172  22.532   2.004  0.00  0.00    -0.477 OA
ATOM     34  H   UNL     1     -40.330  21.702   1.600  0.00  0.00    +0.295 HD
ENDBRANCH  32  33
ENDBRANCH   3  32
TORSDOF 8
ENDMDL
MODEL 3
REMARK VINA RESULT:      -7.3      6.550      8.199
REMARK  Name = 191314
REMARK  8 active torsions:
REMARK  status: ('A' for Active; 'I' for Inactive)
REMARK    1  A    between atoms: C_1  and  N_8
REMARK    2  A    between atoms: C_2  and  N_20
REMARK    3  A    between atoms: C_3  and  C_32
REMARK    4  A    between atoms: C_9  and  C_11
REMARK    5  A    between atoms: C_12  and  O_17
REMARK    6  A    between atoms: C_21  and  C_23
REMARK    7  A    between atoms: C_24  and  O_29
REMARK    8  A    between atoms: C_32  and  O_33
REMARK                            x       y       z     vdW  Elec       q    Type
REMARK                         _______ _______ _______ _____ _____    ______ ____
ROOT
ATOM      1  C   UNL     1     -35.548  23.727   3.505  0.00  0.00    +0.058 C 
ATOM      2  C   UNL     1     -35.268  26.054   4.088  0.00  0.00    +0.052 C 
ATOM      3  C   UNL     1     -35.443  23.377   4.851  0.00  0.00    +0.089 C 
ATOM      4  C   UNL     1     -35.461  25.065   3.124  0.00  0.00    +0.030 C 
ATOM      5  C   UNL     1     -35.162  25.704   5.434  0.00  0.00    +0.015 C 
ATOM      6  C   UNL     1     -35.249  24.366   5.815  0.00  0.00    +0.009 C 
ENDROOT
BRANCH   1   8
ATOM      7  O   UNL     1     -38.016  22.981   1.975  0.00  0.00    -0.270 OA
ATOM      8  N   UNL     1     -35.741  22.752   2.522  0.00  0.00    -0.280 N 
ATOM      9  C   UNL     1     -36.922  22.444   1.836  0.00  0.00    +0.252 C 
ATOM     10  H   UNL     1     -34.950  22.217   2.282  0.00  0.00    +0.155 HD
BRANCH   9  11
ATOM     11  C   UNL     1     -36.817  21.328   0.859  0.00  0.00    +0.087 C 
ATOM     12  C   UNL     1     -36.719  20.029   1.311  0.00  0.00    +0.138 C 
ATOM     13  C   UNL     1     -36.820  21.641  -0.486  0.00  0.00    +0.008 C 
ATOM     14  C   UNL     1     -36.621  18.997   0.379  0.00  0.00    +0.037 C 
ATOM     15  C   UNL     1     -36.721  20.608  -1.418  0.00  0.00    +0.000 C 
ATOM     16  C   UNL     1     -36.622  19.286  -0.986  0.00  0.00    +0.003 C 
BRANCH  12  17
ATOM     17  O   UNL     1     -36.716  19.725   2.639  0.00  0.00    -0.505 OA
ATOM     18  H   UNL     1     -37.299  20.170   3.223  0.00  0.00    +0.292 HD
ENDBRANCH  12  17
ENDBRANCH   9  11
ENDBRANCH   1   8
BRANCH   2  20
ATOM     19  O   UNL     1     -33.089  27.519   2.640  0.00  0.00    -0.270 OA
ATOM     20  N   UNL     1     -35.181  27.393   3.707  0.00  0.00    -0.280 N 
ATOM     21  C   UNL     1     -34.134  28.031   3.028  0.00  0.00    +0.252 C 
ATOM     22  H   UNL     1     -35.950  27.961   3.944  0.00  0.00    +0.155 HD
BRANCH  21  23
ATOM     23  C   UNL     1     -34.323  29.486   2.787  0.00  0.00    +0.087 C 
ATOM     24  C   UNL     1     -35.493  29.940   2.212  0.00  0.00    +0.138 C 
ATOM     25  C   UNL     1     -33.304  30.342   3.153  0.00  0.00    +0.008 C 
ATOM     26  C   UNL     1     -35.650  31.308   1.995  0.00  0.00    +0.037 C 
ATOM     27  C   UNL     1     -33.462  31.711   2.936  0.00  0.00    +0.000 C 
ATOM     28  C   UNL     1     -34.635  32.194   2.356  0.00  0.00    +0.003 C 
BRANCH  24  29
ATOM     29  O   UNL     1     -36.495  29.090   1.851  0.00  0.00    -0.505 OA
ATOM     30  H   UNL     1     -36.791  29.065   0.963  0.00  0.00    +0.292 HD
ENDBRANCH  24  29
ENDBRANCH  21  23
ENDBRANCH   2  20
BRANCH   3  32
ATOM     31  O   UNL     1     -35.124  21.015   4.641  0.00  0.00    -0.245 OA
ATOM     32  C   UNL     1     -35.528  21.988   5.283  0.00  0.00    +0.339 C 
BRANCH  32  33
ATOM     33  O   UNL     1     -36.114  21.861   6.505  0.00  0.00    -0.477 OA
ATOM     34  H   UNL     1     -36.719  21.164   6.663  0.00  0.00    +0.295 HD
ENDBRANCH  32  33
ENDBRANCH   3  32
TORSDOF 8
ENDMDL
MODEL 4
REMARK VINA RESULT:      -7.1      1.187      8.346
REMARK  Name = 191314
REMARK  8 active torsions:
REMARK  status: ('A' for Active; 'I' for Inactive)
REMARK    1  A    between atoms: C_1  and  N_8
REMARK    2  A    between atoms: C_2  and  N_20
REMARK    3  A    between atoms: C_3  and  C_32
REMARK    4  A    between atoms: C_9  and  C_11
REMARK    5  A    between atoms: C_12  and  O_17
REMARK    6  A    between atoms: C_21  and  C_23
REMARK    7  A    between atoms: C_24  and  O_29
REMARK    8  A    between atoms: C_32  and  O_33
REMARK                            x       y       z     vdW  Elec       q    Type
REMARK                         _______ _______ _______ _____ _____    ______ ____
ROOT
ATOM      1  C   UNL     1     -42.409  26.833   3.037  0.00  0.00    +0.058 C 
ATOM      2  C   UNL     1     -40.490  25.367   2.977  0.00  0.00    +0.052 C 
ATOM      3  C   UNL     1     -42.881  26.264   1.854  0.00  0.00    +0.089 C 
ATOM      4  C   UNL     1     -41.214  26.384   3.598  0.00  0.00    +0.030 C 
ATOM      5  C   UNL     1     -40.963  24.797   1.794  0.00  0.00    +0.015 C 
ATOM      6  C   UNL     1     -42.157  25.246   1.233  0.00  0.00    +0.009 C 
ENDROOT
BRANCH   1   8
ATOM      7  O   UNL     1     -44.752  26.692   4.902  0.00  0.00    -0.270 OA
ATOM      8  N   UNL     1     -43.118  27.855   3.676  0.00  0.00    -0.280 N 
ATOM      9  C   UNL     1     -44.211  27.732   4.541  0.00  0.00    +0.252 C 
ATOM     10  H   UNL     1     -42.810  28.773   3.496  0.00  0.00    +0.155 HD
BRANCH   9  11
ATOM     11  C   UNL     1     -44.770  29.015   5.044  0.00  0.00    +0.087 C 
ATOM     12  C   UNL     1     -43.926  29.973   5.565  0.00  0.00    +0.138 C 
ATOM     13  C   UNL     1     -46.137  29.200   4.969  0.00  0.00    +0.008 C 
ATOM     14  C   UNL     1     -44.471  31.169   6.032  0.00  0.00    +0.037 C 
ATOM     15  C   UNL     1     -46.681  30.396   5.436  0.00  0.00    +0.000 C 
ATOM     16  C   UNL     1     -45.848  31.381   5.967  0.00  0.00    +0.003 C 
BRANCH  12  17
ATOM     17  O   UNL     1     -42.579  29.786   5.637  0.00  0.00    -0.505 OA
ATOM     18  H   UNL     1     -42.151  29.217   5.028  0.00  0.00    +0.292 HD
ENDBRANCH  12  17
ENDBRANCH   9  11
ENDBRANCH   1   8
BRANCH   2  20
ATOM     19  O   UNL     1     -37.677  26.314   2.560  0.00  0.00    -0.270 OA
ATOM     20  N   UNL     1     -39.295  24.918   3.538  0.00  0.00    -0.280 N 
ATOM     21  C   UNL     1     -37.999  25.398   3.308  0.00  0.00    +0.252 C 
ATOM     22  H   UNL     1     -39.371  24.170   4.175  0.00  0.00    +0.155 HD
BRANCH  21  23
ATOM     23  C   UNL     1     -36.917  24.689   4.040  0.00  0.00    +0.087 C 
ATOM     24  C   UNL     1     -36.196  25.353   5.011  0.00  0.00    +0.138 C 
ATOM     25  C   UNL     1     -36.669  23.370   3.715  0.00  0.00    +0.008 C 
ATOM     26  C   UNL     1     -35.184  24.670   5.686  0.00  0.00    +0.037 C 
ATOM     27  C   UNL     1     -35.658  22.687   4.390  0.00  0.00    +0.000 C 
ATOM     28  C   UNL     1     -34.915  23.337   5.376  0.00  0.00    +0.003 C 
BRANCH  24  29
ATOM     29  O   UNL     1     -36.443  26.656   5.328  0.00  0.00    -0.505 OA
ATOM     30  H   UNL     1     -36.210  26.985   6.174  0.00  0.00    +0.292 HD
ENDBRANCH  24  29
ENDBRANCH  21  23
ENDBRANCH   2  20
BRANCH   3  32
ATOM     31  O   UNL     1     -44.211  27.501   0.298  0.00  0.00    -0.245 OA
ATOM     32  C   UNL     1     -44.125  26.710   1.240  0.00  0.00    +0.339 C 
BRANCH  32  33
ATOM     33  O   UNL     1     -45.220  26.152   1.824  0.00  0.00    -0.477 OA
ATOM     34  H   UNL     1     -46.031  26.114   1.357  0.00  0.00    +0.295 HD
ENDBRANCH  32  33
ENDBRANCH   3  32
TORSDOF 8
ENDMDL
MODEL 5
REMARK VINA RESULT:      -6.9      1.437      8.416
REMARK  Name = 191314
REMARK  8 active torsions:
REMARK  status: ('A' for Active; 'I' for Inactive)
REMARK    1  A    between atoms: C_1  and  N_8
REMARK    2  A    between atoms: C_2  and  N_20
REMARK    3  A    between atoms: C_3  and  C_32
REMARK    4  A    between atoms: C_9  and  C_11
REMARK    5  A    between atoms: C_12  and  O_17
REMARK    6  A    between atoms: C_21  and  C_23
REMARK    7  A    between atoms: C_24  and  O_29
REMARK    8  A    between atoms: C_32  and  O_33
REMARK                            x       y       z     vdW  Elec       q    Type
REMARK                         _______ _______ _______ _____ _____    ______ ____
ROOT
ATOM      1  C   UNL     1     -42.479  26.610   3.343  0.00  0.00    +0.058 C 
ATOM      2  C   UNL     1     -40.466  25.295   3.107  0.00  0.00    +0.052 C 
ATOM      3  C   UNL     1     -42.913  26.170   2.092  0.00  0.00    +0.089 C 
ATOM      4  C   UNL     1     -41.255  26.172   3.850  0.00  0.00    +0.030 C 
ATOM      5  C   UNL     1     -40.900  24.854   1.856  0.00  0.00    +0.015 C 
ATOM      6  C   UNL     1     -42.123  25.292   1.349  0.00  0.00    +0.009 C 
ENDROOT
BRANCH   1   8
ATOM      7  O   UNL     1     -42.763  29.589   3.165  0.00  0.00    -0.270 OA
ATOM      8  N   UNL     1     -43.253  27.490   4.103  0.00  0.00    -0.280 N 
ATOM      9  C   UNL     1     -43.349  28.881   3.977  0.00  0.00    +0.252 C 
ATOM     10  H   UNL     1     -43.799  27.082   4.814  0.00  0.00    +0.155 HD
BRANCH   9  11
ATOM     11  C   UNL     1     -44.245  29.547   4.959  0.00  0.00    +0.087 C 
ATOM     12  C   UNL     1     -45.607  29.339   4.896  0.00  0.00    +0.138 C 
ATOM     13  C   UNL     1     -43.668  30.364   5.912  0.00  0.00    +0.008 C 
ATOM     14  C   UNL     1     -46.429  29.974   5.826  0.00  0.00    +0.037 C 
ATOM     15  C   UNL     1     -44.492  30.999   6.842  0.00  0.00    +0.000 C 
ATOM     16  C   UNL     1     -45.872  30.804   6.799  0.00  0.00    +0.003 C 
BRANCH  12  17
ATOM     17  O   UNL     1     -46.171  28.533   3.954  0.00  0.00    -0.505 OA
ATOM     18  H   UNL     1     -47.033  28.716   3.636  0.00  0.00    +0.292 HD
ENDBRANCH  12  17
ENDBRANCH   9  11
ENDBRANCH   1   8
BRANCH   2  20
ATOM     19  O   UNL     1     -37.688  26.310   2.614  0.00  0.00    -0.270 OA
ATOM     20  N   UNL     1     -39.242  24.857   3.614  0.00  0.00    -0.280 N 
ATOM     21  C   UNL     1     -37.965  25.370   3.350  0.00  0.00    +0.252 C 
ATOM     22  H   UNL     1     -39.281  24.093   4.234  0.00  0.00    +0.155 HD
BRANCH  21  23
ATOM     23  C   UNL     1     -36.844  24.665   4.025  0.00  0.00    +0.087 C 
ATOM     24  C   UNL     1     -36.124  25.308   5.011  0.00  0.00    +0.138 C 
ATOM     25  C   UNL     1     -36.559  23.373   3.631  0.00  0.00    +0.008 C 
ATOM     26  C   UNL     1     -35.076  24.629   5.632  0.00  0.00    +0.037 C 
ATOM     27  C   UNL     1     -35.510  22.694   4.252  0.00  0.00    +0.000 C 
ATOM     28  C   UNL     1     -34.768  23.323   5.252  0.00  0.00    +0.003 C 
BRANCH  24  29
ATOM     29  O   UNL     1     -36.409  26.584   5.395  0.00  0.00    -0.505 OA
ATOM     30  H   UNL     1     -36.315  27.289   4.785  0.00  0.00    +0.292 HD
ENDBRANCH  24  29
ENDBRANCH  21  23
ENDBRANCH   2  20
BRANCH   3  32
ATOM     31  O   UNL     1     -44.319  27.260   0.494  0.00  0.00    -0.245 OA
ATOM     32  C   UNL     1     -44.185  26.609   1.532  0.00  0.00    +0.339 C 
BRANCH  32  33
ATOM     33  O   UNL     1     -45.246  26.217   2.289  0.00  0.00    -0.477 OA
ATOM     34  H   UNL     1     -45.864  26.853   2.592  0.00  0.00    +0.295 HD
ENDBRANCH  32  33
ENDBRANCH   3  32
TORSDOF 8
ENDMDL
MODEL 6
REMARK VINA RESULT:      -6.9      6.405     10.380
REMARK  Name = 191314
REMARK  8 active torsions:
REMARK  status: ('A' for Active; 'I' for Inactive)
REMARK    1  A    between atoms: C_1  and  N_8
REMARK    2  A    between atoms: C_2  and  N_20
REMARK    3  A    between atoms: C_3  and  C_32
REMARK    4  A    between atoms: C_9  and  C_11
REMARK    5  A    between atoms: C_12  and  O_17
REMARK    6  A    between atoms: C_21  and  C_23
REMARK    7  A    between atoms: C_24  and  O_29
REMARK    8  A    between atoms: C_32  and  O_33
REMARK                            x       y       z     vdW  Elec       q    Type
REMARK                         _______ _______ _______ _____ _____    ______ ____
ROOT
ATOM      1  C   UNL     1     -36.179  18.628   0.584  0.00  0.00    +0.058 C 
ATOM      2  C   UNL     1     -35.212  20.529   1.719  0.00  0.00    +0.052 C 
ATOM      3  C   UNL     1     -34.902  18.178   0.249  0.00  0.00    +0.089 C 
ATOM      4  C   UNL     1     -36.334  19.803   1.319  0.00  0.00    +0.030 C 
ATOM      5  C   UNL     1     -33.935  20.079   1.384  0.00  0.00    +0.015 C 
ATOM      6  C   UNL     1     -33.780  18.905   0.649  0.00  0.00    +0.009 C 
ENDROOT
BRANCH   1   8
ATOM      7  O   UNL     1     -37.547  18.475  -2.079  0.00  0.00    -0.270 OA
ATOM      8  N   UNL     1     -37.317  17.917   0.193  0.00  0.00    -0.280 N 
ATOM      9  C   UNL     1     -37.916  17.882  -1.072  0.00  0.00    +0.252 C 
ATOM     10  H   UNL     1     -37.749  17.374   0.891  0.00  0.00    +0.155 HD
BRANCH   9  11
ATOM     11  C   UNL     1     -39.143  17.047  -1.170  0.00  0.00    +0.087 C 
ATOM     12  C   UNL     1     -39.141  15.764  -0.662  0.00  0.00    +0.138 C 
ATOM     13  C   UNL     1     -40.254  17.597  -1.777  0.00  0.00    +0.008 C 
ATOM     14  C   UNL     1     -40.302  14.998  -0.765  0.00  0.00    +0.037 C 
ATOM     15  C   UNL     1     -41.414  16.829  -1.880  0.00  0.00    +0.000 C 
ATOM     16  C   UNL     1     -41.438  15.529  -1.374  0.00  0.00    +0.003 C 
BRANCH  12  17
ATOM     17  O   UNL     1     -38.042  15.226  -0.064  0.00  0.00    -0.505 OA
ATOM     18  H   UNL     1     -37.519  14.598  -0.523  0.00  0.00    +0.292 HD
ENDBRANCH  12  17
ENDBRANCH   9  11
ENDBRANCH   1   8
BRANCH   2  20
ATOM     19  O   UNL     1     -35.215  20.973   4.684  0.00  0.00    -0.270 OA
ATOM     20  N   UNL     1     -35.366  21.704   2.454  0.00  0.00    -0.280 N 
ATOM     21  C   UNL     1     -35.360  21.858   3.848  0.00  0.00    +0.252 C 
ATOM     22  H   UNL     1     -35.496  22.527   1.930  0.00  0.00    +0.155 HD
BRANCH  21  23
ATOM     23  C   UNL     1     -35.578  23.244   4.336  0.00  0.00    +0.087 C 
ATOM     24  C   UNL     1     -36.749  23.905   4.026  0.00  0.00    +0.138 C 
ATOM     25  C   UNL     1     -34.584  23.829   5.095  0.00  0.00    +0.008 C 
ATOM     26  C   UNL     1     -36.935  25.206   4.494  0.00  0.00    +0.037 C 
ATOM     27  C   UNL     1     -34.769  25.130   5.563  0.00  0.00    +0.000 C 
ATOM     28  C   UNL     1     -35.945  25.818   5.262  0.00  0.00    +0.003 C 
BRANCH  24  29
ATOM     29  O   UNL     1     -37.727  23.324   3.276  0.00  0.00    -0.505 OA
ATOM     30  H   UNL     1     -37.674  23.341   2.340  0.00  0.00    +0.292 HD
ENDBRANCH  24  29
ENDBRANCH  21  23
ENDBRANCH   2  20
BRANCH   3  32
ATOM     31  O   UNL     1     -35.070  15.830  -0.174  0.00  0.00    -0.245 OA
ATOM     32  C   UNL     1     -34.705  16.956  -0.520  0.00  0.00    +0.339 C 
BRANCH  32  33
ATOM     33  O   UNL     1     -34.059  17.183  -1.696  0.00  0.00    -0.477 OA
ATOM     34  H   UNL     1     -33.272  16.716  -1.894  0.00  0.00    +0.295 HD
ENDBRANCH  32  33
ENDBRANCH   3  32
TORSDOF 8
ENDMDL
MODEL 7
REMARK VINA RESULT:      -6.7      3.426      8.790
REMARK  Name = 191314
REMARK  8 active torsions:
REMARK  status: ('A' for Active; 'I' for Inactive)
REMARK    1  A    between atoms: C_1  and  N_8
REMARK    2  A    between atoms: C_2  and  N_20
REMARK    3  A    between atoms: C_3  and  C_32
REMARK    4  A    between atoms: C_9  and  C_11
REMARK    5  A    between atoms: C_12  and  O_17
REMARK    6  A    between atoms: C_21  and  C_23
REMARK    7  A    between atoms: C_24  and  O_29
REMARK    8  A    between atoms: C_32  and  O_33
REMARK                            x       y       z     vdW  Elec       q    Type
REMARK                         _______ _______ _______ _____ _____    ______ ____
ROOT
ATOM      1  C   UNL     1     -37.197  24.948   3.698  0.00  0.00    +0.058 C 
ATOM      2  C   UNL     1     -35.036  25.783   4.384  0.00  0.00    +0.052 C 
ATOM      3  C   UNL     1     -36.638  23.692   3.464  0.00  0.00    +0.089 C 
ATOM      4  C   UNL     1     -36.396  25.993   4.158  0.00  0.00    +0.030 C 
ATOM      5  C   UNL     1     -34.477  24.526   4.150  0.00  0.00    +0.015 C 
ATOM      6  C   UNL     1     -35.277  23.482   3.690  0.00  0.00    +0.009 C 
ENDROOT
BRANCH   1   8
ATOM      7  O   UNL     1     -38.559  26.748   1.726  0.00  0.00    -0.270 OA
ATOM      8  N   UNL     1     -38.558  25.181   3.478  0.00  0.00    -0.280 N 
ATOM      9  C   UNL     1     -39.142  26.037   2.537  0.00  0.00    +0.252 C 
ATOM     10  H   UNL     1     -39.181  24.681   4.053  0.00  0.00    +0.155 HD
BRANCH   9  11
ATOM     11  C   UNL     1     -40.628  26.090   2.564  0.00  0.00    +0.087 C 
ATOM     12  C   UNL     1     -41.351  25.559   1.515  0.00  0.00    +0.138 C 
ATOM     13  C   UNL     1     -41.237  26.679   3.654  0.00  0.00    +0.008 C 
ATOM     14  C   UNL     1     -42.743  25.619   1.559  0.00  0.00    +0.037 C 
ATOM     15  C   UNL     1     -42.629  26.738   3.697  0.00  0.00    +0.000 C 
ATOM     16  C   UNL     1     -43.383  26.209   2.649  0.00  0.00    +0.003 C 
BRANCH  12  17
ATOM     17  O   UNL     1     -40.745  24.980   0.442  0.00  0.00    -0.505 OA
ATOM     18  H   UNL     1     -40.529  24.068   0.461  0.00  0.00    +0.292 HD
ENDBRANCH  12  17
ENDBRANCH   9  11
ENDBRANCH   1   8
BRANCH   2  20
ATOM     19  O   UNL     1     -32.682  27.128   3.104  0.00  0.00    -0.270 OA
ATOM     20  N   UNL     1     -34.235  26.828   4.844  0.00  0.00    -0.280 N 
ATOM     21  C   UNL     1     -33.140  27.424   4.203  0.00  0.00    +0.252 C 
ATOM     22  H   UNL     1     -34.467  27.193   5.729  0.00  0.00    +0.155 HD
BRANCH  21  23
ATOM     23  C   UNL     1     -32.467  28.506   4.966  0.00  0.00    +0.087 C 
ATOM     24  C   UNL     1     -32.024  28.267   6.251  0.00  0.00    +0.138 C 
ATOM     25  C   UNL     1     -32.307  29.732   4.350  0.00  0.00    +0.008 C 
ATOM     26  C   UNL     1     -31.394  29.296   6.950  0.00  0.00    +0.037 C 
ATOM     27  C   UNL     1     -31.678  30.761   5.050  0.00  0.00    +0.000 C 
ATOM     28  C   UNL     1     -31.222  30.544   6.350  0.00  0.00    +0.003 C 
BRANCH  24  29
ATOM     29  O   UNL     1     -32.184  27.056   6.854  0.00  0.00    -0.505 OA
ATOM     30  H   UNL     1     -31.441  26.507   7.009  0.00  0.00    +0.292 HD
ENDBRANCH  24  29
ENDBRANCH  21  23
ENDBRANCH   2  20
BRANCH   3  32
ATOM     31  O   UNL     1     -38.605  22.665   2.572  0.00  0.00    -0.245 OA
ATOM     32  C   UNL     1     -37.445  22.579   2.982  0.00  0.00    +0.339 C 
BRANCH  32  33
ATOM     33  O   UNL     1     -36.775  21.395   3.028  0.00  0.00    -0.477 OA
ATOM     34  H   UNL     1     -36.085  21.272   3.649  0.00  0.00    +0.295 HD
ENDBRANCH  32  33
ENDBRANCH   3  32
TORSDOF 8
ENDMDL
MODEL 8
REMARK VINA RESULT:      -6.6      4.704     10.613
REMARK  Name = 191314
REMARK  8 active torsions:
REMARK  status: ('A' for Active; 'I' for Inactive)
REMARK    1  A    between atoms: C_1  and  N_8
REMARK    2  A    between atoms: C_2  and  N_20
REMARK    3  A    between atoms: C_3  and  C_32
REMARK    4  A    between atoms: C_9  and  C_11
REMARK    5  A    between atoms: C_12  and  O_17
REMARK    6  A    between atoms: C_21  and  C_23
REMARK    7  A    between atoms: C_24  and  O_29
REMARK    8  A    between atoms: C_32  and  O_33
REMARK                            x       y       z     vdW  Elec       q    Type
REMARK                         _______ _______ _______ _____ _____    ______ ____
ROOT
ATOM      1  C   UNL     1     -37.776  22.633   2.727  0.00  0.00    +0.058 C 
ATOM      2  C   UNL     1     -36.729  20.566   2.042  0.00  0.00    +0.052 C 
ATOM      3  C   UNL     1     -36.613  22.997   3.404  0.00  0.00    +0.089 C 
ATOM      4  C   UNL     1     -37.834  21.417   2.045  0.00  0.00    +0.030 C 
ATOM      5  C   UNL     1     -35.566  20.931   2.719  0.00  0.00    +0.015 C 
ATOM      6  C   UNL     1     -35.508  22.145   3.401  0.00  0.00    +0.009 C 
ENDROOT
BRANCH   1   8
ATOM      7  O   UNL     1     -38.849  24.410   0.564  0.00  0.00    -0.270 OA
ATOM      8  N   UNL     1     -38.895  23.470   2.718  0.00  0.00    -0.280 N 
ATOM      9  C   UNL     1     -39.353  24.283   1.675  0.00  0.00    +0.252 C 
ATOM     10  H   UNL     1     -39.427  23.489   3.547  0.00  0.00    +0.155 HD
BRANCH   9  11
ATOM     11  C   UNL     1     -40.567  25.085   1.980  0.00  0.00    +0.087 C 
ATOM     12  C   UNL     1     -40.504  26.092   2.921  0.00  0.00    +0.138 C 
ATOM     13  C   UNL     1     -41.730  24.786   1.300  0.00  0.00    +0.008 C 
ATOM     14  C   UNL     1     -41.654  26.832   3.194  0.00  0.00    +0.037 C 
ATOM     15  C   UNL     1     -42.880  25.526   1.573  0.00  0.00    +0.000 C 
ATOM     16  C   UNL     1     -42.842  26.550   2.520  0.00  0.00    +0.003 C 
BRANCH  12  17
ATOM     17  O   UNL     1     -39.354  26.383   3.590  0.00  0.00    -0.505 OA
ATOM     18  H   UNL     1     -39.114  25.887   4.348  0.00  0.00    +0.292 HD
ENDBRANCH  12  17
ENDBRANCH   9  11
ENDBRANCH   1   8
BRANCH   2  20
ATOM     19  O   UNL     1     -35.857  19.859  -0.738  0.00  0.00    -0.270 OA
ATOM     20  N   UNL     1     -36.787  19.350   1.360  0.00  0.00    -0.280 N 
ATOM     21  C   UNL     1     -36.363  19.072   0.054  0.00  0.00    +0.252 C 
ATOM     22  H   UNL     1     -37.173  18.594   1.859  0.00  0.00    +0.155 HD
BRANCH  21  23
ATOM     23  C   UNL     1     -36.584  17.675  -0.404  0.00  0.00    +0.087 C 
ATOM     24  C   UNL     1     -35.506  16.890  -0.760  0.00  0.00    +0.138 C 
ATOM     25  C   UNL     1     -37.882  17.208  -0.458  0.00  0.00    +0.008 C 
ATOM     26  C   UNL     1     -35.735  15.583  -1.187  0.00  0.00    +0.037 C 
ATOM     27  C   UNL     1     -38.112  15.900  -0.885  0.00  0.00    +0.000 C 
ATOM     28  C   UNL     1     -37.038  15.087  -1.250  0.00  0.00    +0.003 C 
BRANCH  24  29
ATOM     29  O   UNL     1     -34.227  17.357  -0.706  0.00  0.00    -0.505 OA
ATOM     30  H   UNL     1     -33.759  17.533  -1.498  0.00  0.00    +0.292 HD
ENDBRANCH  24  29
ENDBRANCH  21  23
ENDBRANCH   2  20
BRANCH   3  32
ATOM     31  O   UNL     1     -36.664  25.378   3.630  0.00  0.00    -0.245 OA
ATOM     32  C   UNL     1     -36.519  24.259   4.128  0.00  0.00    +0.339 C 
BRANCH  32  33
ATOM     33  O   UNL     1     -36.249  24.079   5.449  0.00  0.00    -0.477 OA
ATOM     34  H   UNL     1     -36.623  23.354   5.908  0.00  0.00    +0.295 HD
ENDBRANCH  32  33
ENDBRANCH   3  32
TORSDOF 8
ENDMDL
MODEL 9
REMARK VINA RESULT:      -6.5      7.049     12.209
REMARK  Name = 191314
REMARK  8 active torsions:
REMARK  status: ('A' for Active; 'I' for Inactive)
REMARK    1  A    between atoms: C_1  and  N_8
REMARK    2  A    between atoms: C_2  and  N_20
REMARK    3  A    between atoms: C_3  and  C_32
REMARK    4  A    between atoms: C_9  and  C_11
REMARK    5  A    between atoms: C_12  and  O_17
REMARK    6  A    between atoms: C_21  and  C_23
REMARK    7  A    between atoms: C_24  and  O_29
REMARK    8  A    between atoms: C_32  and  O_33
REMARK                            x       y       z     vdW  Elec       q    Type
REMARK                         _______ _______ _______ _____ _____    ______ ____
ROOT
ATOM      1  C   UNL     1     -37.172  20.200   0.960  0.00  0.00    +0.058 C 
ATOM      2  C   UNL     1     -36.672  18.248  -0.373  0.00  0.00    +0.052 C 
ATOM      3  C   UNL     1     -38.414  20.309   0.334  0.00  0.00    +0.089 C 
ATOM      4  C   UNL     1     -36.301  19.169   0.607  0.00  0.00    +0.030 C 
ATOM      5  C   UNL     1     -37.914  18.358  -0.999  0.00  0.00    +0.015 C 
ATOM      6  C   UNL     1     -38.784  19.388  -0.645  0.00  0.00    +0.009 C 
ENDROOT
BRANCH   1   8
ATOM      7  O   UNL     1     -34.895  20.091   2.907  0.00  0.00    -0.270 OA
ATOM      8  N   UNL     1     -36.780  21.113   1.944  0.00  0.00    -0.280 N 
ATOM      9  C   UNL     1     -35.702  21.011   2.830  0.00  0.00    +0.252 C 
ATOM     10  H   UNL     1     -37.328  21.927   2.021  0.00  0.00    +0.155 HD
BRANCH   9  11
ATOM     11  C   UNL     1     -35.557  22.141   3.787  0.00  0.00    +0.087 C 
ATOM     12  C   UNL     1     -35.367  21.883   5.128  0.00  0.00    +0.138 C 
ATOM     13  C   UNL     1     -35.621  23.426   3.286  0.00  0.00    +0.008 C 
ATOM     14  C   UNL     1     -35.234  22.956   6.008  0.00  0.00    +0.037 C 
ATOM     15  C   UNL     1     -35.489  24.499   4.167  0.00  0.00    +0.000 C 
ATOM     16  C   UNL     1     -35.295  24.264   5.529  0.00  0.00    +0.003 C 
BRANCH  12  17
ATOM     17  O   UNL     1     -35.304  20.613   5.617  0.00  0.00    -0.505 OA
ATOM     18  H   UNL     1     -36.075  20.080   5.637  0.00  0.00    +0.292 HD
ENDBRANCH  12  17
ENDBRANCH   9  11
ENDBRANCH   1   8
BRANCH   2  20
ATOM     19  O   UNL     1     -36.736  15.333   0.324  0.00  0.00    -0.270 OA
ATOM     20  N   UNL     1     -35.801  17.217  -0.726  0.00  0.00    -0.280 N 
ATOM     21  C   UNL     1     -35.877  15.863  -0.372  0.00  0.00    +0.252 C 
ATOM     22  H   UNL     1     -35.039  17.472  -1.296  0.00  0.00    +0.155 HD
BRANCH  21  23
ATOM     23  C   UNL     1     -34.776  15.008  -0.885  0.00  0.00    +0.087 C 
ATOM     24  C   UNL     1     -35.069  13.807  -1.499  0.00  0.00    +0.138 C 
ATOM     25  C   UNL     1     -33.479  15.454  -0.725  0.00  0.00    +0.008 C 
ATOM     26  C   UNL     1     -34.020  13.018  -1.973  0.00  0.00    +0.037 C 
ATOM     27  C   UNL     1     -32.431  14.666  -1.199  0.00  0.00    +0.000 C 
ATOM     28  C   UNL     1     -32.701  13.447  -1.823  0.00  0.00    +0.003 C 
BRANCH  24  29
ATOM     29  O   UNL     1     -36.350  13.370  -1.653  0.00  0.00    -0.505 OA
ATOM     30  H   UNL     1     -36.750  13.380  -2.500  0.00  0.00    +0.292 HD
ENDBRANCH  24  29
ENDBRANCH  21  23
ENDBRANCH   2  20
BRANCH   3  32
ATOM     31  O   UNL     1     -39.492  22.426   0.049  0.00  0.00    -0.245 OA
ATOM     32  C   UNL     1     -39.346  21.375   0.679  0.00  0.00    +0.339 C 
BRANCH  32  33
ATOM     33  O   UNL     1     -40.066  21.091   1.798  0.00  0.00    -0.477 OA
ATOM     34  H   UNL     1     -39.655  20.662   2.522  0.00  0.00    +0.295 HD
ENDBRANCH  32  33
ENDBRANCH   3  32
TORSDOF 8
ENDMDL
