MODEL 1
REMARK VINA RESULT:      -6.5      0.000      0.000
REMARK  Name = 56947078
REMARK  12 active torsions:
REMARK  status: ('A' for Active; 'I' for Inactive)
REMARK    1  A    between atoms: O_1  and  C_2
REMARK    2  A    between atoms: O_1  and  C_18
REMARK    3  A    between atoms: C_7  and  C_9
REMARK    4  A    between atoms: N_8  and  C_9
REMARK    5  A    between atoms: N_8  and  N_10
REMARK    6  A    between atoms: N_10  and  C_13
REMARK    7  A    between atoms: C_18  and  C_20
REMARK    8  A    between atoms: C_19  and  C_31
REMARK    9  A    between atoms: C_21  and  O_25
REMARK   10  A    between atoms: C_22  and  C_28
REMARK   11  A    between atoms: C_28  and  C_29
REMARK   12  A    between atoms: C_31  and  C_32
REMARK                            x       y       z     vdW  Elec       q    Type
REMARK                         _______ _______ _______ _____ _____    ______ ____
ROOT
ATOM      1  O   UNL     1     -35.402  20.427   3.109  0.00  0.00    -0.471 OA
ENDROOT
BRANCH   1   2
ATOM      2  C   UNL     1     -35.461  21.634   3.735  0.00  0.00    +0.139 C 
ATOM      3  C   UNL     1     -35.782  22.781   3.008  0.00  0.00    +0.037 C 
ATOM      4  C   UNL     1     -35.202  21.725   5.102  0.00  0.00    +0.037 C 
ATOM      5  C   UNL     1     -35.842  24.018   3.649  0.00  0.00    +0.000 C 
ATOM      6  C   UNL     1     -35.263  22.962   5.743  0.00  0.00    +0.000 C 
ATOM      7  C   UNL     1     -35.582  24.109   5.016  0.00  0.00    -0.002 C 
BRANCH   7   8
ATOM      8  C   UNL     1     -35.648  25.399   5.684  0.00  0.00    +0.142 C 
BRANCH   8   9
ATOM      9  N   UNL     1     -34.905  26.411   5.337  0.00  0.00    -0.092 NA
BRANCH   9  10
ATOM     10  N   UNL     1     -33.555  26.140   5.538  0.00  0.00    -0.145 NA
BRANCH  10  13
ATOM     11  N   UNL     1     -32.643  28.281   5.346  0.00  0.00    -0.369 N 
ATOM     12  N   UNL     1     -32.462  27.234   7.370  0.00  0.00    -0.369 N 
ATOM     13  C   UNL     1     -32.921  27.149   6.075  0.00  0.00    +0.207 C 
ATOM     14  H   UNL     1     -32.921  28.339   4.404  0.00  0.00    +0.159 HD
ATOM     15  H   UNL     1     -32.164  29.032   5.766  0.00  0.00    +0.159 HD
ATOM     16  H   UNL     1     -32.602  26.484   7.992  0.00  0.00    +0.159 HD
ATOM     17  H   UNL     1     -31.995  28.046   7.674  0.00  0.00    +0.159 HD
ENDBRANCH  10  13
ENDBRANCH   9  10
ENDBRANCH   8   9
ENDBRANCH   7   8
ENDBRANCH   1   2
BRANCH   1  18
ATOM     18  C   UNL     1     -35.361  20.435   1.683  0.00  0.00    +0.232 C 
BRANCH  18  20
ATOM     19  C   UNL     1     -33.209  20.828   0.430  0.00  0.00    +0.011 C 
ATOM     20  C   UNL     1     -33.999  20.002   1.229  0.00  0.00    +0.020 C 
ATOM     21  C   UNL     1     -31.945  20.404   0.021  0.00  0.00    +0.132 C 
ATOM     22  C   UNL     1     -31.471  19.151   0.410  0.00  0.00    +0.068 C 
ATOM     23  C   UNL     1     -33.525  18.749   1.618  0.00  0.00    -0.001 C 
ATOM     24  C   UNL     1     -32.261  18.324   1.209  0.00  0.00    +0.006 C 
BRANCH  21  25
ATOM     25  O   UNL     1     -31.173  21.213  -0.760  0.00  0.00    -0.506 OA
ATOM     26  H   UNL     1     -31.016  22.101  -0.503  0.00  0.00    +0.292 HD
ENDBRANCH  21  25
BRANCH  22  28
ATOM     27  O   UNL     1     -29.724  18.932  -1.148  0.00  0.00    -0.291 OA
ATOM     28  C   UNL     1     -30.156  18.685  -0.005  0.00  0.00    +0.176 C 
BRANCH  28  29
ATOM     29  C   UNL     1     -29.284  17.878   0.973  0.00  0.00    +0.069 C 
ATOM     30  C   UNL     1     -27.817  18.276   0.946  0.00  0.00    +0.009 C 
ENDBRANCH  28  29
ENDBRANCH  22  28
BRANCH  19  31
ATOM     31  C   UNL     1     -33.714  22.174   0.012  0.00  0.00    +0.029 C 
BRANCH  31  32
ATOM     32  C   UNL     1     -34.442  22.123  -1.336  0.00  0.00    +0.005 C 
ATOM     33  C   UNL     1     -34.732  23.515  -1.875  0.00  0.00    +0.000 C 
ENDBRANCH  31  32
ENDBRANCH  19  31
ENDBRANCH  18  20
ENDBRANCH   1  18
TORSDOF 12
ENDMDL
MODEL 2
REMARK VINA RESULT:      -6.5      1.889      2.946
REMARK  Name = 56947078
REMARK  12 active torsions:
REMARK  status: ('A' for Active; 'I' for Inactive)
REMARK    1  A    between atoms: O_1  and  C_2
REMARK    2  A    between atoms: O_1  and  C_18
REMARK    3  A    between atoms: C_7  and  C_9
REMARK    4  A    between atoms: N_8  and  C_9
REMARK    5  A    between atoms: N_8  and  N_10
REMARK    6  A    between atoms: N_10  and  C_13
REMARK    7  A    between atoms: C_18  and  C_20
REMARK    8  A    between atoms: C_19  and  C_31
REMARK    9  A    between atoms: C_21  and  O_25
REMARK   10  A    between atoms: C_22  and  C_28
REMARK   11  A    between atoms: C_28  and  C_29
REMARK   12  A    between atoms: C_31  and  C_32
REMARK                            x       y       z     vdW  Elec       q    Type
REMARK                         _______ _______ _______ _____ _____    ______ ____
ROOT
ATOM      1  O   UNL     1     -37.072  22.857   3.902  0.00  0.00    -0.471 OA
ENDROOT
BRANCH   1   2
ATOM      2  C   UNL     1     -36.219  23.758   4.460  0.00  0.00    +0.139 C 
ATOM      3  C   UNL     1     -34.936  23.361   4.840  0.00  0.00    +0.037 C 
ATOM      4  C   UNL     1     -36.626  25.078   4.651  0.00  0.00    +0.037 C 
ATOM      5  C   UNL     1     -34.062  24.284   5.412  0.00  0.00    +0.000 C 
ATOM      6  C   UNL     1     -35.751  26.002   5.222  0.00  0.00    +0.000 C 
ATOM      7  C   UNL     1     -34.468  25.605   5.604  0.00  0.00    -0.002 C 
BRANCH   7   8
ATOM      8  C   UNL     1     -33.556  26.568   6.198  0.00  0.00    +0.142 C 
BRANCH   8   9
ATOM      9  N   UNL     1     -33.028  27.549   5.522  0.00  0.00    -0.092 NA
BRANCH   9  10
ATOM     10  N   UNL     1     -31.723  27.802   5.935  0.00  0.00    -0.145 NA
BRANCH  10  13
ATOM     11  N   UNL     1     -32.260  30.073   5.864  0.00  0.00    -0.369 N 
ATOM     12  N   UNL     1     -30.775  29.390   7.461  0.00  0.00    -0.369 N 
ATOM     13  C   UNL     1     -31.579  29.012   6.409  0.00  0.00    +0.207 C 
ATOM     14  H   UNL     1     -32.868  29.928   5.102  0.00  0.00    +0.159 HD
ATOM     15  H   UNL     1     -32.140  30.978   6.233  0.00  0.00    +0.159 HD
ATOM     16  H   UNL     1     -30.236  28.717   7.935  0.00  0.00    +0.159 HD
ATOM     17  H   UNL     1     -30.741  30.334   7.739  0.00  0.00    +0.159 HD
ENDBRANCH  10  13
ENDBRANCH   9  10
ENDBRANCH   8   9
ENDBRANCH   7   8
ENDBRANCH   1   2
BRANCH   1  18
ATOM     18  C   UNL     1     -37.161  22.841   2.478  0.00  0.00    +0.232 C 
BRANCH  18  20
ATOM     19  C   UNL     1     -35.043  22.599   1.131  0.00  0.00    +0.011 C 
ATOM     20  C   UNL     1     -36.032  22.021   1.926  0.00  0.00    +0.020 C 
ATOM     21  C   UNL     1     -34.004  21.816   0.630  0.00  0.00    +0.132 C 
ATOM     22  C   UNL     1     -33.953  20.453   0.924  0.00  0.00    +0.068 C 
ATOM     23  C   UNL     1     -35.982  20.658   2.221  0.00  0.00    -0.001 C 
ATOM     24  C   UNL     1     -34.942  19.875   1.720  0.00  0.00    +0.006 C 
BRANCH  21  25
ATOM     25  O   UNL     1     -33.037  22.383  -0.149  0.00  0.00    -0.506 OA
ATOM     26  H   UNL     1     -32.552  21.854  -0.753  0.00  0.00    +0.292 HD
ENDBRANCH  21  25
BRANCH  22  28
ATOM     27  O   UNL     1     -32.381  19.833  -0.711  0.00  0.00    -0.291 OA
ATOM     28  C   UNL     1     -32.879  19.615   0.411  0.00  0.00    +0.176 C 
BRANCH  28  29
ATOM     29  C   UNL     1     -32.347  18.447   1.259  0.00  0.00    +0.069 C 
ATOM     30  C   UNL     1     -32.262  17.134   0.497  0.00  0.00    +0.009 C 
ENDBRANCH  28  29
ENDBRANCH  22  28
BRANCH  19  31
ATOM     31  C   UNL     1     -35.094  24.061   0.814  0.00  0.00    +0.029 C 
BRANCH  31  32
ATOM     32  C   UNL     1     -34.117  24.871   1.673  0.00  0.00    +0.005 C 
ATOM     33  C   UNL     1     -34.500  26.342   1.728  0.00  0.00    +0.000 C 
ENDBRANCH  31  32
ENDBRANCH  19  31
ENDBRANCH  18  20
ENDBRANCH   1  18
TORSDOF 12
ENDMDL
MODEL 3
REMARK VINA RESULT:      -6.4      0.792      1.496
REMARK  Name = 56947078
REMARK  12 active torsions:
REMARK  status: ('A' for Active; 'I' for Inactive)
REMARK    1  A    between atoms: O_1  and  C_2
REMARK    2  A    between atoms: O_1  and  C_18
REMARK    3  A    between atoms: C_7  and  C_9
REMARK    4  A    between atoms: N_8  and  C_9
REMARK    5  A    between atoms: N_8  and  N_10
REMARK    6  A    between atoms: N_10  and  C_13
REMARK    7  A    between atoms: C_18  and  C_20
REMARK    8  A    between atoms: C_19  and  C_31
REMARK    9  A    between atoms: C_21  and  O_25
REMARK   10  A    between atoms: C_22  and  C_28
REMARK   11  A    between atoms: C_28  and  C_29
REMARK   12  A    between atoms: C_31  and  C_32
REMARK                            x       y       z     vdW  Elec       q    Type
REMARK                         _______ _______ _______ _____ _____    ______ ____
ROOT
ATOM      1  O   UNL     1     -35.485  20.458   3.308  0.00  0.00    -0.471 OA
ENDROOT
BRANCH   1   2
ATOM      2  C   UNL     1     -35.542  21.693   3.876  0.00  0.00    +0.139 C 
ATOM      3  C   UNL     1     -35.137  21.872   5.199  0.00  0.00    +0.037 C 
ATOM      4  C   UNL     1     -36.004  22.781   3.135  0.00  0.00    +0.037 C 
ATOM      5  C   UNL     1     -35.195  23.138   5.781  0.00  0.00    +0.000 C 
ATOM      6  C   UNL     1     -36.062  24.047   3.717  0.00  0.00    +0.000 C 
ATOM      7  C   UNL     1     -35.658  24.226   5.041  0.00  0.00    -0.002 C 
BRANCH   7   8
ATOM      8  C   UNL     1     -35.717  25.546   5.647  0.00  0.00    +0.142 C 
BRANCH   8   9
ATOM      9  N   UNL     1     -34.877  26.497   5.349  0.00  0.00    -0.092 NA
BRANCH   9  10
ATOM     10  N   UNL     1     -33.582  26.168   5.739  0.00  0.00    -0.145 NA
BRANCH  10  13
ATOM     11  N   UNL     1     -32.462  27.332   7.425  0.00  0.00    -0.369 N 
ATOM     12  N   UNL     1     -32.539  28.292   5.352  0.00  0.00    -0.369 N 
ATOM     13  C   UNL     1     -32.901  27.214   6.128  0.00  0.00    +0.207 C 
ATOM     14  H   UNL     1     -32.660  26.622   8.077  0.00  0.00    +0.159 HD
ATOM     15  H   UNL     1     -31.950  28.127   7.701  0.00  0.00    +0.159 HD
ATOM     16  H   UNL     1     -32.796  28.323   4.402  0.00  0.00    +0.159 HD
ATOM     17  H   UNL     1     -32.022  29.031   5.747  0.00  0.00    +0.159 HD
ENDBRANCH  10  13
ENDBRANCH   9  10
ENDBRANCH   8   9
ENDBRANCH   7   8
ENDBRANCH   1   2
BRANCH   1  18
ATOM     18  C   UNL     1     -35.574  20.392   1.885  0.00  0.00    +0.232 C 
BRANCH  18  20
ATOM     19  C   UNL     1     -33.560  21.037   0.512  0.00  0.00    +0.011 C 
ATOM     20  C   UNL     1     -34.212  20.109   1.322  0.00  0.00    +0.020 C 
ATOM     21  C   UNL     1     -32.294  20.751   0.001  0.00  0.00    +0.132 C 
ATOM     22  C   UNL     1     -31.681  19.534   0.300  0.00  0.00    +0.068 C 
ATOM     23  C   UNL     1     -33.599  18.891   1.621  0.00  0.00    -0.001 C 
ATOM     24  C   UNL     1     -32.333  18.605   1.110  0.00  0.00    +0.006 C 
BRANCH  21  25
ATOM     25  O   UNL     1     -31.657  21.661  -0.792  0.00  0.00    -0.506 OA
ATOM     26  H   UNL     1     -31.486  22.524  -0.469  0.00  0.00    +0.292 HD
ENDBRANCH  21  25
BRANCH  22  28
ATOM     27  O   UNL     1     -29.492  20.097  -0.348  0.00  0.00    -0.291 OA
ATOM     28  C   UNL     1     -30.361  19.212  -0.224  0.00  0.00    +0.176 C 
BRANCH  28  29
ATOM     29  C   UNL     1     -30.029  17.766  -0.629  0.00  0.00    +0.069 C 
ATOM     30  C   UNL     1     -30.355  17.454  -2.081  0.00  0.00    +0.009 C 
ENDBRANCH  28  29
ENDBRANCH  22  28
BRANCH  19  31
ATOM     31  C   UNL     1     -34.215  22.344   0.190  0.00  0.00    +0.029 C 
BRANCH  31  32
ATOM     32  C   UNL     1     -34.947  22.306  -1.156  0.00  0.00    +0.005 C 
ATOM     33  C   UNL     1     -36.450  22.455  -0.986  0.00  0.00    +0.000 C 
ENDBRANCH  31  32
ENDBRANCH  19  31
ENDBRANCH  18  20
ENDBRANCH   1  18
TORSDOF 12
ENDMDL
MODEL 4
REMARK VINA RESULT:      -6.3      4.673      8.386
REMARK  Name = 56947078
REMARK  12 active torsions:
REMARK  status: ('A' for Active; 'I' for Inactive)
REMARK    1  A    between atoms: O_1  and  C_2
REMARK    2  A    between atoms: O_1  and  C_18
REMARK    3  A    between atoms: C_7  and  C_9
REMARK    4  A    between atoms: N_8  and  C_9
REMARK    5  A    between atoms: N_8  and  N_10
REMARK    6  A    between atoms: N_10  and  C_13
REMARK    7  A    between atoms: C_18  and  C_20
REMARK    8  A    between atoms: C_19  and  C_31
REMARK    9  A    between atoms: C_21  and  O_25
REMARK   10  A    between atoms: C_22  and  C_28
REMARK   11  A    between atoms: C_28  and  C_29
REMARK   12  A    between atoms: C_31  and  C_32
REMARK                            x       y       z     vdW  Elec       q    Type
REMARK                         _______ _______ _______ _____ _____    ______ ____
ROOT
ATOM      1  O   UNL     1     -36.977  24.969   1.995  0.00  0.00    -0.471 OA
ENDROOT
BRANCH   1   2
ATOM      2  C   UNL     1     -36.401  23.737   1.971  0.00  0.00    +0.139 C 
ATOM      3  C   UNL     1     -35.186  23.549   1.310  0.00  0.00    +0.037 C 
ATOM      4  C   UNL     1     -37.023  22.663   2.606  0.00  0.00    +0.037 C 
ATOM      5  C   UNL     1     -34.596  22.286   1.285  0.00  0.00    +0.000 C 
ATOM      6  C   UNL     1     -36.432  21.400   2.581  0.00  0.00    +0.000 C 
ATOM      7  C   UNL     1     -35.218  21.211   1.919  0.00  0.00    -0.002 C 
BRANCH   7   8
ATOM      8  C   UNL     1     -34.601  19.895   1.895  0.00  0.00    +0.142 C 
BRANCH   8   9
ATOM      9  N   UNL     1     -33.631  19.586   1.081  0.00  0.00    -0.092 NA
BRANCH   9  10
ATOM     10  N   UNL     1     -32.870  18.532   1.578  0.00  0.00    -0.145 NA
BRANCH  10  13
ATOM     11  N   UNL     1     -34.169  17.061   0.313  0.00  0.00    -0.369 N 
ATOM     12  N   UNL     1     -31.933  16.619   0.478  0.00  0.00    -0.369 N 
ATOM     13  C   UNL     1     -32.962  17.461   0.834  0.00  0.00    +0.207 C 
ATOM     14  H   UNL     1     -34.982  17.584   0.499  0.00  0.00    +0.159 HD
ATOM     15  H   UNL     1     -34.221  16.251  -0.245  0.00  0.00    +0.159 HD
ATOM     16  H   UNL     1     -31.017  16.801   0.791  0.00  0.00    +0.159 HD
ATOM     17  H   UNL     1     -32.112  15.835  -0.090  0.00  0.00    +0.159 HD
ENDBRANCH  10  13
ENDBRANCH   9  10
ENDBRANCH   8   9
ENDBRANCH   7   8
ENDBRANCH   1   2
BRANCH   1  18
ATOM     18  C   UNL     1     -37.083  25.612   3.266  0.00  0.00    +0.232 C 
BRANCH  18  20
ATOM     19  C   UNL     1     -35.031  25.933   4.695  0.00  0.00    +0.011 C 
ATOM     20  C   UNL     1     -35.785  26.295   3.579  0.00  0.00    +0.020 C 
ATOM     21  C   UNL     1     -33.826  26.582   4.964  0.00  0.00    +0.132 C 
ATOM     22  C   UNL     1     -33.376  27.595   4.118  0.00  0.00    +0.068 C 
ATOM     23  C   UNL     1     -35.334  27.308   2.732  0.00  0.00    -0.001 C 
ATOM     24  C   UNL     1     -34.130  27.958   3.002  0.00  0.00    +0.006 C 
BRANCH  21  25
ATOM     25  O   UNL     1     -33.090  26.227   6.057  0.00  0.00    -0.506 OA
ATOM     26  H   UNL     1     -32.402  25.594   5.972  0.00  0.00    +0.292 HD
ENDBRANCH  21  25
BRANCH  22  28
ATOM     27  O   UNL     1     -31.033  27.690   4.289  0.00  0.00    -0.291 OA
ATOM     28  C   UNL     1     -32.123  28.288   4.380  0.00  0.00    +0.176 C 
BRANCH  28  29
ATOM     29  C   UNL     1     -32.137  29.776   4.774  0.00  0.00    +0.069 C 
ATOM     30  C   UNL     1     -31.839  30.016   6.245  0.00  0.00    +0.009 C 
ENDBRANCH  28  29
ENDBRANCH  22  28
BRANCH  19  31
ATOM     31  C   UNL     1     -35.511  24.846   5.604  0.00  0.00    +0.029 C 
BRANCH  31  32
ATOM     32  C   UNL     1     -34.814  23.510   5.325  0.00  0.00    +0.005 C 
ATOM     33  C   UNL     1     -35.445  22.368   6.106  0.00  0.00    +0.000 C 
ENDBRANCH  31  32
ENDBRANCH  19  31
ENDBRANCH  18  20
ENDBRANCH   1  18
TORSDOF 12
ENDMDL
MODEL 5
REMARK VINA RESULT:      -6.3      5.446      9.499
REMARK  Name = 56947078
REMARK  12 active torsions:
REMARK  status: ('A' for Active; 'I' for Inactive)
REMARK    1  A    between atoms: O_1  and  C_2
REMARK    2  A    between atoms: O_1  and  C_18
REMARK    3  A    between atoms: C_7  and  C_9
REMARK    4  A    between atoms: N_8  and  C_9
REMARK    5  A    between atoms: N_8  and  N_10
REMARK    6  A    between atoms: N_10  and  C_13
REMARK    7  A    between atoms: C_18  and  C_20
REMARK    8  A    between atoms: C_19  and  C_31
REMARK    9  A    between atoms: C_21  and  O_25
REMARK   10  A    between atoms: C_22  and  C_28
REMARK   11  A    between atoms: C_28  and  C_29
REMARK   12  A    between atoms: C_31  and  C_32
REMARK                            x       y       z     vdW  Elec       q    Type
REMARK                         _______ _______ _______ _____ _____    ______ ____
ROOT
ATOM      1  O   UNL     1     -35.079  21.475   1.222  0.00  0.00    -0.471 OA
ENDROOT
BRANCH   1   2
ATOM      2  C   UNL     1     -34.015  20.649   1.023  0.00  0.00    +0.139 C 
ATOM      3  C   UNL     1     -33.985  19.393   1.630  0.00  0.00    +0.037 C 
ATOM      4  C   UNL     1     -32.957  21.058   0.212  0.00  0.00    +0.037 C 
ATOM      5  C   UNL     1     -32.895  18.547   1.425  0.00  0.00    +0.000 C 
ATOM      6  C   UNL     1     -31.867  20.212   0.008  0.00  0.00    +0.000 C 
ATOM      7  C   UNL     1     -31.836  18.956   0.615  0.00  0.00    -0.002 C 
BRANCH   7   8
ATOM      8  C   UNL     1     -30.701  18.073   0.401  0.00  0.00    +0.142 C 
BRANCH   8   9
ATOM      9  N   UNL     1     -30.648  16.863   0.883  0.00  0.00    -0.092 NA
BRANCH   9  10
ATOM     10  N   UNL     1     -30.622  15.915  -0.135  0.00  0.00    -0.145 NA
BRANCH  10  13
ATOM     11  N   UNL     1     -31.220  13.728   0.423  0.00  0.00    -0.369 N 
ATOM     12  N   UNL     1     -32.895  15.155  -0.196  0.00  0.00    -0.369 N 
ATOM     13  C   UNL     1     -31.544  15.000   0.015  0.00  0.00    +0.207 C 
ATOM     14  H   UNL     1     -30.281  13.494   0.606  0.00  0.00    +0.159 HD
ATOM     15  H   UNL     1     -31.927  13.051   0.532  0.00  0.00    +0.159 HD
ATOM     16  H   UNL     1     -33.251  16.024  -0.490  0.00  0.00    +0.159 HD
ATOM     17  H   UNL     1     -33.506  14.396  -0.051  0.00  0.00    +0.159 HD
ENDBRANCH  10  13
ENDBRANCH   9  10
ENDBRANCH   8   9
ENDBRANCH   7   8
ENDBRANCH   1   2
BRANCH   1  18
ATOM     18  C   UNL     1     -35.650  21.495   2.530  0.00  0.00    +0.232 C 
BRANCH  18  20
ATOM     19  C   UNL     1     -36.433  23.691   3.491  0.00  0.00    +0.011 C 
ATOM     20  C   UNL     1     -36.635  22.623   2.617  0.00  0.00    +0.020 C 
ATOM     21  C   UNL     1     -37.363  24.728   3.553  0.00  0.00    +0.132 C 
ATOM     22  C   UNL     1     -38.498  24.696   2.742  0.00  0.00    +0.068 C 
ATOM     23  C   UNL     1     -37.769  22.591   1.806  0.00  0.00    -0.001 C 
ATOM     24  C   UNL     1     -38.700  23.628   1.868  0.00  0.00    +0.006 C 
BRANCH  21  25
ATOM     25  O   UNL     1     -37.164  25.772   4.409  0.00  0.00    -0.506 OA
ATOM     26  H   UNL     1     -37.540  25.753   5.267  0.00  0.00    +0.292 HD
ENDBRANCH  21  25
BRANCH  22  28
ATOM     27  O   UNL     1     -39.271  26.854   2.221  0.00  0.00    -0.291 OA
ATOM     28  C   UNL     1     -39.484  25.766   2.791  0.00  0.00    +0.176 C 
BRANCH  28  29
ATOM     29  C   UNL     1     -40.804  25.558   3.553  0.00  0.00    +0.069 C 
ATOM     30  C   UNL     1     -41.744  26.750   3.473  0.00  0.00    +0.009 C 
ENDBRANCH  28  29
ENDBRANCH  22  28
BRANCH  19  31
ATOM     31  C   UNL     1     -35.216  23.728   4.362  0.00  0.00    +0.029 C 
BRANCH  31  32
ATOM     32  C   UNL     1     -35.521  23.283   5.797  0.00  0.00    +0.005 C 
ATOM     33  C   UNL     1     -34.954  21.903   6.093  0.00  0.00    +0.000 C 
ENDBRANCH  31  32
ENDBRANCH  19  31
ENDBRANCH  18  20
ENDBRANCH   1  18
TORSDOF 12
ENDMDL
MODEL 6
REMARK VINA RESULT:      -6.3      4.631      8.462
REMARK  Name = 56947078
REMARK  12 active torsions:
REMARK  status: ('A' for Active; 'I' for Inactive)
REMARK    1  A    between atoms: O_1  and  C_2
REMARK    2  A    between atoms: O_1  and  C_18
REMARK    3  A    between atoms: C_7  and  C_9
REMARK    4  A    between atoms: N_8  and  C_9
REMARK    5  A    between atoms: N_8  and  N_10
REMARK    6  A    between atoms: N_10  and  C_13
REMARK    7  A    between atoms: C_18  and  C_20
REMARK    8  A    between atoms: C_19  and  C_31
REMARK    9  A    between atoms: C_21  and  O_25
REMARK   10  A    between atoms: C_22  and  C_28
REMARK   11  A    between atoms: C_28  and  C_29
REMARK   12  A    between atoms: C_31  and  C_32
REMARK                            x       y       z     vdW  Elec       q    Type
REMARK                         _______ _______ _______ _____ _____    ______ ____
ROOT
ATOM      1  O   UNL     1     -35.098  23.641   1.230  0.00  0.00    -0.471 OA
ENDROOT
BRANCH   1   2
ATOM      2  C   UNL     1     -34.671  22.349   1.209  0.00  0.00    +0.139 C 
ATOM      3  C   UNL     1     -35.256  21.408   2.058  0.00  0.00    +0.037 C 
ATOM      4  C   UNL     1     -33.651  21.965   0.339  0.00  0.00    +0.037 C 
ATOM      5  C   UNL     1     -34.818  20.084   2.036  0.00  0.00    +0.000 C 
ATOM      6  C   UNL     1     -33.214  20.641   0.318  0.00  0.00    +0.000 C 
ATOM      7  C   UNL     1     -33.797  19.700   1.167  0.00  0.00    -0.002 C 
BRANCH   7   8
ATOM      8  C   UNL     1     -33.343  18.319   1.144  0.00  0.00    +0.142 C 
BRANCH   8   9
ATOM      9  N   UNL     1     -32.229  17.933   1.699  0.00  0.00    -0.092 NA
BRANCH   9  10
ATOM     10  N   UNL     1     -31.396  17.304   0.778  0.00  0.00    -0.145 NA
BRANCH  10  13
ATOM     11  N   UNL     1     -29.175  17.340   1.497  0.00  0.00    -0.369 N 
ATOM     12  N   UNL     1     -29.819  18.924  -0.021  0.00  0.00    -0.369 N 
ATOM     13  C   UNL     1     -30.206  17.842   0.738  0.00  0.00    +0.207 C 
ATOM     14  H   UNL     1     -29.330  16.564   2.083  0.00  0.00    +0.159 HD
ATOM     15  H   UNL     1     -28.284  17.757   1.455  0.00  0.00    +0.159 HD
ATOM     16  H   UNL     1     -30.470  19.371  -0.608  0.00  0.00    +0.159 HD
ATOM     17  H   UNL     1     -28.891  19.249   0.024  0.00  0.00    +0.159 HD
ENDBRANCH  10  13
ENDBRANCH   9  10
ENDBRANCH   8   9
ENDBRANCH   7   8
ENDBRANCH   1   2
BRANCH   1  18
ATOM     18  C   UNL     1     -35.720  24.100   2.430  0.00  0.00    +0.232 C 
BRANCH  18  20
ATOM     19  C   UNL     1     -34.742  25.222   4.465  0.00  0.00    +0.011 C 
ATOM     20  C   UNL     1     -34.837  25.126   3.077  0.00  0.00    +0.020 C 
ATOM     21  C   UNL     1     -33.913  26.183   5.044  0.00  0.00    +0.132 C 
ATOM     22  C   UNL     1     -33.181  27.051   4.233  0.00  0.00    +0.068 C 
ATOM     23  C   UNL     1     -34.105  25.994   2.266  0.00  0.00    -0.001 C 
ATOM     24  C   UNL     1     -33.277  26.956   2.845  0.00  0.00    +0.006 C 
BRANCH  21  25
ATOM     25  O   UNL     1     -33.821  26.276   6.402  0.00  0.00    -0.506 OA
ATOM     26  H   UNL     1     -34.573  26.515   6.907  0.00  0.00    +0.292 HD
ENDBRANCH  21  25
BRANCH  22  28
ATOM     27  O   UNL     1     -31.462  27.757   5.674  0.00  0.00    -0.291 OA
ATOM     28  C   UNL     1     -32.312  28.064   4.814  0.00  0.00    +0.176 C 
BRANCH  28  29
ATOM     29  C   UNL     1     -32.437  29.531   4.366  0.00  0.00    +0.069 C 
ATOM     30  C   UNL     1     -32.054  30.529   5.446  0.00  0.00    +0.009 C 
ENDBRANCH  28  29
ENDBRANCH  22  28
BRANCH  19  31
ATOM     31  C   UNL     1     -35.525  24.292   5.338  0.00  0.00    +0.029 C 
BRANCH  31  32
ATOM     32  C   UNL     1     -34.764  22.993   5.626  0.00  0.00    +0.005 C 
ATOM     33  C   UNL     1     -35.619  21.995   6.392  0.00  0.00    +0.000 C 
ENDBRANCH  31  32
ENDBRANCH  19  31
ENDBRANCH  18  20
ENDBRANCH   1  18
TORSDOF 12
ENDMDL
MODEL 7
REMARK VINA RESULT:      -6.2      5.067      8.518
REMARK  Name = 56947078
REMARK  12 active torsions:
REMARK  status: ('A' for Active; 'I' for Inactive)
REMARK    1  A    between atoms: O_1  and  C_2
REMARK    2  A    between atoms: O_1  and  C_18
REMARK    3  A    between atoms: C_7  and  C_9
REMARK    4  A    between atoms: N_8  and  C_9
REMARK    5  A    between atoms: N_8  and  N_10
REMARK    6  A    between atoms: N_10  and  C_13
REMARK    7  A    between atoms: C_18  and  C_20
REMARK    8  A    between atoms: C_19  and  C_31
REMARK    9  A    between atoms: C_21  and  O_25
REMARK   10  A    between atoms: C_22  and  C_28
REMARK   11  A    between atoms: C_28  and  C_29
REMARK   12  A    between atoms: C_31  and  C_32
REMARK                            x       y       z     vdW  Elec       q    Type
REMARK                         _______ _______ _______ _____ _____    ______ ____
ROOT
ATOM      1  O   UNL     1     -36.648  25.382   1.856  0.00  0.00    -0.471 OA
ENDROOT
BRANCH   1   2
ATOM      2  C   UNL     1     -36.201  24.097   1.863  0.00  0.00    +0.139 C 
ATOM      3  C   UNL     1     -34.961  23.787   1.303  0.00  0.00    +0.037 C 
ATOM      4  C   UNL     1     -36.980  23.090   2.432  0.00  0.00    +0.037 C 
ATOM      5  C   UNL     1     -34.502  22.470   1.310  0.00  0.00    +0.000 C 
ATOM      6  C   UNL     1     -36.522  21.773   2.439  0.00  0.00    +0.000 C 
ATOM      7  C   UNL     1     -35.283  21.462   1.878  0.00  0.00    -0.002 C 
BRANCH   7   8
ATOM      8  C   UNL     1     -34.803  20.090   1.887  0.00  0.00    +0.142 C 
BRANCH   8   9
ATOM      9  N   UNL     1     -34.376  19.484   0.815  0.00  0.00    -0.092 NA
BRANCH   9  10
ATOM     10  N   UNL     1     -35.412  19.265  -0.088  0.00  0.00    -0.145 NA
BRANCH  10  13
ATOM     11  N   UNL     1     -37.278  17.919   0.309  0.00  0.00    -0.369 N 
ATOM     12  N   UNL     1     -35.281  16.871  -0.063  0.00  0.00    -0.369 N 
ATOM     13  C   UNL     1     -35.939  18.076   0.042  0.00  0.00    +0.207 C 
ATOM     14  H   UNL     1     -37.856  18.711   0.407  0.00  0.00    +0.159 HD
ATOM     15  H   UNL     1     -37.659  17.016   0.404  0.00  0.00    +0.159 HD
ATOM     16  H   UNL     1     -34.316  16.853  -0.253  0.00  0.00    +0.159 HD
ATOM     17  H   UNL     1     -35.777  16.028   0.053  0.00  0.00    +0.159 HD
ENDBRANCH  10  13
ENDBRANCH   9  10
ENDBRANCH   8   9
ENDBRANCH   7   8
ENDBRANCH   1   2
BRANCH   1  18
ATOM     18  C   UNL     1     -36.813  26.020   3.122  0.00  0.00    +0.232 C 
BRANCH  18  20
ATOM     19  C   UNL     1     -34.835  26.185   4.678  0.00  0.00    +0.011 C 
ATOM     20  C   UNL     1     -35.506  26.628   3.538  0.00  0.00    +0.020 C 
ATOM     21  C   UNL     1     -33.621  26.766   5.044  0.00  0.00    +0.132 C 
ATOM     22  C   UNL     1     -33.077  27.791   4.270  0.00  0.00    +0.068 C 
ATOM     23  C   UNL     1     -34.962  27.653   2.763  0.00  0.00    -0.001 C 
ATOM     24  C   UNL     1     -33.748  28.233   3.129  0.00  0.00    +0.006 C 
BRANCH  21  25
ATOM     25  O   UNL     1     -32.967  26.332   6.160  0.00  0.00    -0.506 OA
ATOM     26  H   UNL     1     -33.449  25.943   6.864  0.00  0.00    +0.292 HD
ENDBRANCH  21  25
BRANCH  22  28
ATOM     27  O   UNL     1     -30.730  27.841   4.396  0.00  0.00    -0.291 OA
ATOM     28  C   UNL     1     -31.812  28.413   4.633  0.00  0.00    +0.176 C 
BRANCH  28  29
ATOM     29  C   UNL     1     -31.804  29.791   5.316  0.00  0.00    +0.069 C 
ATOM     30  C   UNL     1     -31.657  29.717   6.827  0.00  0.00    +0.009 C 
ENDBRANCH  28  29
ENDBRANCH  22  28
BRANCH  19  31
ATOM     31  C   UNL     1     -35.416  25.085   5.511  0.00  0.00    +0.029 C 
BRANCH  31  32
ATOM     32  C   UNL     1     -34.755  23.733   5.222  0.00  0.00    +0.005 C 
ATOM     33  C   UNL     1     -35.388  22.611   6.030  0.00  0.00    +0.000 C 
ENDBRANCH  31  32
ENDBRANCH  19  31
ENDBRANCH  18  20
ENDBRANCH   1  18
TORSDOF 12
ENDMDL
MODEL 8
REMARK VINA RESULT:      -6.1      5.177      8.795
REMARK  Name = 56947078
REMARK  12 active torsions:
REMARK  status: ('A' for Active; 'I' for Inactive)
REMARK    1  A    between atoms: O_1  and  C_2
REMARK    2  A    between atoms: O_1  and  C_18
REMARK    3  A    between atoms: C_7  and  C_9
REMARK    4  A    between atoms: N_8  and  C_9
REMARK    5  A    between atoms: N_8  and  N_10
REMARK    6  A    between atoms: N_10  and  C_13
REMARK    7  A    between atoms: C_18  and  C_20
REMARK    8  A    between atoms: C_19  and  C_31
REMARK    9  A    between atoms: C_21  and  O_25
REMARK   10  A    between atoms: C_22  and  C_28
REMARK   11  A    between atoms: C_28  and  C_29
REMARK   12  A    between atoms: C_31  and  C_32
REMARK                            x       y       z     vdW  Elec       q    Type
REMARK                         _______ _______ _______ _____ _____    ______ ____
ROOT
ATOM      1  O   UNL     1     -35.114  22.939   1.077  0.00  0.00    -0.471 OA
ENDROOT
BRANCH   1   2
ATOM      2  C   UNL     1     -34.476  21.737   1.075  0.00  0.00    +0.139 C 
ATOM      3  C   UNL     1     -34.926  20.707   1.903  0.00  0.00    +0.037 C 
ATOM      4  C   UNL     1     -33.373  21.533   0.246  0.00  0.00    +0.037 C 
ATOM      5  C   UNL     1     -34.272  19.476   1.901  0.00  0.00    +0.000 C 
ATOM      6  C   UNL     1     -32.719  20.302   0.244  0.00  0.00    +0.000 C 
ATOM      7  C   UNL     1     -33.168  19.272   1.073  0.00  0.00    -0.002 C 
BRANCH   7   8
ATOM      8  C   UNL     1     -32.488  17.987   1.070  0.00  0.00    +0.142 C 
BRANCH   8   9
ATOM      9  N   UNL     1     -32.724  17.067   0.179  0.00  0.00    -0.092 NA
BRANCH   9  10
ATOM     10  N   UNL     1     -34.082  16.981  -0.113  0.00  0.00    -0.145 NA
BRANCH  10  13
ATOM     11  N   UNL     1     -33.776  14.740  -0.692  0.00  0.00    -0.369 N 
ATOM     12  N   UNL     1     -35.693  15.289   0.425  0.00  0.00    -0.369 N 
ATOM     13  C   UNL     1     -34.513  15.747  -0.115  0.00  0.00    +0.207 C 
ATOM     14  H   UNL     1     -32.910  14.945  -1.114  0.00  0.00    +0.159 HD
ATOM     15  H   UNL     1     -34.115  13.816  -0.685  0.00  0.00    +0.159 HD
ATOM     16  H   UNL     1     -36.308  15.917   0.868  0.00  0.00    +0.159 HD
ATOM     17  H   UNL     1     -35.921  14.333   0.369  0.00  0.00    +0.159 HD
ENDBRANCH  10  13
ENDBRANCH   9  10
ENDBRANCH   8   9
ENDBRANCH   7   8
ENDBRANCH   1   2
BRANCH   1  18
ATOM     18  C   UNL     1     -35.688  23.368   2.312  0.00  0.00    +0.232 C 
BRANCH  18  20
ATOM     19  C   UNL     1     -34.946  24.865   4.200  0.00  0.00    +0.011 C 
ATOM     20  C   UNL     1     -34.886  24.515   2.851  0.00  0.00    +0.020 C 
ATOM     21  C   UNL     1     -34.191  25.936   4.678  0.00  0.00    +0.132 C 
ATOM     22  C   UNL     1     -33.375  26.658   3.806  0.00  0.00    +0.068 C 
ATOM     23  C   UNL     1     -34.070  25.237   1.979  0.00  0.00    -0.001 C 
ATOM     24  C   UNL     1     -33.315  26.308   2.457  0.00  0.00    +0.006 C 
BRANCH  21  25
ATOM     25  O   UNL     1     -34.250  26.277   5.998  0.00  0.00    -0.506 OA
ATOM     26  H   UNL     1     -35.061  26.564   6.371  0.00  0.00    +0.292 HD
ENDBRANCH  21  25
BRANCH  22  28
ATOM     27  O   UNL     1     -32.033  27.744   5.402  0.00  0.00    -0.291 OA
ATOM     28  C   UNL     1     -32.579  27.780   4.282  0.00  0.00    +0.176 C 
BRANCH  28  29
ATOM     29  C   UNL     1     -32.405  29.026   3.397  0.00  0.00    +0.069 C 
ATOM     30  C   UNL     1     -32.694  30.330   4.123  0.00  0.00    +0.009 C 
ENDBRANCH  28  29
ENDBRANCH  22  28
BRANCH  19  31
ATOM     31  C   UNL     1     -35.819  24.092   5.138  0.00  0.00    +0.029 C 
BRANCH  31  32
ATOM     32  C   UNL     1     -35.018  23.095   5.982  0.00  0.00    +0.005 C 
ATOM     33  C   UNL     1     -35.275  21.659   5.555  0.00  0.00    +0.000 C 
ENDBRANCH  31  32
ENDBRANCH  19  31
ENDBRANCH  18  20
ENDBRANCH   1  18
TORSDOF 12
ENDMDL
MODEL 9
REMARK VINA RESULT:      -6.1      5.556      9.209
REMARK  Name = 56947078
REMARK  12 active torsions:
REMARK  status: ('A' for Active; 'I' for Inactive)
REMARK    1  A    between atoms: O_1  and  C_2
REMARK    2  A    between atoms: O_1  and  C_18
REMARK    3  A    between atoms: C_7  and  C_9
REMARK    4  A    between atoms: N_8  and  C_9
REMARK    5  A    between atoms: N_8  and  N_10
REMARK    6  A    between atoms: N_10  and  C_13
REMARK    7  A    between atoms: C_18  and  C_20
REMARK    8  A    between atoms: C_19  and  C_31
REMARK    9  A    between atoms: C_21  and  O_25
REMARK   10  A    between atoms: C_22  and  C_28
REMARK   11  A    between atoms: C_28  and  C_29
REMARK   12  A    between atoms: C_31  and  C_32
REMARK                            x       y       z     vdW  Elec       q    Type
REMARK                         _______ _______ _______ _____ _____    ______ ____
ROOT
ATOM      1  O   UNL     1     -35.064  22.195   1.114  0.00  0.00    -0.471 OA
ENDROOT
BRANCH   1   2
ATOM      2  C   UNL     1     -34.171  21.178   0.973  0.00  0.00    +0.139 C 
ATOM      3  C   UNL     1     -33.041  21.349   0.172  0.00  0.00    +0.037 C 
ATOM      4  C   UNL     1     -34.384  19.966   1.628  0.00  0.00    +0.037 C 
ATOM      5  C   UNL     1     -32.125  20.307   0.027  0.00  0.00    +0.000 C 
ATOM      6  C   UNL     1     -33.469  18.924   1.484  0.00  0.00    +0.000 C 
ATOM      7  C   UNL     1     -32.339  19.094   0.682  0.00  0.00    -0.002 C 
BRANCH   7   8
ATOM      8  C   UNL     1     -31.383  18.008   0.533  0.00  0.00    +0.142 C 
BRANCH   8   9
ATOM      9  N   UNL     1     -31.708  16.756   0.688  0.00  0.00    -0.092 NA
BRANCH   9  10
ATOM     10  N   UNL     1     -31.301  15.990  -0.400  0.00  0.00    -0.145 NA
BRANCH  10  13
ATOM     11  N   UNL     1     -31.179  13.806   0.417  0.00  0.00    -0.369 N 
ATOM     12  N   UNL     1     -29.211  14.867  -0.057  0.00  0.00    -0.369 N 
ATOM     13  C   UNL     1     -30.584  14.958  -0.039  0.00  0.00    +0.207 C 
ATOM     14  H   UNL     1     -32.160  13.750   0.476  0.00  0.00    +0.159 HD
ATOM     15  H   UNL     1     -30.624  13.038   0.685  0.00  0.00    +0.159 HD
ATOM     16  H   UNL     1     -28.670  15.630  -0.365  0.00  0.00    +0.159 HD
ATOM     17  H   UNL     1     -28.769  14.037   0.238  0.00  0.00    +0.159 HD
ENDBRANCH  10  13
ENDBRANCH   9  10
ENDBRANCH   8   9
ENDBRANCH   7   8
ENDBRANCH   1   2
BRANCH   1  18
ATOM     18  C   UNL     1     -35.418  22.569   2.445  0.00  0.00    +0.232 C 
BRANCH  18  20
ATOM     19  C   UNL     1     -35.602  24.699   3.782  0.00  0.00    +0.011 C 
ATOM     20  C   UNL     1     -35.242  24.050   2.601  0.00  0.00    +0.020 C 
ATOM     21  C   UNL     1     -35.428  26.077   3.903  0.00  0.00    +0.132 C 
ATOM     22  C   UNL     1     -34.894  26.808   2.842  0.00  0.00    +0.068 C 
ATOM     23  C   UNL     1     -34.707  24.781   1.539  0.00  0.00    -0.001 C 
ATOM     24  C   UNL     1     -34.533  26.160   1.660  0.00  0.00    +0.006 C 
BRANCH  21  25
ATOM     25  O   UNL     1     -35.781  26.710   5.059  0.00  0.00    -0.506 OA
ATOM     26  H   UNL     1     -35.497  26.369   5.885  0.00  0.00    +0.292 HD
ENDBRANCH  21  25
BRANCH  22  28
ATOM     27  O   UNL     1     -33.914  28.729   3.779  0.00  0.00    -0.291 OA
ATOM     28  C   UNL     1     -34.705  28.248   2.944  0.00  0.00    +0.176 C 
BRANCH  28  29
ATOM     29  C   UNL     1     -35.487  29.192   2.014  0.00  0.00    +0.069 C 
ATOM     30  C   UNL     1     -35.578  30.617   2.535  0.00  0.00    +0.009 C 
ENDBRANCH  28  29
ENDBRANCH  22  28
BRANCH  19  31
ATOM     31  C   UNL     1     -36.174  23.917   4.923  0.00  0.00    +0.029 C 
BRANCH  31  32
ATOM     32  C   UNL     1     -35.083  23.341   5.832  0.00  0.00    +0.005 C 
ATOM     33  C   UNL     1     -35.338  21.879   6.164  0.00  0.00    +0.000 C 
ENDBRANCH  31  32
ENDBRANCH  19  31
ENDBRANCH  18  20
ENDBRANCH   1  18
TORSDOF 12
ENDMDL
