MODEL 1
REMARK VINA RESULT:      -6.3      0.000      0.000
REMARK  Name = 189755
REMARK  9 active torsions:
REMARK  status: ('A' for Active; 'I' for Inactive)
REMARK    1  A    between atoms: O_1  and  C_7
REMARK    2  A    between atoms: O_1  and  C_16
REMARK    3  A    between atoms: C_3  and  O_8
REMARK    4  A    between atoms: C_4  and  O_10
REMARK    5  A    between atoms: C_5  and  C_12
REMARK    6  A    between atoms: C_12  and  O_13
REMARK    7  A    between atoms: C_16  and  C_17
REMARK    8  A    between atoms: C_18  and  O_23
REMARK    9  A    between atoms: O_23  and  C_25
REMARK                            x       y       z     vdW  Elec       q    Type
REMARK                         _______ _______ _______ _____ _____    ______ ____
ROOT
ATOM      1  O   UNL     1     -32.688  26.847   5.363  0.00  0.00    -0.421 OA
ENDROOT
BRANCH   1   7
ATOM      2  O   UNL     1     -33.935  24.866   5.332  0.00  0.00    -0.318 OA
ATOM      3  C   UNL     1     -36.079  24.689   4.190  0.00  0.00    +0.167 C 
ATOM      4  C   UNL     1     -36.150  26.214   4.090  0.00  0.00    +0.146 C 
ATOM      5  C   UNL     1     -35.229  24.258   5.393  0.00  0.00    +0.177 C 
ATOM      6  C   UNL     1     -34.754  26.821   4.173  0.00  0.00    +0.108 C 
ATOM      7  C   UNL     1     -33.999  26.291   5.385  0.00  0.00    +0.293 C 
BRANCH   3   8
ATOM      8  O   UNL     1     -37.397  24.159   4.305  0.00  0.00    -0.379 OA
ATOM      9  H   UNL     1     -37.965  24.800   4.758  0.00  0.00    +0.211 HD
ENDBRANCH   3   8
BRANCH   4  10
ATOM     10  O   UNL     1     -36.749  26.568   2.846  0.00  0.00    -0.382 OA
ATOM     11  H   UNL     1     -37.637  26.180   2.793  0.00  0.00    +0.210 HD
ENDBRANCH   4  10
BRANCH   5  12
ATOM     12  C   UNL     1     -35.028  22.747   5.426  0.00  0.00    +0.169 C 
BRANCH  12  13
ATOM     13  O   UNL     1     -36.089  22.168   6.165  0.00  0.00    -0.379 OA
ATOM     14  H   UNL     1     -36.565  22.863   6.646  0.00  0.00    +0.211 HD
ENDBRANCH  12  13
ENDBRANCH   5  12
ENDBRANCH   1   7
BRANCH   1  16
ATOM     15  O   UNL     1     -32.696  27.416   7.593  0.00  0.00    -0.245 OA
ATOM     16  C   UNL     1     -32.345  27.605   6.439  0.00  0.00    +0.346 C 
BRANCH  16  17
ATOM     17  C   UNL     1     -31.462  28.727   6.030  0.00  0.00    +0.110 C 
ATOM     18  C   UNL     1     -30.092  28.557   6.026  0.00  0.00    +0.155 C 
ATOM     19  C   UNL     1     -32.054  29.919   5.662  0.00  0.00    +0.010 C 
ATOM     20  C   UNL     1     -29.280  29.624   5.640  0.00  0.00    +0.038 C 
ATOM     21  C   UNL     1     -31.242  30.985   5.276  0.00  0.00    +0.000 C 
ATOM     22  C   UNL     1     -29.855  30.839   5.264  0.00  0.00    +0.003 C 
BRANCH  18  23
ATOM     23  O   UNL     1     -29.511  27.380   6.390  0.00  0.00    -0.424 OA
BRANCH  23  25
ATOM     24  O   UNL     1     -27.901  28.151   7.904  0.00  0.00    -0.250 OA
ATOM     25  C   UNL     1     -28.212  27.516   6.905  0.00  0.00    +0.322 C 
ATOM     26  C   UNL     1     -27.239  26.766   6.045  0.00  0.00    +0.122 C 
ENDBRANCH  23  25
ENDBRANCH  18  23
ENDBRANCH  16  17
ENDBRANCH   1  16
TORSDOF 9
ENDMDL
MODEL 2
REMARK VINA RESULT:      -6.2      2.224      7.060
REMARK  Name = 189755
REMARK  9 active torsions:
REMARK  status: ('A' for Active; 'I' for Inactive)
REMARK    1  A    between atoms: O_1  and  C_7
REMARK    2  A    between atoms: O_1  and  C_16
REMARK    3  A    between atoms: C_3  and  O_8
REMARK    4  A    between atoms: C_4  and  O_10
REMARK    5  A    between atoms: C_5  and  C_12
REMARK    6  A    between atoms: C_12  and  O_13
REMARK    7  A    between atoms: C_16  and  C_17
REMARK    8  A    between atoms: C_18  and  O_23
REMARK    9  A    between atoms: O_23  and  C_25
REMARK                            x       y       z     vdW  Elec       q    Type
REMARK                         _______ _______ _______ _____ _____    ______ ____
ROOT
ATOM      1  O   UNL     1     -34.007  25.734   6.067  0.00  0.00    -0.421 OA
ENDROOT
BRANCH   1   7
ATOM      2  O   UNL     1     -32.579  26.625   4.440  0.00  0.00    -0.318 OA
ATOM      3  C   UNL     1     -31.060  28.470   4.904  0.00  0.00    +0.167 C 
ATOM      4  C   UNL     1     -31.813  28.762   6.203  0.00  0.00    +0.146 C 
ATOM      5  C   UNL     1     -31.979  27.796   3.877  0.00  0.00    +0.177 C 
ATOM      6  C   UNL     1     -32.552  27.519   6.684  0.00  0.00    +0.108 C 
ATOM      7  C   UNL     1     -33.401  26.922   5.569  0.00  0.00    +0.293 C 
BRANCH   3   8
ATOM      8  O   UNL     1     -30.540  29.686   4.373  0.00  0.00    -0.379 OA
ATOM      9  H   UNL     1     -30.787  30.424   4.951  0.00  0.00    +0.211 HD
ENDBRANCH   3   8
BRANCH   4  10
ATOM     10  O   UNL     1     -30.878  29.174   7.197  0.00  0.00    -0.382 OA
ATOM     11  H   UNL     1     -31.027  30.107   7.414  0.00  0.00    +0.210 HD
ENDBRANCH   4  10
BRANCH   5  12
ATOM     12  C   UNL     1     -31.212  27.368   2.631  0.00  0.00    +0.169 C 
BRANCH  12  13
ATOM     13  O   UNL     1     -31.154  25.953   2.602  0.00  0.00    -0.379 OA
ATOM     14  H   UNL     1     -30.755  25.663   1.766  0.00  0.00    +0.211 HD
ENDBRANCH  12  13
ENDBRANCH   5  12
ENDBRANCH   1   7
BRANCH   1  16
ATOM     15  O   UNL     1     -36.203  26.263   5.625  0.00  0.00    -0.245 OA
ATOM     16  C   UNL     1     -35.268  25.478   5.625  0.00  0.00    +0.346 C 
BRANCH  16  17
ATOM     17  C   UNL     1     -35.374  24.084   5.124  0.00  0.00    +0.110 C 
ATOM     18  C   UNL     1     -35.747  23.850   3.815  0.00  0.00    +0.155 C 
ATOM     19  C   UNL     1     -35.093  23.055   6.000  0.00  0.00    +0.010 C 
ATOM     20  C   UNL     1     -35.842  22.534   3.364  0.00  0.00    +0.038 C 
ATOM     21  C   UNL     1     -35.188  21.738   5.550  0.00  0.00    +0.000 C 
ATOM     22  C   UNL     1     -35.562  21.477   4.232  0.00  0.00    +0.003 C 
BRANCH  18  23
ATOM     23  O   UNL     1     -36.024  24.868   2.952  0.00  0.00    -0.424 OA
BRANCH  23  25
ATOM     24  O   UNL     1     -33.885  24.759   2.008  0.00  0.00    -0.250 OA
ATOM     25  C   UNL     1     -34.897  25.386   2.295  0.00  0.00    +0.322 C 
ATOM     26  C   UNL     1     -35.105  26.839   1.990  0.00  0.00    +0.122 C 
ENDBRANCH  23  25
ENDBRANCH  18  23
ENDBRANCH  16  17
ENDBRANCH   1  16
TORSDOF 9
ENDMDL
MODEL 3
REMARK VINA RESULT:      -6.2      2.517      4.230
REMARK  Name = 189755
REMARK  9 active torsions:
REMARK  status: ('A' for Active; 'I' for Inactive)
REMARK    1  A    between atoms: O_1  and  C_7
REMARK    2  A    between atoms: O_1  and  C_16
REMARK    3  A    between atoms: C_3  and  O_8
REMARK    4  A    between atoms: C_4  and  O_10
REMARK    5  A    between atoms: C_5  and  C_12
REMARK    6  A    between atoms: C_12  and  O_13
REMARK    7  A    between atoms: C_16  and  C_17
REMARK    8  A    between atoms: C_18  and  O_23
REMARK    9  A    between atoms: O_23  and  C_25
REMARK                            x       y       z     vdW  Elec       q    Type
REMARK                         _______ _______ _______ _____ _____    ______ ____
ROOT
ATOM      1  O   UNL     1     -34.150  27.205   4.516  0.00  0.00    -0.421 OA
ENDROOT
BRANCH   1   7
ATOM      2  O   UNL     1     -36.045  26.056   3.759  0.00  0.00    -0.318 OA
ATOM      3  C   UNL     1     -36.497  23.741   4.362  0.00  0.00    +0.167 C 
ATOM      4  C   UNL     1     -35.058  23.591   4.859  0.00  0.00    +0.146 C 
ATOM      5  C   UNL     1     -36.593  24.824   3.280  0.00  0.00    +0.177 C 
ATOM      6  C   UNL     1     -34.472  24.950   5.221  0.00  0.00    +0.108 C 
ATOM      7  C   UNL     1     -34.659  25.947   4.085  0.00  0.00    +0.293 C 
BRANCH   3   8
ATOM      8  O   UNL     1     -36.955  22.493   3.850  0.00  0.00    -0.379 OA
ATOM      9  H   UNL     1     -37.637  22.132   4.437  0.00  0.00    +0.211 HD
ENDBRANCH   3   8
BRANCH   4  10
ATOM     10  O   UNL     1     -35.051  22.748   6.008  0.00  0.00    -0.382 OA
ATOM     11  H   UNL     1     -34.791  21.850   5.749  0.00  0.00    +0.210 HD
ENDBRANCH   4  10
BRANCH   5  12
ATOM     12  C   UNL     1     -38.039  25.089   2.876  0.00  0.00    +0.169 C 
BRANCH  12  13
ATOM     13  O   UNL     1     -38.874  24.823   3.989  0.00  0.00    -0.379 OA
ATOM     14  H   UNL     1     -39.789  25.058   3.770  0.00  0.00    +0.211 HD
ENDBRANCH  12  13
ENDBRANCH   5  12
ENDBRANCH   1   7
BRANCH   1  16
ATOM     15  O   UNL     1     -32.161  26.826   3.422  0.00  0.00    -0.245 OA
ATOM     16  C   UNL     1     -32.850  27.459   4.207  0.00  0.00    +0.346 C 
BRANCH  16  17
ATOM     17  C   UNL     1     -32.352  28.635   4.963  0.00  0.00    +0.110 C 
ATOM     18  C   UNL     1     -32.371  29.887   4.378  0.00  0.00    +0.155 C 
ATOM     19  C   UNL     1     -31.879  28.433   6.244  0.00  0.00    +0.010 C 
ATOM     20  C   UNL     1     -31.897  30.979   5.105  0.00  0.00    +0.038 C 
ATOM     21  C   UNL     1     -31.405  29.525   6.971  0.00  0.00    +0.000 C 
ATOM     22  C   UNL     1     -31.414  30.799   6.402  0.00  0.00    +0.003 C 
BRANCH  18  23
ATOM     23  O   UNL     1     -32.838  30.084   3.113  0.00  0.00    -0.424 OA
BRANCH  23  25
ATOM     24  O   UNL     1     -35.077  30.565   3.600  0.00  0.00    -0.250 OA
ATOM     25  C   UNL     1     -34.018  30.841   3.050  0.00  0.00    +0.322 C 
ATOM     26  C   UNL     1     -33.801  32.055   2.197  0.00  0.00    +0.122 C 
ENDBRANCH  23  25
ENDBRANCH  18  23
ENDBRANCH  16  17
ENDBRANCH   1  16
TORSDOF 9
ENDMDL
MODEL 4
REMARK VINA RESULT:      -6.1      1.523      3.056
REMARK  Name = 189755
REMARK  9 active torsions:
REMARK  status: ('A' for Active; 'I' for Inactive)
REMARK    1  A    between atoms: O_1  and  C_7
REMARK    2  A    between atoms: O_1  and  C_16
REMARK    3  A    between atoms: C_3  and  O_8
REMARK    4  A    between atoms: C_4  and  O_10
REMARK    5  A    between atoms: C_5  and  C_12
REMARK    6  A    between atoms: C_12  and  O_13
REMARK    7  A    between atoms: C_16  and  C_17
REMARK    8  A    between atoms: C_18  and  O_23
REMARK    9  A    between atoms: O_23  and  C_25
REMARK                            x       y       z     vdW  Elec       q    Type
REMARK                         _______ _______ _______ _____ _____    ______ ____
ROOT
ATOM      1  O   UNL     1     -32.798  26.923   5.204  0.00  0.00    -0.421 OA
ENDROOT
BRANCH   1   7
ATOM      2  O   UNL     1     -33.976  24.899   5.228  0.00  0.00    -0.318 OA
ATOM      3  C   UNL     1     -36.136  24.631   4.136  0.00  0.00    +0.167 C 
ATOM      4  C   UNL     1     -36.262  26.151   4.016  0.00  0.00    +0.146 C 
ATOM      5  C   UNL     1     -35.247  24.247   5.325  0.00  0.00    +0.177 C 
ATOM      6  C   UNL     1     -34.887  26.808   4.060  0.00  0.00    +0.108 C 
ATOM      7  C   UNL     1     -34.088  26.321   5.263  0.00  0.00    +0.293 C 
BRANCH   3   8
ATOM      8  O   UNL     1     -37.431  24.058   4.286  0.00  0.00    -0.379 OA
ATOM      9  H   UNL     1     -37.745  23.735   3.427  0.00  0.00    +0.211 HD
ENDBRANCH   3   8
BRANCH   4  10
ATOM     10  O   UNL     1     -36.900  26.466   2.781  0.00  0.00    -0.382 OA
ATOM     11  H   UNL     1     -37.276  27.359   2.830  0.00  0.00    +0.210 HD
ENDBRANCH   4  10
BRANCH   5  12
ATOM     12  C   UNL     1     -34.992  22.745   5.375  0.00  0.00    +0.169 C 
BRANCH  12  13
ATOM     13  O   UNL     1     -36.047  22.133   6.096  0.00  0.00    -0.379 OA
ATOM     14  H   UNL     1     -36.870  22.202   5.586  0.00  0.00    +0.211 HD
ENDBRANCH  12  13
ENDBRANCH   5  12
ENDBRANCH   1   7
BRANCH   1  16
ATOM     15  O   UNL     1     -32.848  27.464   7.441  0.00  0.00    -0.245 OA
ATOM     16  C   UNL     1     -32.415  27.616   6.309  0.00  0.00    +0.346 C 
BRANCH  16  17
ATOM     17  C   UNL     1     -31.370  28.614   5.965  0.00  0.00    +0.110 C 
ATOM     18  C   UNL     1     -31.718  29.769   5.292  0.00  0.00    +0.155 C 
ATOM     19  C   UNL     1     -30.067  28.347   6.335  0.00  0.00    +0.010 C 
ATOM     20  C   UNL     1     -30.722  30.693   4.977  0.00  0.00    +0.038 C 
ATOM     21  C   UNL     1     -29.072  29.271   6.020  0.00  0.00    +0.000 C 
ATOM     22  C   UNL     1     -29.398  30.444   5.340  0.00  0.00    +0.003 C 
BRANCH  18  23
ATOM     23  O   UNL     1     -33.005  30.030   4.927  0.00  0.00    -0.424 OA
BRANCH  23  25
ATOM     24  O   UNL     1     -32.832  29.239   2.731  0.00  0.00    -0.250 OA
ATOM     25  C   UNL     1     -33.209  30.077   3.539  0.00  0.00    +0.322 C 
ATOM     26  C   UNL     1     -33.965  31.320   3.175  0.00  0.00    +0.122 C 
ENDBRANCH  23  25
ENDBRANCH  18  23
ENDBRANCH  16  17
ENDBRANCH   1  16
TORSDOF 9
ENDMDL
MODEL 5
REMARK VINA RESULT:      -6.0      4.369      7.329
REMARK  Name = 189755
REMARK  9 active torsions:
REMARK  status: ('A' for Active; 'I' for Inactive)
REMARK    1  A    between atoms: O_1  and  C_7
REMARK    2  A    between atoms: O_1  and  C_16
REMARK    3  A    between atoms: C_3  and  O_8
REMARK    4  A    between atoms: C_4  and  O_10
REMARK    5  A    between atoms: C_5  and  C_12
REMARK    6  A    between atoms: C_12  and  O_13
REMARK    7  A    between atoms: C_16  and  C_17
REMARK    8  A    between atoms: C_18  and  O_23
REMARK    9  A    between atoms: O_23  and  C_25
REMARK                            x       y       z     vdW  Elec       q    Type
REMARK                         _______ _______ _______ _____ _____    ______ ____
ROOT
ATOM      1  O   UNL     1     -36.438  21.803   1.682  0.00  0.00    -0.421 OA
ENDROOT
BRANCH   1   7
ATOM      2  O   UNL     1     -38.085  23.400   2.152  0.00  0.00    -0.318 OA
ATOM      3  C   UNL     1     -40.407  23.118   1.477  0.00  0.00    +0.167 C 
ATOM      4  C   UNL     1     -39.995  21.986   0.535  0.00  0.00    +0.146 C 
ATOM      5  C   UNL     1     -39.248  24.098   1.696  0.00  0.00    +0.177 C 
ATOM      6  C   UNL     1     -38.676  21.369   0.985  0.00  0.00    +0.108 C 
ATOM      7  C   UNL     1     -37.617  22.442   1.203  0.00  0.00    +0.293 C 
BRANCH   3   8
ATOM      8  O   UNL     1     -41.533  23.802   0.933  0.00  0.00    -0.379 OA
ATOM      9  H   UNL     1     -41.956  23.247   0.261  0.00  0.00    +0.211 HD
ENDBRANCH   3   8
BRANCH   4  10
ATOM     10  O   UNL     1     -41.013  20.987   0.539  0.00  0.00    -0.382 OA
ATOM     11  H   UNL     1     -41.691  21.219   1.193  0.00  0.00    +0.210 HD
ENDBRANCH   4  10
BRANCH   5  12
ATOM     12  C   UNL     1     -39.592  25.152   2.743  0.00  0.00    +0.169 C 
BRANCH  12  13
ATOM     13  O   UNL     1     -38.854  24.877   3.920  0.00  0.00    -0.379 OA
ATOM     14  H   UNL     1     -39.403  25.067   4.697  0.00  0.00    +0.211 HD
ENDBRANCH  12  13
ENDBRANCH   5  12
ENDBRANCH   1   7
BRANCH   1  16
ATOM     15  O   UNL     1     -34.717  23.316   1.461  0.00  0.00    -0.245 OA
ATOM     16  C   UNL     1     -35.460  22.628   2.144  0.00  0.00    +0.346 C 
BRANCH  16  17
ATOM     17  C   UNL     1     -35.402  22.592   3.627  0.00  0.00    +0.110 C 
ATOM     18  C   UNL     1     -35.562  23.758   4.350  0.00  0.00    +0.155 C 
ATOM     19  C   UNL     1     -35.186  21.375   4.241  0.00  0.00    +0.010 C 
ATOM     20  C   UNL     1     -35.503  23.703   5.743  0.00  0.00    +0.038 C 
ATOM     21  C   UNL     1     -35.127  21.320   5.633  0.00  0.00    +0.000 C 
ATOM     22  C   UNL     1     -35.285  22.484   6.385  0.00  0.00    +0.003 C 
BRANCH  18  23
ATOM     23  O   UNL     1     -35.775  24.959   3.742  0.00  0.00    -0.424 OA
BRANCH  23  25
ATOM     24  O   UNL     1     -35.206  26.899   4.922  0.00  0.00    -0.250 OA
ATOM     25  C   UNL     1     -34.911  25.979   4.170  0.00  0.00    +0.322 C 
ATOM     26  C   UNL     1     -33.552  25.787   3.565  0.00  0.00    +0.122 C 
ENDBRANCH  23  25
ENDBRANCH  18  23
ENDBRANCH  16  17
ENDBRANCH   1  16
TORSDOF 9
ENDMDL
MODEL 6
REMARK VINA RESULT:      -6.0      2.381      2.962
REMARK  Name = 189755
REMARK  9 active torsions:
REMARK  status: ('A' for Active; 'I' for Inactive)
REMARK    1  A    between atoms: O_1  and  C_7
REMARK    2  A    between atoms: O_1  and  C_16
REMARK    3  A    between atoms: C_3  and  O_8
REMARK    4  A    between atoms: C_4  and  O_10
REMARK    5  A    between atoms: C_5  and  C_12
REMARK    6  A    between atoms: C_12  and  O_13
REMARK    7  A    between atoms: C_16  and  C_17
REMARK    8  A    between atoms: C_18  and  O_23
REMARK    9  A    between atoms: O_23  and  C_25
REMARK                            x       y       z     vdW  Elec       q    Type
REMARK                         _______ _______ _______ _____ _____    ______ ____
ROOT
ATOM      1  O   UNL     1     -33.217  26.015   4.681  0.00  0.00    -0.421 OA
ENDROOT
BRANCH   1   7
ATOM      2  O   UNL     1     -34.374  24.104   5.382  0.00  0.00    -0.318 OA
ATOM      3  C   UNL     1     -35.670  22.725   3.849  0.00  0.00    +0.167 C 
ATOM      4  C   UNL     1     -35.610  23.837   2.800  0.00  0.00    +0.146 C 
ATOM      5  C   UNL     1     -35.554  23.301   5.266  0.00  0.00    +0.177 C 
ATOM      6  C   UNL     1     -34.415  24.748   3.054  0.00  0.00    +0.108 C 
ATOM      7  C   UNL     1     -34.389  25.226   4.501  0.00  0.00    +0.293 C 
BRANCH   3   8
ATOM      8  O   UNL     1     -36.892  22.006   3.710  0.00  0.00    -0.379 OA
ATOM      9  H   UNL     1     -36.852  21.449   2.918  0.00  0.00    +0.211 HD
ENDBRANCH   3   8
BRANCH   4  10
ATOM     10  O   UNL     1     -35.493  23.248   1.508  0.00  0.00    -0.382 OA
ATOM     11  H   UNL     1     -34.602  23.409   1.159  0.00  0.00    +0.210 HD
ENDBRANCH   4  10
BRANCH   5  12
ATOM     12  C   UNL     1     -35.467  22.199   6.316  0.00  0.00    +0.169 C 
BRANCH  12  13
ATOM     13  O   UNL     1     -35.198  20.973   5.661  0.00  0.00    -0.379 OA
ATOM     14  H   UNL     1     -35.251  21.101   4.700  0.00  0.00    +0.211 HD
ENDBRANCH  12  13
ENDBRANCH   5  12
ENDBRANCH   1   7
BRANCH   1  16
ATOM     15  O   UNL     1     -34.344  27.903   4.000  0.00  0.00    -0.245 OA
ATOM     16  C   UNL     1     -33.360  27.350   4.467  0.00  0.00    +0.346 C 
BRANCH  16  17
ATOM     17  C   UNL     1     -32.137  28.081   4.884  0.00  0.00    +0.110 C 
ATOM     18  C   UNL     1     -31.175  28.404   3.947  0.00  0.00    +0.155 C 
ATOM     19  C   UNL     1     -32.002  28.417   6.216  0.00  0.00    +0.010 C 
ATOM     20  C   UNL     1     -30.033  29.090   4.359  0.00  0.00    +0.038 C 
ATOM     21  C   UNL     1     -30.860  29.104   6.629  0.00  0.00    +0.000 C 
ATOM     22  C   UNL     1     -29.875  29.440   5.701  0.00  0.00    +0.003 C 
BRANCH  18  23
ATOM     23  O   UNL     1     -31.311  28.070   2.632  0.00  0.00    -0.424 OA
BRANCH  23  25
ATOM     24  O   UNL     1     -30.320  25.951   2.714  0.00  0.00    -0.250 OA
ATOM     25  C   UNL     1     -30.437  27.058   2.205  0.00  0.00    +0.322 C 
ATOM     26  C   UNL     1     -29.650  27.529   1.019  0.00  0.00    +0.122 C 
ENDBRANCH  23  25
ENDBRANCH  18  23
ENDBRANCH  16  17
ENDBRANCH   1  16
TORSDOF 9
ENDMDL
MODEL 7
REMARK VINA RESULT:      -5.9      2.314      3.866
REMARK  Name = 189755
REMARK  9 active torsions:
REMARK  status: ('A' for Active; 'I' for Inactive)
REMARK    1  A    between atoms: O_1  and  C_7
REMARK    2  A    between atoms: O_1  and  C_16
REMARK    3  A    between atoms: C_3  and  O_8
REMARK    4  A    between atoms: C_4  and  O_10
REMARK    5  A    between atoms: C_5  and  C_12
REMARK    6  A    between atoms: C_12  and  O_13
REMARK    7  A    between atoms: C_16  and  C_17
REMARK    8  A    between atoms: C_18  and  O_23
REMARK    9  A    between atoms: O_23  and  C_25
REMARK                            x       y       z     vdW  Elec       q    Type
REMARK                         _______ _______ _______ _____ _____    ______ ____
ROOT
ATOM      1  O   UNL     1     -34.152  25.976   4.343  0.00  0.00    -0.421 OA
ENDROOT
BRANCH   1   7
ATOM      2  O   UNL     1     -35.037  24.281   2.991  0.00  0.00    -0.318 OA
ATOM      3  C   UNL     1     -35.907  22.200   3.906  0.00  0.00    +0.167 C 
ATOM      4  C   UNL     1     -35.236  22.509   5.245  0.00  0.00    +0.146 C 
ATOM      5  C   UNL     1     -35.160  22.876   2.750  0.00  0.00    +0.177 C 
ATOM      6  C   UNL     1     -34.998  24.008   5.391  0.00  0.00    +0.108 C 
ATOM      7  C   UNL     1     -34.282  24.569   4.168  0.00  0.00    +0.293 C 
BRANCH   3   8
ATOM      8  O   UNL     1     -35.943  20.789   3.709  0.00  0.00    -0.379 OA
ATOM      9  H   UNL     1     -36.643  20.403   4.257  0.00  0.00    +0.211 HD
ENDBRANCH   3   8
BRANCH   4  10
ATOM     10  O   UNL     1     -36.080  22.058   6.301  0.00  0.00    -0.382 OA
ATOM     11  H   UNL     1     -36.922  21.748   5.932  0.00  0.00    +0.210 HD
ENDBRANCH   4  10
BRANCH   5  12
ATOM     12  C   UNL     1     -35.894  22.698   1.425  0.00  0.00    +0.169 C 
BRANCH  12  13
ATOM     13  O   UNL     1     -37.261  22.447   1.698  0.00  0.00    -0.379 OA
ATOM     14  H   UNL     1     -37.696  22.121   0.894  0.00  0.00    +0.211 HD
ENDBRANCH  12  13
ENDBRANCH   5  12
ENDBRANCH   1   7
BRANCH   1  16
ATOM     15  O   UNL     1     -32.280  26.053   3.006  0.00  0.00    -0.245 OA
ATOM     16  C   UNL     1     -33.229  26.591   3.557  0.00  0.00    +0.346 C 
BRANCH  16  17
ATOM     17  C   UNL     1     -33.521  28.042   3.442  0.00  0.00    +0.110 C 
ATOM     18  C   UNL     1     -32.695  28.961   4.058  0.00  0.00    +0.155 C 
ATOM     19  C   UNL     1     -34.628  28.427   2.712  0.00  0.00    +0.010 C 
ATOM     20  C   UNL     1     -32.988  30.320   3.939  0.00  0.00    +0.038 C 
ATOM     21  C   UNL     1     -34.921  29.786   2.593  0.00  0.00    +0.000 C 
ATOM     22  C   UNL     1     -34.101  30.732   3.206  0.00  0.00    +0.003 C 
BRANCH  18  23
ATOM     23  O   UNL     1     -31.603  28.578   4.779  0.00  0.00    -0.424 OA
BRANCH  23  25
ATOM     24  O   UNL     1     -32.594  27.841   6.767  0.00  0.00    -0.250 OA
ATOM     25  C   UNL     1     -31.809  28.564   6.167  0.00  0.00    +0.322 C 
ATOM     26  C   UNL     1     -30.922  29.577   6.827  0.00  0.00    +0.122 C 
ENDBRANCH  23  25
ENDBRANCH  18  23
ENDBRANCH  16  17
ENDBRANCH   1  16
TORSDOF 9
ENDMDL
MODEL 8
REMARK VINA RESULT:      -5.9      4.841      7.799
REMARK  Name = 189755
REMARK  9 active torsions:
REMARK  status: ('A' for Active; 'I' for Inactive)
REMARK    1  A    between atoms: O_1  and  C_7
REMARK    2  A    between atoms: O_1  and  C_16
REMARK    3  A    between atoms: C_3  and  O_8
REMARK    4  A    between atoms: C_4  and  O_10
REMARK    5  A    between atoms: C_5  and  C_12
REMARK    6  A    between atoms: C_12  and  O_13
REMARK    7  A    between atoms: C_16  and  C_17
REMARK    8  A    between atoms: C_18  and  O_23
REMARK    9  A    between atoms: O_23  and  C_25
REMARK                            x       y       z     vdW  Elec       q    Type
REMARK                         _______ _______ _______ _____ _____    ______ ____
ROOT
ATOM      1  O   UNL     1     -35.518  21.452   3.806  0.00  0.00    -0.421 OA
ENDROOT
BRANCH   1   7
ATOM      2  O   UNL     1     -36.616  23.483   3.416  0.00  0.00    -0.318 OA
ATOM      3  C   UNL     1     -36.020  25.535   4.583  0.00  0.00    +0.167 C 
ATOM      4  C   UNL     1     -35.216  24.723   5.600  0.00  0.00    +0.146 C 
ATOM      5  C   UNL     1     -37.145  24.690   3.973  0.00  0.00    +0.177 C 
ATOM      6  C   UNL     1     -34.797  23.384   5.003  0.00  0.00    +0.108 C 
ATOM      7  C   UNL     1     -35.992  22.657   4.399  0.00  0.00    +0.293 C 
BRANCH   3   8
ATOM      8  O   UNL     1     -36.562  26.689   5.220  0.00  0.00    -0.379 OA
ATOM      9  H   UNL     1     -35.864  27.351   5.340  0.00  0.00    +0.211 HD
ENDBRANCH   3   8
BRANCH   4  10
ATOM     10  O   UNL     1     -34.055  25.462   5.969  0.00  0.00    -0.382 OA
ATOM     11  H   UNL     1     -34.238  26.412   5.892  0.00  0.00    +0.210 HD
ENDBRANCH   4  10
BRANCH   5  12
ATOM     12  C   UNL     1     -37.866  25.436   2.855  0.00  0.00    +0.169 C 
BRANCH  12  13
ATOM     13  O   UNL     1     -38.755  26.372   3.439  0.00  0.00    -0.379 OA
ATOM     14  H   UNL     1     -39.670  26.082   3.295  0.00  0.00    +0.211 HD
ENDBRANCH  12  13
ENDBRANCH   5  12
ENDBRANCH   1   7
BRANCH   1  16
ATOM     15  O   UNL     1     -37.128  21.147   2.190  0.00  0.00    -0.245 OA
ATOM     16  C   UNL     1     -35.961  21.194   2.547  0.00  0.00    +0.346 C 
BRANCH  16  17
ATOM     17  C   UNL     1     -34.819  20.969   1.625  0.00  0.00    +0.110 C 
ATOM     18  C   UNL     1     -34.494  21.929   0.686  0.00  0.00    +0.155 C 
ATOM     19  C   UNL     1     -34.111  19.790   1.742  0.00  0.00    +0.010 C 
ATOM     20  C   UNL     1     -33.418  21.698  -0.171  0.00  0.00    +0.038 C 
ATOM     21  C   UNL     1     -33.035  19.559   0.885  0.00  0.00    +0.000 C 
ATOM     22  C   UNL     1     -32.688  20.513  -0.072  0.00  0.00    +0.003 C 
BRANCH  18  23
ATOM     23  O   UNL     1     -35.195  23.092   0.573  0.00  0.00    -0.424 OA
BRANCH  23  25
ATOM     24  O   UNL     1     -33.856  24.494   1.885  0.00  0.00    -0.250 OA
ATOM     25  C   UNL     1     -34.439  24.244   0.837  0.00  0.00    +0.322 C 
ATOM     26  C   UNL     1     -34.445  25.147  -0.360  0.00  0.00    +0.122 C 
ENDBRANCH  23  25
ENDBRANCH  18  23
ENDBRANCH  16  17
ENDBRANCH   1  16
TORSDOF 9
ENDMDL
MODEL 9
REMARK VINA RESULT:      -5.8      5.413      9.050
REMARK  Name = 189755
REMARK  9 active torsions:
REMARK  status: ('A' for Active; 'I' for Inactive)
REMARK    1  A    between atoms: O_1  and  C_7
REMARK    2  A    between atoms: O_1  and  C_16
REMARK    3  A    between atoms: C_3  and  O_8
REMARK    4  A    between atoms: C_4  and  O_10
REMARK    5  A    between atoms: C_5  and  C_12
REMARK    6  A    between atoms: C_12  and  O_13
REMARK    7  A    between atoms: C_16  and  C_17
REMARK    8  A    between atoms: C_18  and  O_23
REMARK    9  A    between atoms: O_23  and  C_25
REMARK                            x       y       z     vdW  Elec       q    Type
REMARK                         _______ _______ _______ _____ _____    ______ ____
ROOT
ATOM      1  O   UNL     1     -33.960  22.938   1.001  0.00  0.00    -0.421 OA
ENDROOT
BRANCH   1   7
ATOM      2  O   UNL     1     -35.023  24.801   1.940  0.00  0.00    -0.318 OA
ATOM      3  C   UNL     1     -36.396  24.649   3.945  0.00  0.00    +0.167 C 
ATOM      4  C   UNL     1     -36.436  23.126   3.801  0.00  0.00    +0.146 C 
ATOM      5  C   UNL     1     -36.190  25.323   2.583  0.00  0.00    +0.177 C 
ATOM      6  C   UNL     1     -35.245  22.635   2.986  0.00  0.00    +0.108 C 
ATOM      7  C   UNL     1     -35.125  23.402   1.675  0.00  0.00    +0.293 C 
BRANCH   3   8
ATOM      8  O   UNL     1     -37.610  25.101   4.538  0.00  0.00    -0.379 OA
ATOM      9  H   UNL     1     -38.043  25.736   3.947  0.00  0.00    +0.211 HD
ENDBRANCH   3   8
BRANCH   4  10
ATOM     10  O   UNL     1     -36.400  22.537   5.098  0.00  0.00    -0.382 OA
ATOM     11  H   UNL     1     -36.583  23.216   5.767  0.00  0.00    +0.210 HD
ENDBRANCH   4  10
BRANCH   5  12
ATOM     12  C   UNL     1     -36.005  26.830   2.723  0.00  0.00    +0.169 C 
BRANCH  12  13
ATOM     13  O   UNL     1     -35.720  27.124   4.079  0.00  0.00    -0.379 OA
ATOM     14  H   UNL     1     -34.850  26.761   4.313  0.00  0.00    +0.211 HD
ENDBRANCH  12  13
ENDBRANCH   5  12
ENDBRANCH   1   7
BRANCH   1  16
ATOM     15  O   UNL     1     -34.870  22.106  -0.943  0.00  0.00    -0.245 OA
ATOM     16  C   UNL     1     -34.163  21.991   0.046  0.00  0.00    +0.346 C 
BRANCH  16  17
ATOM     17  C   UNL     1     -33.396  20.759   0.359  0.00  0.00    +0.110 C 
ATOM     18  C   UNL     1     -33.996  19.737   1.069  0.00  0.00    +0.155 C 
ATOM     19  C   UNL     1     -32.089  20.678  -0.076  0.00  0.00    +0.010 C 
ATOM     20  C   UNL     1     -33.259  18.588   1.354  0.00  0.00    +0.038 C 
ATOM     21  C   UNL     1     -31.351  19.529   0.209  0.00  0.00    +0.000 C 
ATOM     22  C   UNL     1     -31.935  18.484   0.924  0.00  0.00    +0.003 C 
BRANCH  18  23
ATOM     23  O   UNL     1     -35.287  19.820   1.498  0.00  0.00    -0.424 OA
BRANCH  23  25
ATOM     24  O   UNL     1     -36.104  18.298  -0.081  0.00  0.00    -0.250 OA
ATOM     25  C   UNL     1     -36.228  19.317   0.586  0.00  0.00    +0.322 C 
ATOM     26  C   UNL     1     -37.426  20.217   0.537  0.00  0.00    +0.122 C 
ENDBRANCH  23  25
ENDBRANCH  18  23
ENDBRANCH  16  17
ENDBRANCH   1  16
TORSDOF 9
ENDMDL
