MODEL 1
REMARK VINA RESULT:      -6.6      0.000      0.000
REMARK  Name = 5362422
REMARK  13 active torsions:
REMARK  status: ('A' for Active; 'I' for Inactive)
REMARK    1  A    between atoms: C_1  and  C_4
REMARK    2  A    between atoms: C_1  and  C_19
REMARK    3  A    between atoms: C_1  and  C_23
REMARK    4  A    between atoms: N_3  and  C_6
REMARK    5  A    between atoms: C_6  and  C_9
REMARK    6  A    between atoms: C_6  and  C_12
REMARK    7  A    between atoms: C_12  and  C_13
REMARK    8  A    between atoms: C_19  and  C_20
REMARK    9  A    between atoms: C_23  and  C_26
REMARK   10  A    between atoms: C_23  and  C_30
REMARK   11  A    between atoms: N_25  and  O_28
REMARK   12  A    between atoms: C_30  and  S_31
REMARK   13  A    between atoms: S_31  and  C_33
REMARK                            x       y       z     vdW  Elec       q    Type
REMARK                         _______ _______ _______ _____ _____    ______ ____
ROOT
ATOM      1  C   UNL     1     -35.419  23.679   2.804  0.00  0.00    +0.086 C 
ENDROOT
BRANCH   1   4
ATOM      2  O   UNL     1     -34.398  23.188   0.677  0.00  0.00    -0.275 OA
ATOM      3  N   UNL     1     -35.237  21.404   1.884  0.00  0.00    -0.298 N 
ATOM      4  C   UNL     1     -34.952  22.742   1.683  0.00  0.00    +0.223 C 
ATOM      5  H   UNL     1     -35.683  21.131   2.718  0.00  0.00    +0.150 HD
BRANCH   3   6
ATOM      6  C   UNL     1     -34.900  20.395   0.908  0.00  0.00    +0.153 C 
BRANCH   6   9
ATOM      7  O   UNL     1     -37.165  20.513   0.052  0.00  0.00    -0.273 OA
ATOM      8  N   UNL     1     -36.167  18.430   0.300  0.00  0.00    -0.301 N 
ATOM      9  C   UNL     1     -36.211  19.815   0.389  0.00  0.00    +0.241 C 
ATOM     10  C   UNL     1     -37.260  17.632  -0.209  0.00  0.00    +0.111 C 
ATOM     11  H   UNL     1     -35.351  17.968   0.599  0.00  0.00    +0.150 HD
ENDBRANCH   6   9
BRANCH   6  12
ATOM     12  C   UNL     1     -34.025  19.285   1.502  0.00  0.00    +0.055 C 
BRANCH  12  13
ATOM     13  C   UNL     1     -32.640  19.250   0.901  0.00  0.00    -0.020 C 
ATOM     14  C   UNL     1     -32.193  20.314   0.117  0.00  0.00    -0.004 C 
ATOM     15  C   UNL     1     -31.807  18.156   1.133  0.00  0.00    -0.004 C 
ATOM     16  C   UNL     1     -30.914  20.281  -0.438  0.00  0.00    -0.000 C 
ATOM     17  C   UNL     1     -30.528  18.124   0.578  0.00  0.00    -0.000 C 
ATOM     18  C   UNL     1     -30.080  19.187  -0.207  0.00  0.00    -0.000 C 
ENDBRANCH  12  13
ENDBRANCH   6  12
ENDBRANCH   3   6
ENDBRANCH   1   4
BRANCH   1  19
ATOM     19  C   UNL     1     -35.838  22.880   4.058  0.00  0.00    +0.010 C 
BRANCH  19  20
ATOM     20  C   UNL     1     -35.009  23.145   5.331  0.00  0.00    +0.000 C 
ATOM     21  C   UNL     1     -35.289  24.563   5.840  0.00  0.00    +0.000 C 
ATOM     22  C   UNL     1     -35.300  22.138   6.446  0.00  0.00    +0.000 C 
ENDBRANCH  19  20
ENDBRANCH   1  19
BRANCH   1  23
ATOM     23  C   UNL     1     -36.444  24.712   2.238  0.00  0.00    +0.098 C 
BRANCH  23  26
ATOM     24  O   UNL     1     -38.463  23.354   2.152  0.00  0.00    -0.273 OA
ATOM     25  N   UNL     1     -38.370  25.101   3.654  0.00  0.00    -0.197 N 
ATOM     26  C   UNL     1     -37.863  24.300   2.659  0.00  0.00    +0.245 C 
ATOM     27  H   UNL     1     -37.857  25.850   4.034  0.00  0.00    +0.182 HD
BRANCH  25  28
ATOM     28  O   UNL     1     -39.663  24.787   4.095  0.00  0.00    -0.295 OA
ATOM     29  H   UNL     1     -39.645  24.603   5.047  0.00  0.00    +0.241 HD
ENDBRANCH  25  28
ENDBRANCH  23  26
BRANCH  23  30
ATOM     30  C   UNL     1     -36.140  26.177   2.596  0.00  0.00    +0.072 C 
BRANCH  30  31
ATOM     31  S   UNL     1     -34.834  26.887   1.535  0.00  0.00    -0.107 S 
BRANCH  31  33
ATOM     32  S   UNL     1     -33.197  29.204   2.629  0.00  0.00    -0.080 S 
ATOM     33  C   UNL     1     -33.810  27.611   2.776  0.00  0.00    +0.055 C 
ATOM     34  C   UNL     1     -33.404  27.007   3.945  0.00  0.00    +0.013 C 
ATOM     35  C   UNL     1     -32.580  27.862   4.732  0.00  0.00    +0.008 C 
ATOM     36  C   UNL     1     -32.386  29.088   4.133  0.00  0.00    +0.036 C 
ENDBRANCH  31  33
ENDBRANCH  30  31
ENDBRANCH  23  30
ENDBRANCH   1  23
TORSDOF 13
ENDMDL
MODEL 2
REMARK VINA RESULT:      -6.5      1.322      1.869
REMARK  Name = 5362422
REMARK  13 active torsions:
REMARK  status: ('A' for Active; 'I' for Inactive)
REMARK    1  A    between atoms: C_1  and  C_4
REMARK    2  A    between atoms: C_1  and  C_19
REMARK    3  A    between atoms: C_1  and  C_23
REMARK    4  A    between atoms: N_3  and  C_6
REMARK    5  A    between atoms: C_6  and  C_9
REMARK    6  A    between atoms: C_6  and  C_12
REMARK    7  A    between atoms: C_12  and  C_13
REMARK    8  A    between atoms: C_19  and  C_20
REMARK    9  A    between atoms: C_23  and  C_26
REMARK   10  A    between atoms: C_23  and  C_30
REMARK   11  A    between atoms: N_25  and  O_28
REMARK   12  A    between atoms: C_30  and  S_31
REMARK   13  A    between atoms: S_31  and  C_33
REMARK                            x       y       z     vdW  Elec       q    Type
REMARK                         _______ _______ _______ _____ _____    ______ ____
ROOT
ATOM      1  C   UNL     1     -35.638  23.771   3.021  0.00  0.00    +0.086 C 
ENDROOT
BRANCH   1   4
ATOM      2  O   UNL     1     -34.280  23.303   1.085  0.00  0.00    -0.275 OA
ATOM      3  N   UNL     1     -35.588  21.580   1.900  0.00  0.00    -0.298 N 
ATOM      4  C   UNL     1     -35.085  22.868   1.910  0.00  0.00    +0.223 C 
ATOM      5  H   UNL     1     -36.230  21.313   2.597  0.00  0.00    +0.150 HD
BRANCH   3   6
ATOM      6  C   UNL     1     -35.201  20.615   0.899  0.00  0.00    +0.153 C 
BRANCH   6   9
ATOM      7  O   UNL     1     -36.518  19.118  -0.479  0.00  0.00    -0.273 OA
ATOM      8  N   UNL     1     -37.577  20.898   0.572  0.00  0.00    -0.301 N 
ATOM      9  C   UNL     1     -36.480  20.119   0.233  0.00  0.00    +0.241 C 
ATOM     10  C   UNL     1     -38.921  20.618   0.115  0.00  0.00    +0.111 C 
ATOM     11  H   UNL     1     -37.434  21.681   1.150  0.00  0.00    +0.150 HD
ENDBRANCH   6   9
BRANCH   6  12
ATOM     12  C   UNL     1     -34.421  19.439   1.498  0.00  0.00    +0.055 C 
BRANCH  12  13
ATOM     13  C   UNL     1     -33.013  19.341   0.965  0.00  0.00    -0.020 C 
ATOM     14  C   UNL     1     -32.245  18.206   1.227  0.00  0.00    -0.004 C 
ATOM     15  C   UNL     1     -32.478  20.385   0.209  0.00  0.00    -0.004 C 
ATOM     16  C   UNL     1     -30.943  18.115   0.735  0.00  0.00    -0.000 C 
ATOM     17  C   UNL     1     -31.177  20.293  -0.283  0.00  0.00    -0.000 C 
ATOM     18  C   UNL     1     -30.409  19.159  -0.021  0.00  0.00    -0.000 C 
ENDBRANCH  12  13
ENDBRANCH   6  12
ENDBRANCH   3   6
ENDBRANCH   1   4
BRANCH   1  19
ATOM     19  C   UNL     1     -36.129  22.935   4.224  0.00  0.00    +0.010 C 
BRANCH  19  20
ATOM     20  C   UNL     1     -35.595  23.368   5.604  0.00  0.00    +0.000 C 
ATOM     21  C   UNL     1     -35.111  22.135   6.376  0.00  0.00    +0.000 C 
ATOM     22  C   UNL     1     -34.455  24.384   5.504  0.00  0.00    +0.000 C 
ENDBRANCH  19  20
ENDBRANCH   1  19
BRANCH   1  23
ATOM     23  C   UNL     1     -36.637  24.806   2.413  0.00  0.00    +0.098 C 
BRANCH  23  26
ATOM     24  O   UNL     1     -38.646  23.445   2.213  0.00  0.00    -0.273 OA
ATOM     25  N   UNL     1     -38.632  25.174   3.738  0.00  0.00    -0.197 N 
ATOM     26  C   UNL     1     -38.074  24.385   2.759  0.00  0.00    +0.245 C 
ATOM     27  H   UNL     1     -38.139  25.919   4.151  0.00  0.00    +0.182 HD
BRANCH  25  28
ATOM     28  O   UNL     1     -39.944  24.852   4.111  0.00  0.00    -0.295 OA
ATOM     29  H   UNL     1     -39.927  24.134   4.763  0.00  0.00    +0.241 HD
ENDBRANCH  25  28
ENDBRANCH  23  26
BRANCH  23  30
ATOM     30  C   UNL     1     -36.356  26.269   2.798  0.00  0.00    +0.072 C 
BRANCH  30  31
ATOM     31  S   UNL     1     -35.736  27.244   1.385  0.00  0.00    -0.107 S 
BRANCH  31  33
ATOM     32  S   UNL     1     -33.134  26.557  -0.031  0.00  0.00    -0.080 S 
ATOM     33  C   UNL     1     -34.042  26.748   1.408  0.00  0.00    +0.055 C 
ATOM     34  C   UNL     1     -33.296  26.467   2.531  0.00  0.00    +0.013 C 
ATOM     35  C   UNL     1     -31.960  26.093   2.207  0.00  0.00    +0.008 C 
ATOM     36  C   UNL     1     -31.737  26.100   0.847  0.00  0.00    +0.036 C 
ENDBRANCH  31  33
ENDBRANCH  30  31
ENDBRANCH  23  30
ENDBRANCH   1  23
TORSDOF 13
ENDMDL
MODEL 3
REMARK VINA RESULT:      -6.5      1.486      1.844
REMARK  Name = 5362422
REMARK  13 active torsions:
REMARK  status: ('A' for Active; 'I' for Inactive)
REMARK    1  A    between atoms: C_1  and  C_4
REMARK    2  A    between atoms: C_1  and  C_19
REMARK    3  A    between atoms: C_1  and  C_23
REMARK    4  A    between atoms: N_3  and  C_6
REMARK    5  A    between atoms: C_6  and  C_9
REMARK    6  A    between atoms: C_6  and  C_12
REMARK    7  A    between atoms: C_12  and  C_13
REMARK    8  A    between atoms: C_19  and  C_20
REMARK    9  A    between atoms: C_23  and  C_26
REMARK   10  A    between atoms: C_23  and  C_30
REMARK   11  A    between atoms: N_25  and  O_28
REMARK   12  A    between atoms: C_30  and  S_31
REMARK   13  A    between atoms: S_31  and  C_33
REMARK                            x       y       z     vdW  Elec       q    Type
REMARK                         _______ _______ _______ _____ _____    ______ ____
ROOT
ATOM      1  C   UNL     1     -35.699  23.875   3.085  0.00  0.00    +0.086 C 
ENDROOT
BRANCH   1   4
ATOM      2  O   UNL     1     -34.258  23.433   1.204  0.00  0.00    -0.275 OA
ATOM      3  N   UNL     1     -35.601  21.700   1.935  0.00  0.00    -0.298 N 
ATOM      4  C   UNL     1     -35.098  22.988   1.986  0.00  0.00    +0.223 C 
ATOM      5  H   UNL     1     -36.272  21.424   2.600  0.00  0.00    +0.150 HD
BRANCH   3   6
ATOM      6  C   UNL     1     -35.171  20.750   0.938  0.00  0.00    +0.153 C 
BRANCH   6   9
ATOM      7  O   UNL     1     -36.379  19.485  -0.740  0.00  0.00    -0.273 OA
ATOM      8  N   UNL     1     -37.562  20.925   0.646  0.00  0.00    -0.301 N 
ATOM      9  C   UNL     1     -36.411  20.314   0.166  0.00  0.00    +0.241 C 
ATOM     10  C   UNL     1     -38.882  20.652   0.123  0.00  0.00    +0.111 C 
ATOM     11  H   UNL     1     -37.475  21.578   1.377  0.00  0.00    +0.150 HD
ENDBRANCH   6   9
BRANCH   6  12
ATOM     12  C   UNL     1     -34.476  19.533   1.559  0.00  0.00    +0.055 C 
BRANCH  12  13
ATOM     13  C   UNL     1     -33.073  19.333   1.038  0.00  0.00    -0.020 C 
ATOM     14  C   UNL     1     -32.475  20.317   0.250  0.00  0.00    -0.004 C 
ATOM     15  C   UNL     1     -32.374  18.166   1.346  0.00  0.00    -0.004 C 
ATOM     16  C   UNL     1     -31.179  20.132  -0.231  0.00  0.00    -0.000 C 
ATOM     17  C   UNL     1     -31.078  17.982   0.865  0.00  0.00    -0.000 C 
ATOM     18  C   UNL     1     -30.480  18.965   0.077  0.00  0.00    -0.000 C 
ENDBRANCH  12  13
ENDBRANCH   6  12
ENDBRANCH   3   6
ENDBRANCH   1   4
BRANCH   1  19
ATOM     19  C   UNL     1     -36.203  23.024   4.272  0.00  0.00    +0.010 C 
BRANCH  19  20
ATOM     20  C   UNL     1     -35.566  23.338   5.641  0.00  0.00    +0.000 C 
ATOM     21  C   UNL     1     -34.953  22.060   6.226  0.00  0.00    +0.000 C 
ATOM     22  C   UNL     1     -34.491  24.423   5.556  0.00  0.00    +0.000 C 
ENDBRANCH  19  20
ENDBRANCH   1  19
BRANCH   1  23
ATOM     23  C   UNL     1     -36.703  24.891   2.455  0.00  0.00    +0.098 C 
BRANCH  23  26
ATOM     24  O   UNL     1     -38.685  23.503   2.180  0.00  0.00    -0.273 OA
ATOM     25  N   UNL     1     -38.729  25.193   3.748  0.00  0.00    -0.197 N 
ATOM     26  C   UNL     1     -38.140  24.438   2.761  0.00  0.00    +0.245 C 
ATOM     27  H   UNL     1     -38.257  25.935   4.190  0.00  0.00    +0.182 HD
BRANCH  25  28
ATOM     28  O   UNL     1     -40.043  24.841   4.086  0.00  0.00    -0.295 OA
ATOM     29  H   UNL     1     -40.031  24.243   4.850  0.00  0.00    +0.241 HD
ENDBRANCH  25  28
ENDBRANCH  23  26
BRANCH  23  30
ATOM     30  C   UNL     1     -36.463  26.357   2.852  0.00  0.00    +0.072 C 
BRANCH  30  31
ATOM     31  S   UNL     1     -34.845  26.971   2.271  0.00  0.00    -0.107 S 
BRANCH  31  33
ATOM     32  S   UNL     1     -36.374  29.359   1.170  0.00  0.00    -0.080 S 
ATOM     33  C   UNL     1     -35.189  28.701   2.218  0.00  0.00    +0.055 C 
ATOM     34  C   UNL     1     -34.571  29.672   2.975  0.00  0.00    +0.013 C 
ATOM     35  C   UNL     1     -35.078  30.974   2.693  0.00  0.00    +0.008 C 
ATOM     36  C   UNL     1     -36.063  30.947   1.729  0.00  0.00    +0.036 C 
ENDBRANCH  31  33
ENDBRANCH  30  31
ENDBRANCH  23  30
ENDBRANCH   1  23
TORSDOF 13
ENDMDL
MODEL 4
REMARK VINA RESULT:      -6.4      1.247      1.548
REMARK  Name = 5362422
REMARK  13 active torsions:
REMARK  status: ('A' for Active; 'I' for Inactive)
REMARK    1  A    between atoms: C_1  and  C_4
REMARK    2  A    between atoms: C_1  and  C_19
REMARK    3  A    between atoms: C_1  and  C_23
REMARK    4  A    between atoms: N_3  and  C_6
REMARK    5  A    between atoms: C_6  and  C_9
REMARK    6  A    between atoms: C_6  and  C_12
REMARK    7  A    between atoms: C_12  and  C_13
REMARK    8  A    between atoms: C_19  and  C_20
REMARK    9  A    between atoms: C_23  and  C_26
REMARK   10  A    between atoms: C_23  and  C_30
REMARK   11  A    between atoms: N_25  and  O_28
REMARK   12  A    between atoms: C_30  and  S_31
REMARK   13  A    between atoms: S_31  and  C_33
REMARK                            x       y       z     vdW  Elec       q    Type
REMARK                         _______ _______ _______ _____ _____    ______ ____
ROOT
ATOM      1  C   UNL     1     -35.945  23.102   2.400  0.00  0.00    +0.086 C 
ENDROOT
BRANCH   1   4
ATOM      2  O   UNL     1     -34.716  22.623   0.383  0.00  0.00    -0.275 OA
ATOM      3  N   UNL     1     -35.335  20.824   1.696  0.00  0.00    -0.298 N 
ATOM      4  C   UNL     1     -35.258  22.171   1.393  0.00  0.00    +0.223 C 
ATOM      5  H   UNL     1     -35.786  20.547   2.526  0.00  0.00    +0.150 HD
BRANCH   3   6
ATOM      6  C   UNL     1     -34.773  19.812   0.834  0.00  0.00    +0.153 C 
BRANCH   6   9
ATOM      7  O   UNL     1     -37.094  19.284   0.375  0.00  0.00    -0.273 OA
ATOM      8  N   UNL     1     -35.472  17.678  -0.054  0.00  0.00    -0.301 N 
ATOM      9  C   UNL     1     -35.921  18.916   0.383  0.00  0.00    +0.241 C 
ATOM     10  C   UNL     1     -36.350  16.656  -0.580  0.00  0.00    +0.111 C 
ATOM     11  H   UNL     1     -34.508  17.484  -0.003  0.00  0.00    +0.150 HD
ENDBRANCH   6   9
BRANCH   6  12
ATOM     12  C   UNL     1     -33.695  18.982   1.540  0.00  0.00    +0.055 C 
BRANCH  12  13
ATOM     13  C   UNL     1     -32.341  19.106   0.885  0.00  0.00    -0.020 C 
ATOM     14  C   UNL     1     -32.041  20.226   0.109  0.00  0.00    -0.004 C 
ATOM     15  C   UNL     1     -31.388  18.101   1.057  0.00  0.00    -0.004 C 
ATOM     16  C   UNL     1     -30.789  20.339  -0.496  0.00  0.00    -0.000 C 
ATOM     17  C   UNL     1     -30.137  18.216   0.452  0.00  0.00    -0.000 C 
ATOM     18  C   UNL     1     -29.837  19.335  -0.324  0.00  0.00    -0.000 C 
ENDBRANCH  12  13
ENDBRANCH   6  12
ENDBRANCH   3   6
ENDBRANCH   1   4
BRANCH   1  19
ATOM     19  C   UNL     1     -36.088  22.421   3.780  0.00  0.00    +0.010 C 
BRANCH  19  20
ATOM     20  C   UNL     1     -35.255  23.037   4.921  0.00  0.00    +0.000 C 
ATOM     21  C   UNL     1     -35.727  24.472   5.184  0.00  0.00    +0.000 C 
ATOM     22  C   UNL     1     -35.341  22.230   6.218  0.00  0.00    +0.000 C 
ENDBRANCH  19  20
ENDBRANCH   1  19
BRANCH   1  23
ATOM     23  C   UNL     1     -37.236  23.708   1.764  0.00  0.00    +0.098 C 
BRANCH  23  26
ATOM     24  O   UNL     1     -39.178  23.549   3.224  0.00  0.00    -0.273 OA
ATOM     25  N   UNL     1     -38.682  21.766   1.849  0.00  0.00    -0.197 N 
ATOM     26  C   UNL     1     -38.470  23.021   2.370  0.00  0.00    +0.245 C 
ATOM     27  H   UNL     1     -38.089  21.378   1.165  0.00  0.00    +0.182 HD
BRANCH  25  28
ATOM     28  O   UNL     1     -39.791  21.073   2.351  0.00  0.00    -0.295 OA
ATOM     29  H   UNL     1     -39.489  20.320   2.882  0.00  0.00    +0.241 HD
ENDBRANCH  25  28
ENDBRANCH  23  26
BRANCH  23  30
ATOM     30  C   UNL     1     -37.331  25.242   1.848  0.00  0.00    +0.072 C 
BRANCH  30  31
ATOM     31  S   UNL     1     -36.152  26.065   0.724  0.00  0.00    -0.107 S 
BRANCH  31  33
ATOM     32  S   UNL     1     -34.976  27.768   2.953  0.00  0.00    -0.080 S 
ATOM     33  C   UNL     1     -34.867  26.443   1.873  0.00  0.00    +0.055 C 
ATOM     34  C   UNL     1     -33.685  25.750   2.022  0.00  0.00    +0.013 C 
ATOM     35  C   UNL     1     -32.859  26.313   3.037  0.00  0.00    +0.008 C 
ATOM     36  C   UNL     1     -33.440  27.416   3.624  0.00  0.00    +0.036 C 
ENDBRANCH  31  33
ENDBRANCH  30  31
ENDBRANCH  23  30
ENDBRANCH   1  23
TORSDOF 13
ENDMDL
MODEL 5
REMARK VINA RESULT:      -6.4      2.377      3.462
REMARK  Name = 5362422
REMARK  13 active torsions:
REMARK  status: ('A' for Active; 'I' for Inactive)
REMARK    1  A    between atoms: C_1  and  C_4
REMARK    2  A    between atoms: C_1  and  C_19
REMARK    3  A    between atoms: C_1  and  C_23
REMARK    4  A    between atoms: N_3  and  C_6
REMARK    5  A    between atoms: C_6  and  C_9
REMARK    6  A    between atoms: C_6  and  C_12
REMARK    7  A    between atoms: C_12  and  C_13
REMARK    8  A    between atoms: C_19  and  C_20
REMARK    9  A    between atoms: C_23  and  C_26
REMARK   10  A    between atoms: C_23  and  C_30
REMARK   11  A    between atoms: N_25  and  O_28
REMARK   12  A    between atoms: C_30  and  S_31
REMARK   13  A    between atoms: S_31  and  C_33
REMARK                            x       y       z     vdW  Elec       q    Type
REMARK                         _______ _______ _______ _____ _____    ______ ____
ROOT
ATOM      1  C   UNL     1     -36.935  21.141   1.911  0.00  0.00    +0.086 C 
ENDROOT
BRANCH   1   4
ATOM      2  O   UNL     1     -36.076  20.835  -0.320  0.00  0.00    -0.275 OA
ATOM      3  N   UNL     1     -35.255  19.438   1.328  0.00  0.00    -0.298 N 
ATOM      4  C   UNL     1     -36.042  20.473   0.856  0.00  0.00    +0.223 C 
ATOM      5  H   UNL     1     -35.288  19.212   2.286  0.00  0.00    +0.150 HD
BRANCH   3   6
ATOM      6  C   UNL     1     -34.387  18.680   0.460  0.00  0.00    +0.153 C 
BRANCH   6   9
ATOM      7  O   UNL     1     -34.555  16.335  -0.132  0.00  0.00    -0.273 OA
ATOM      8  N   UNL     1     -36.504  17.581   0.081  0.00  0.00    -0.301 N 
ATOM      9  C   UNL     1     -35.127  17.400   0.088  0.00  0.00    +0.241 C 
ATOM     10  C   UNL     1     -37.442  16.515  -0.193  0.00  0.00    +0.111 C 
ATOM     11  H   UNL     1     -36.859  18.479   0.270  0.00  0.00    +0.150 HD
ENDBRANCH   6   9
BRANCH   6  12
ATOM     12  C   UNL     1     -33.048  18.345   1.128  0.00  0.00    +0.055 C 
BRANCH  12  13
ATOM     13  C   UNL     1     -31.882  19.060   0.489  0.00  0.00    -0.020 C 
ATOM     14  C   UNL     1     -32.054  20.340  -0.039  0.00  0.00    -0.004 C 
ATOM     15  C   UNL     1     -30.634  18.441   0.427  0.00  0.00    -0.004 C 
ATOM     16  C   UNL     1     -30.976  21.001  -0.629  0.00  0.00    -0.000 C 
ATOM     17  C   UNL     1     -29.557  19.102  -0.163  0.00  0.00    -0.000 C 
ATOM     18  C   UNL     1     -29.727  20.382  -0.691  0.00  0.00    -0.000 C 
ENDBRANCH  12  13
ENDBRANCH   6  12
ENDBRANCH   3   6
ENDBRANCH   1   4
BRANCH   1  19
ATOM     19  C   UNL     1     -38.269  21.613   1.291  0.00  0.00    +0.010 C 
BRANCH  19  20
ATOM     20  C   UNL     1     -38.564  23.122   1.404  0.00  0.00    +0.000 C 
ATOM     21  C   UNL     1     -38.492  23.763   0.013  0.00  0.00    +0.000 C 
ATOM     22  C   UNL     1     -39.932  23.412   2.025  0.00  0.00    +0.000 C 
ENDBRANCH  19  20
ENDBRANCH   1  19
BRANCH   1  23
ATOM     23  C   UNL     1     -36.107  22.194   2.714  0.00  0.00    +0.098 C 
BRANCH  23  26
ATOM     24  O   UNL     1     -35.035  20.611   4.222  0.00  0.00    -0.273 OA
ATOM     25  N   UNL     1     -36.283  22.325   5.126  0.00  0.00    -0.197 N 
ATOM     26  C   UNL     1     -35.739  21.608   4.087  0.00  0.00    +0.245 C 
ATOM     27  H   UNL     1     -36.843  23.121   4.975  0.00  0.00    +0.182 HD
BRANCH  25  28
ATOM     28  O   UNL     1     -35.992  21.854   6.414  0.00  0.00    -0.295 OA
ATOM     29  H   UNL     1     -35.033  21.874   6.556  0.00  0.00    +0.241 HD
ENDBRANCH  25  28
ENDBRANCH  23  26
BRANCH  23  30
ATOM     30  C   UNL     1     -34.875  22.740   1.972  0.00  0.00    +0.072 C 
BRANCH  30  31
ATOM     31  S   UNL     1     -34.987  24.539   1.686  0.00  0.00    -0.107 S 
BRANCH  31  33
ATOM     32  S   UNL     1     -36.571  25.749   3.983  0.00  0.00    -0.080 S 
ATOM     33  C   UNL     1     -35.118  25.093   3.356  0.00  0.00    +0.055 C 
ATOM     34  C   UNL     1     -34.114  25.067   4.300  0.00  0.00    +0.013 C 
ATOM     35  C   UNL     1     -34.543  25.589   5.554  0.00  0.00    +0.008 C 
ATOM     36  C   UNL     1     -35.859  25.997   5.520  0.00  0.00    +0.036 C 
ENDBRANCH  31  33
ENDBRANCH  30  31
ENDBRANCH  23  30
ENDBRANCH   1  23
TORSDOF 13
ENDMDL
MODEL 6
REMARK VINA RESULT:      -6.3      2.774      4.327
REMARK  Name = 5362422
REMARK  13 active torsions:
REMARK  status: ('A' for Active; 'I' for Inactive)
REMARK    1  A    between atoms: C_1  and  C_4
REMARK    2  A    between atoms: C_1  and  C_19
REMARK    3  A    between atoms: C_1  and  C_23
REMARK    4  A    between atoms: N_3  and  C_6
REMARK    5  A    between atoms: C_6  and  C_9
REMARK    6  A    between atoms: C_6  and  C_12
REMARK    7  A    between atoms: C_12  and  C_13
REMARK    8  A    between atoms: C_19  and  C_20
REMARK    9  A    between atoms: C_23  and  C_26
REMARK   10  A    between atoms: C_23  and  C_30
REMARK   11  A    between atoms: N_25  and  O_28
REMARK   12  A    between atoms: C_30  and  S_31
REMARK   13  A    between atoms: S_31  and  C_33
REMARK                            x       y       z     vdW  Elec       q    Type
REMARK                         _______ _______ _______ _____ _____    ______ ____
ROOT
ATOM      1  C   UNL     1     -36.195  24.224   3.229  0.00  0.00    +0.086 C 
ENDROOT
BRANCH   1   4
ATOM      2  O   UNL     1     -34.970  23.988   1.167  0.00  0.00    -0.275 OA
ATOM      3  N   UNL     1     -35.920  22.078   2.055  0.00  0.00    -0.298 N 
ATOM      4  C   UNL     1     -35.619  23.427   2.050  0.00  0.00    +0.223 C 
ATOM      5  H   UNL     1     -36.446  21.709   2.801  0.00  0.00    +0.150 HD
BRANCH   3   6
ATOM      6  C   UNL     1     -35.488  21.193   1.000  0.00  0.00    +0.153 C 
BRANCH   6   9
ATOM      7  O   UNL     1     -37.031  21.767  -0.780  0.00  0.00    -0.273 OA
ATOM      8  N   UNL     1     -37.287  19.735   0.316  0.00  0.00    -0.301 N 
ATOM      9  C   UNL     1     -36.685  20.964   0.084  0.00  0.00    +0.241 C 
ATOM     10  C   UNL     1     -38.415  19.247  -0.447  0.00  0.00    +0.111 C 
ATOM     11  H   UNL     1     -36.930  19.167   1.036  0.00  0.00    +0.150 HD
ENDBRANCH   6   9
BRANCH   6  12
ATOM     12  C   UNL     1     -34.967  19.857   1.541  0.00  0.00    +0.055 C 
BRANCH  12  13
ATOM     13  C   UNL     1     -33.557  19.556   1.093  0.00  0.00    -0.020 C 
ATOM     14  C   UNL     1     -32.956  18.348   1.447  0.00  0.00    -0.004 C 
ATOM     15  C   UNL     1     -32.856  20.485   0.323  0.00  0.00    -0.004 C 
ATOM     16  C   UNL     1     -31.653  18.070   1.033  0.00  0.00    -0.000 C 
ATOM     17  C   UNL     1     -31.554  20.206  -0.091  0.00  0.00    -0.000 C 
ATOM     18  C   UNL     1     -30.952  18.999   0.264  0.00  0.00    -0.000 C 
ENDBRANCH  12  13
ENDBRANCH   6  12
ENDBRANCH   3   6
ENDBRANCH   1   4
BRANCH   1  19
ATOM     19  C   UNL     1     -36.440  23.310   4.451  0.00  0.00    +0.010 C 
BRANCH  19  20
ATOM     20  C   UNL     1     -35.461  23.489   5.628  0.00  0.00    +0.000 C 
ATOM     21  C   UNL     1     -35.053  22.114   6.170  0.00  0.00    +0.000 C 
ATOM     22  C   UNL     1     -34.207  24.274   5.240  0.00  0.00    +0.000 C 
ENDBRANCH  19  20
ENDBRANCH   1  19
BRANCH   1  23
ATOM     23  C   UNL     1     -37.392  25.100   2.740  0.00  0.00    +0.098 C 
BRANCH  23  26
ATOM     24  O   UNL     1     -37.400  27.324   1.749  0.00  0.00    -0.273 OA
ATOM     25  N   UNL     1     -35.918  26.883   3.459  0.00  0.00    -0.197 N 
ATOM     26  C   UNL     1     -36.921  26.554   2.578  0.00  0.00    +0.245 C 
ATOM     27  H   UNL     1     -35.561  26.236   4.109  0.00  0.00    +0.182 HD
BRANCH  25  28
ATOM     28  O   UNL     1     -35.434  28.196   3.375  0.00  0.00    -0.295 OA
ATOM     29  H   UNL     1     -34.639  28.284   3.924  0.00  0.00    +0.241 HD
ENDBRANCH  25  28
ENDBRANCH  23  26
BRANCH  23  30
ATOM     30  C   UNL     1     -38.093  24.577   1.475  0.00  0.00    +0.072 C 
BRANCH  30  31
ATOM     31  S   UNL     1     -39.562  23.568   1.871  0.00  0.00    -0.107 S 
BRANCH  31  33
ATOM     32  S   UNL     1     -42.076  24.848   0.736  0.00  0.00    -0.080 S 
ATOM     33  C   UNL     1     -40.794  24.831   1.872  0.00  0.00    +0.055 C 
ATOM     34  C   UNL     1     -40.860  25.898   2.742  0.00  0.00    +0.013 C 
ATOM     35  C   UNL     1     -41.978  26.739   2.474  0.00  0.00    +0.008 C 
ATOM     36  C   UNL     1     -42.723  26.284   1.408  0.00  0.00    +0.036 C 
ENDBRANCH  31  33
ENDBRANCH  30  31
ENDBRANCH  23  30
ENDBRANCH   1  23
TORSDOF 13
ENDMDL
MODEL 7
REMARK VINA RESULT:      -6.2      2.422      4.214
REMARK  Name = 5362422
REMARK  13 active torsions:
REMARK  status: ('A' for Active; 'I' for Inactive)
REMARK    1  A    between atoms: C_1  and  C_4
REMARK    2  A    between atoms: C_1  and  C_19
REMARK    3  A    between atoms: C_1  and  C_23
REMARK    4  A    between atoms: N_3  and  C_6
REMARK    5  A    between atoms: C_6  and  C_9
REMARK    6  A    between atoms: C_6  and  C_12
REMARK    7  A    between atoms: C_12  and  C_13
REMARK    8  A    between atoms: C_19  and  C_20
REMARK    9  A    between atoms: C_23  and  C_26
REMARK   10  A    between atoms: C_23  and  C_30
REMARK   11  A    between atoms: N_25  and  O_28
REMARK   12  A    between atoms: C_30  and  S_31
REMARK   13  A    between atoms: S_31  and  C_33
REMARK                            x       y       z     vdW  Elec       q    Type
REMARK                         _______ _______ _______ _____ _____    ______ ____
ROOT
ATOM      1  C   UNL     1     -35.604  24.159   3.149  0.00  0.00    +0.086 C 
ENDROOT
BRANCH   1   4
ATOM      2  O   UNL     1     -34.178  23.732   1.253  0.00  0.00    -0.275 OA
ATOM      3  N   UNL     1     -35.506  21.990   1.991  0.00  0.00    -0.298 N 
ATOM      4  C   UNL     1     -35.009  23.279   2.041  0.00  0.00    +0.223 C 
ATOM      5  H   UNL     1     -36.169  21.707   2.661  0.00  0.00    +0.150 HD
BRANCH   3   6
ATOM      6  C   UNL     1     -35.080  21.044   0.987  0.00  0.00    +0.153 C 
BRANCH   6   9
ATOM      7  O   UNL     1     -36.810  21.545  -0.636  0.00  0.00    -0.273 OA
ATOM      8  N   UNL     1     -36.704  19.407   0.267  0.00  0.00    -0.301 N 
ATOM      9  C   UNL     1     -36.296  20.726   0.123  0.00  0.00    +0.241 C 
ATOM     10  C   UNL     1     -37.804  18.832  -0.475  0.00  0.00    +0.111 C 
ATOM     11  H   UNL     1     -36.221  18.835   0.906  0.00  0.00    +0.150 HD
ENDBRANCH   6   9
BRANCH   6  12
ATOM     12  C   UNL     1     -34.514  19.760   1.603  0.00  0.00    +0.055 C 
BRANCH  12  13
ATOM     13  C   UNL     1     -33.135  19.425   1.088  0.00  0.00    -0.020 C 
ATOM     14  C   UNL     1     -32.463  20.322   0.257  0.00  0.00    -0.004 C 
ATOM     15  C   UNL     1     -32.531  18.218   1.444  0.00  0.00    -0.004 C 
ATOM     16  C   UNL     1     -31.189  20.012  -0.218  0.00  0.00    -0.000 C 
ATOM     17  C   UNL     1     -31.258  17.910   0.969  0.00  0.00    -0.000 C 
ATOM     18  C   UNL     1     -30.585  18.806   0.138  0.00  0.00    -0.000 C 
ENDBRANCH  12  13
ENDBRANCH   6  12
ENDBRANCH   3   6
ENDBRANCH   1   4
BRANCH   1  19
ATOM     19  C   UNL     1     -36.243  23.298   4.261  0.00  0.00    +0.010 C 
BRANCH  19  20
ATOM     20  C   UNL     1     -35.556  23.364   5.639  0.00  0.00    +0.000 C 
ATOM     21  C   UNL     1     -35.055  21.969   6.030  0.00  0.00    +0.000 C 
ATOM     22  C   UNL     1     -34.386  24.349   5.669  0.00  0.00    +0.000 C 
ENDBRANCH  19  20
ENDBRANCH   1  19
BRANCH   1  23
ATOM     23  C   UNL     1     -36.487  25.281   2.516  0.00  0.00    +0.098 C 
BRANCH  23  26
ATOM     24  O   UNL     1     -34.642  26.743   3.138  0.00  0.00    -0.273 OA
ATOM     25  N   UNL     1     -36.512  27.678   2.166  0.00  0.00    -0.197 N 
ATOM     26  C   UNL     1     -35.764  26.631   2.651  0.00  0.00    +0.245 C 
ATOM     27  H   UNL     1     -37.409  27.546   1.783  0.00  0.00    +0.182 HD
BRANCH  25  28
ATOM     28  O   UNL     1     -35.920  28.945   2.253  0.00  0.00    -0.295 OA
ATOM     29  H   UNL     1     -35.115  28.964   1.711  0.00  0.00    +0.241 HD
ENDBRANCH  25  28
ENDBRANCH  23  26
BRANCH  23  30
ATOM     30  C   UNL     1     -36.929  25.006   1.068  0.00  0.00    +0.072 C 
BRANCH  30  31
ATOM     31  S   UNL     1     -38.723  25.259   0.838  0.00  0.00    -0.107 S 
BRANCH  31  33
ATOM     32  S   UNL     1     -40.107  22.842  -0.381  0.00  0.00    -0.080 S 
ATOM     33  C   UNL     1     -39.267  23.582   0.915  0.00  0.00    +0.055 C 
ATOM     34  C   UNL     1     -39.090  22.721   1.976  0.00  0.00    +0.013 C 
ATOM     35  C   UNL     1     -39.649  21.436   1.722  0.00  0.00    +0.008 C 
ATOM     36  C   UNL     1     -40.235  21.364   0.476  0.00  0.00    +0.036 C 
ENDBRANCH  31  33
ENDBRANCH  30  31
ENDBRANCH  23  30
ENDBRANCH   1  23
TORSDOF 13
ENDMDL
MODEL 8
REMARK VINA RESULT:      -6.2      2.324      3.014
REMARK  Name = 5362422
REMARK  13 active torsions:
REMARK  status: ('A' for Active; 'I' for Inactive)
REMARK    1  A    between atoms: C_1  and  C_4
REMARK    2  A    between atoms: C_1  and  C_19
REMARK    3  A    between atoms: C_1  and  C_23
REMARK    4  A    between atoms: N_3  and  C_6
REMARK    5  A    between atoms: C_6  and  C_9
REMARK    6  A    between atoms: C_6  and  C_12
REMARK    7  A    between atoms: C_12  and  C_13
REMARK    8  A    between atoms: C_19  and  C_20
REMARK    9  A    between atoms: C_23  and  C_26
REMARK   10  A    between atoms: C_23  and  C_30
REMARK   11  A    between atoms: N_25  and  O_28
REMARK   12  A    between atoms: C_30  and  S_31
REMARK   13  A    between atoms: S_31  and  C_33
REMARK                            x       y       z     vdW  Elec       q    Type
REMARK                         _______ _______ _______ _____ _____    ______ ____
ROOT
ATOM      1  C   UNL     1     -36.025  22.663   2.970  0.00  0.00    +0.086 C 
ENDROOT
BRANCH   1   4
ATOM      2  O   UNL     1     -35.292  20.396   3.332  0.00  0.00    -0.275 OA
ATOM      3  N   UNL     1     -35.315  21.163   1.152  0.00  0.00    -0.298 N 
ATOM      4  C   UNL     1     -35.520  21.288   2.513  0.00  0.00    +0.223 C 
ATOM      5  H   UNL     1     -35.523  21.927   0.566  0.00  0.00    +0.150 HD
BRANCH   3   6
ATOM      6  C   UNL     1     -34.806  19.948   0.562  0.00  0.00    +0.153 C 
BRANCH   6   9
ATOM      7  O   UNL     1     -37.162  19.468   0.255  0.00  0.00    -0.273 OA
ATOM      8  N   UNL     1     -35.622  17.753  -0.028  0.00  0.00    -0.301 N 
ATOM      9  C   UNL     1     -36.005  19.054   0.267  0.00  0.00    +0.241 C 
ATOM     10  C   UNL     1     -36.559  16.713  -0.391  0.00  0.00    +0.111 C 
ATOM     11  H   UNL     1     -34.665  17.526   0.013  0.00  0.00    +0.150 HD
ENDBRANCH   6   9
BRANCH   6  12
ATOM     12  C   UNL     1     -33.817  19.227   1.484  0.00  0.00    +0.055 C 
BRANCH  12  13
ATOM     13  C   UNL     1     -32.426  19.150   0.901  0.00  0.00    -0.020 C 
ATOM     14  C   UNL     1     -31.944  20.190   0.107  0.00  0.00    -0.004 C 
ATOM     15  C   UNL     1     -31.622  18.039   1.159  0.00  0.00    -0.004 C 
ATOM     16  C   UNL     1     -30.659  20.119  -0.431  0.00  0.00    -0.000 C 
ATOM     17  C   UNL     1     -30.338  17.969   0.622  0.00  0.00    -0.000 C 
ATOM     18  C   UNL     1     -29.855  19.008  -0.174  0.00  0.00    -0.000 C 
ENDBRANCH  12  13
ENDBRANCH   6  12
ENDBRANCH   3   6
ENDBRANCH   1   4
BRANCH   1  19
ATOM     19  C   UNL     1     -36.435  22.639   4.459  0.00  0.00    +0.010 C 
BRANCH  19  20
ATOM     20  C   UNL     1     -35.433  23.280   5.441  0.00  0.00    +0.000 C 
ATOM     21  C   UNL     1     -34.803  22.189   6.315  0.00  0.00    +0.000 C 
ATOM     22  C   UNL     1     -34.328  24.062   4.730  0.00  0.00    +0.000 C 
ENDBRANCH  19  20
ENDBRANCH   1  19
BRANCH   1  23
ATOM     23  C   UNL     1     -37.074  23.207   1.948  0.00  0.00    +0.098 C 
BRANCH  23  26
ATOM     24  O   UNL     1     -39.280  23.513   2.930  0.00  0.00    -0.273 OA
ATOM     25  N   UNL     1     -38.729  21.443   2.077  0.00  0.00    -0.197 N 
ATOM     26  C   UNL     1     -38.480  22.761   2.379  0.00  0.00    +0.245 C 
ATOM     27  H   UNL     1     -38.059  20.873   1.635  0.00  0.00    +0.182 HD
BRANCH  25  28
ATOM     28  O   UNL     1     -39.994  20.961   2.439  0.00  0.00    -0.295 OA
ATOM     29  H   UNL     1     -40.067  20.026   2.190  0.00  0.00    +0.241 HD
ENDBRANCH  25  28
ENDBRANCH  23  26
BRANCH  23  30
ATOM     30  C   UNL     1     -36.999  24.724   1.702  0.00  0.00    +0.072 C 
BRANCH  30  31
ATOM     31  S   UNL     1     -36.816  25.124  -0.070  0.00  0.00    -0.107 S 
BRANCH  31  33
ATOM     32  S   UNL     1     -34.869  23.489  -1.738  0.00  0.00    -0.080 S 
ATOM     33  C   UNL     1     -35.213  24.445  -0.359  0.00  0.00    +0.055 C 
ATOM     34  C   UNL     1     -34.111  24.595   0.453  0.00  0.00    +0.013 C 
ATOM     35  C   UNL     1     -32.968  23.920  -0.063  0.00  0.00    +0.008 C 
ATOM     36  C   UNL     1     -33.241  23.276  -1.251  0.00  0.00    +0.036 C 
ENDBRANCH  31  33
ENDBRANCH  30  31
ENDBRANCH  23  30
ENDBRANCH   1  23
TORSDOF 13
ENDMDL
MODEL 9
REMARK VINA RESULT:      -6.1      2.959      7.135
REMARK  Name = 5362422
REMARK  13 active torsions:
REMARK  status: ('A' for Active; 'I' for Inactive)
REMARK    1  A    between atoms: C_1  and  C_4
REMARK    2  A    between atoms: C_1  and  C_19
REMARK    3  A    between atoms: C_1  and  C_23
REMARK    4  A    between atoms: N_3  and  C_6
REMARK    5  A    between atoms: C_6  and  C_9
REMARK    6  A    between atoms: C_6  and  C_12
REMARK    7  A    between atoms: C_12  and  C_13
REMARK    8  A    between atoms: C_19  and  C_20
REMARK    9  A    between atoms: C_23  and  C_26
REMARK   10  A    between atoms: C_23  and  C_30
REMARK   11  A    between atoms: N_25  and  O_28
REMARK   12  A    between atoms: C_30  and  S_31
REMARK   13  A    between atoms: S_31  and  C_33
REMARK                            x       y       z     vdW  Elec       q    Type
REMARK                         _______ _______ _______ _____ _____    ______ ____
ROOT
ATOM      1  C   UNL     1     -35.638  22.011   1.816  0.00  0.00    +0.086 C 
ENDROOT
BRANCH   1   4
ATOM      2  O   UNL     1     -36.108  22.495   4.130  0.00  0.00    -0.275 OA
ATOM      3  N   UNL     1     -36.979  23.941   2.551  0.00  0.00    -0.298 N 
ATOM      4  C   UNL     1     -36.249  22.838   2.956  0.00  0.00    +0.223 C 
ATOM      5  H   UNL     1     -37.042  24.145   1.590  0.00  0.00    +0.150 HD
BRANCH   3   6
ATOM      6  C   UNL     1     -37.650  24.802   3.495  0.00  0.00    +0.153 C 
BRANCH   6   9
ATOM      7  O   UNL     1     -39.705  23.777   2.718  0.00  0.00    -0.273 OA
ATOM      8  N   UNL     1     -39.754  25.987   3.432  0.00  0.00    -0.301 N 
ATOM      9  C   UNL     1     -39.135  24.777   3.150  0.00  0.00    +0.241 C 
ATOM     10  C   UNL     1     -41.169  26.217   3.244  0.00  0.00    +0.111 C 
ATOM     11  H   UNL     1     -39.202  26.726   3.775  0.00  0.00    +0.150 HD
ENDBRANCH   6   9
BRANCH   6  12
ATOM     12  C   UNL     1     -37.117  26.239   3.448  0.00  0.00    +0.055 C 
BRANCH  12  13
ATOM     13  C   UNL     1     -35.783  26.389   4.139  0.00  0.00    -0.020 C 
ATOM     14  C   UNL     1     -34.755  27.103   3.522  0.00  0.00    -0.004 C 
ATOM     15  C   UNL     1     -35.578  25.814   5.393  0.00  0.00    -0.004 C 
ATOM     16  C   UNL     1     -33.523  27.241   4.160  0.00  0.00    -0.000 C 
ATOM     17  C   UNL     1     -34.346  25.953   6.030  0.00  0.00    -0.000 C 
ATOM     18  C   UNL     1     -33.318  26.666   5.415  0.00  0.00    -0.000 C 
ENDBRANCH  12  13
ENDBRANCH   6  12
ENDBRANCH   3   6
ENDBRANCH   1   4
BRANCH   1  19
ATOM     19  C   UNL     1     -35.506  22.854   0.528  0.00  0.00    +0.010 C 
BRANCH  19  20
ATOM     20  C   UNL     1     -34.094  23.389   0.218  0.00  0.00    +0.000 C 
ATOM     21  C   UNL     1     -34.008  23.784  -1.261  0.00  0.00    +0.000 C 
ATOM     22  C   UNL     1     -33.714  24.590   1.087  0.00  0.00    +0.000 C 
ENDBRANCH  19  20
ENDBRANCH   1  19
BRANCH   1  23
ATOM     23  C   UNL     1     -36.377  20.640   1.702  0.00  0.00    +0.098 C 
BRANCH  23  26
ATOM     24  O   UNL     1     -38.079  21.020   0.003  0.00  0.00    -0.273 OA
ATOM     25  N   UNL     1     -38.731  20.905   2.211  0.00  0.00    -0.197 N 
ATOM     26  C   UNL     1     -37.808  20.876   1.192  0.00  0.00    +0.245 C 
ATOM     27  H   UNL     1     -38.472  20.786   3.154  0.00  0.00    +0.182 HD
BRANCH  25  28
ATOM     28  O   UNL     1     -40.062  21.115   1.826  0.00  0.00    -0.295 OA
ATOM     29  H   UNL     1     -40.651  20.625   2.420  0.00  0.00    +0.241 HD
ENDBRANCH  25  28
ENDBRANCH  23  26
BRANCH  23  30
ATOM     30  C   UNL     1     -35.635  19.581   0.868  0.00  0.00    +0.072 C 
BRANCH  30  31
ATOM     31  S   UNL     1     -33.912  19.353   1.425  0.00  0.00    -0.107 S 
BRANCH  31  33
ATOM     32  S   UNL     1     -33.788  19.916  -1.561  0.00  0.00    -0.080 S 
ATOM     33  C   UNL     1     -33.061  19.928  -0.011  0.00  0.00    +0.055 C 
ATOM     34  C   UNL     1     -31.777  20.424  -0.046  0.00  0.00    +0.013 C 
ATOM     35  C   UNL     1     -31.384  20.801  -1.362  0.00  0.00    +0.008 C 
ATOM     36  C   UNL     1     -32.384  20.577  -2.284  0.00  0.00    +0.036 C 
ENDBRANCH  31  33
ENDBRANCH  30  31
ENDBRANCH  23  30
ENDBRANCH   1  23
TORSDOF 13
ENDMDL
