MODEL 1
REMARK VINA RESULT:      -5.7      0.000      0.000
REMARK  Name = 5486846
REMARK  2 active torsions:
REMARK  status: ('A' for Active; 'I' for Inactive)
REMARK    1  A    between atoms: CA_9  and  C_19
REMARK    2  A    between atoms: C_19  and  O_20
REMARK                            x       y       z     vdW  Elec       q    Type
REMARK                         _______ _______ _______ _____ _____    ______ ____
ROOT
ATOM      1  O   UNL     1     -39.080  26.532   1.800  0.00  0.00    -0.267 OA
ATOM      2  N   UNL     1     -37.248  26.624   3.212  0.00  0.00    -0.251 N 
ATOM      3  N   UNL     1     -37.729  23.917   3.767  0.00  0.00    -0.391 NA
ATOM      4  N   UNL     1     -35.387  26.628   4.676  0.00  0.00    -0.310 NA
ATOM      5  N   UNL     1     -34.776  24.617   5.851  0.00  0.00    -0.311 NA
ATOM      6  N   UNL     1     -33.549  26.595   6.133  0.00  0.00    -0.283 N 
ATOM      7  C   UNL     1     -36.671  24.615   4.360  0.00  0.00    +0.220 C 
ATOM      8  C   UNL     1     -36.407  25.951   4.106  0.00  0.00    +0.233 C 
ATOM      9  CA  UNL     1     -38.503  24.547   2.942  0.00  0.00    +0.192 C 
ATOM     10  C   UNL     1     -38.309  26.006   2.590  0.00  0.00    +0.279 C 
ATOM     11  C   UNL     1     -35.812  23.996   5.250  0.00  0.00    +0.224 C 
ATOM     12  C   UNL     1     -34.624  25.913   5.524  0.00  0.00    +0.199 C 
ATOM     13  H   UNL     1     -37.076  27.574   3.021  0.00  0.00    +0.158 HD
ATOM     14  H   UNL     1     -33.390  27.545   5.930  0.00  0.00    +0.156 HD
ATOM     15  H   UNL     1     -32.957  26.121   6.761  0.00  0.00    +0.156 HD
ATOM     16  N   UNL     1     -36.028  22.628   5.552  0.00  0.00    -0.330 N 
ATOM     17  H   UNL     1     -35.432  22.163   6.182  0.00  0.00    +0.145 HD
ATOM     18  H   UNL     1     -36.775  22.143   5.131  0.00  0.00    +0.145 HD
ENDROOT
BRANCH   9  19
ATOM     19  C   UNL     1     -39.646  23.830   2.283  0.00  0.00    +0.201 C 
BRANCH  19  20
ATOM     20  O   UNL     1     -39.337  23.738   0.913  0.00  0.00    -0.375 OA
ATOM     21  H   UNL     1     -39.305  22.805   0.649  0.00  0.00    +0.211 HD
ENDBRANCH  19  20
ENDBRANCH   9  19
TORSDOF 2
ENDMDL
MODEL 2
REMARK VINA RESULT:      -5.5      2.985      4.829
REMARK  Name = 5486846
REMARK  2 active torsions:
REMARK  status: ('A' for Active; 'I' for Inactive)
REMARK    1  A    between atoms: CA_9  and  C_19
REMARK    2  A    between atoms: C_19  and  O_20
REMARK                            x       y       z     vdW  Elec       q    Type
REMARK                         _______ _______ _______ _____ _____    ______ ____
ROOT
ATOM      1  O   UNL     1     -35.220  20.617   3.365  0.00  0.00    -0.267 OA
ATOM      2  N   UNL     1     -36.197  22.473   2.387  0.00  0.00    -0.251 N 
ATOM      3  N   UNL     1     -35.940  23.736   4.878  0.00  0.00    -0.391 NA
ATOM      4  N   UNL     1     -37.188  24.417   1.466  0.00  0.00    -0.310 NA
ATOM      5  N   UNL     1     -37.513  26.367   2.839  0.00  0.00    -0.311 NA
ATOM      6  N   UNL     1     -38.166  26.360   0.587  0.00  0.00    -0.283 N 
ATOM      7  C   UNL     1     -36.504  24.387   3.775  0.00  0.00    +0.220 C 
ATOM      8  C   UNL     1     -36.645  23.792   2.532  0.00  0.00    +0.233 C 
ATOM      9  CA  UNL     1     -35.529  22.516   4.734  0.00  0.00    +0.192 C 
ATOM     10  C   UNL     1     -35.632  21.767   3.424  0.00  0.00    +0.279 C 
ATOM     11  C   UNL     1     -36.962  25.689   3.868  0.00  0.00    +0.224 C 
ATOM     12  C   UNL     1     -37.595  25.681   1.685  0.00  0.00    +0.199 C 
ATOM     13  H   UNL     1     -36.289  22.034   1.510  0.00  0.00    +0.158 HD
ATOM     14  H   UNL     1     -38.251  25.906  -0.282  0.00  0.00    +0.156 HD
ATOM     15  H   UNL     1     -38.480  27.287   0.690  0.00  0.00    +0.156 HD
ATOM     16  N   UNL     1     -36.847  26.356   5.113  0.00  0.00    -0.330 N 
ATOM     17  H   UNL     1     -37.165  27.283   5.206  0.00  0.00    +0.145 HD
ATOM     18  H   UNL     1     -36.449  25.891   5.885  0.00  0.00    +0.145 HD
ENDROOT
BRANCH   9  19
ATOM     19  C   UNL     1     -34.915  21.787   5.894  0.00  0.00    +0.201 C 
BRANCH  19  20
ATOM     20  O   UNL     1     -35.632  20.585   6.047  0.00  0.00    -0.375 OA
ATOM     21  H   UNL     1     -36.540  20.782   6.330  0.00  0.00    +0.211 HD
ENDBRANCH  19  20
ENDBRANCH   9  19
TORSDOF 2
ENDMDL
MODEL 3
REMARK VINA RESULT:      -5.4      2.725      4.735
REMARK  Name = 5486846
REMARK  2 active torsions:
REMARK  status: ('A' for Active; 'I' for Inactive)
REMARK    1  A    between atoms: CA_9  and  C_19
REMARK    2  A    between atoms: C_19  and  O_20
REMARK                            x       y       z     vdW  Elec       q    Type
REMARK                         _______ _______ _______ _____ _____    ______ ____
ROOT
ATOM      1  O   UNL     1     -35.412  26.132   5.740  0.00  0.00    -0.267 OA
ATOM      2  N   UNL     1     -37.057  26.330   4.125  0.00  0.00    -0.251 N 
ATOM      3  N   UNL     1     -37.071  23.528   4.008  0.00  0.00    -0.391 NA
ATOM      4  N   UNL     1     -38.743  26.441   2.466  0.00  0.00    -0.310 NA
ATOM      5  N   UNL     1     -39.632  24.415   1.517  0.00  0.00    -0.311 NA
ATOM      6  N   UNL     1     -40.415  26.513   0.822  0.00  0.00    -0.283 N 
ATOM      7  C   UNL     1     -37.914  24.305   3.205  0.00  0.00    +0.220 C 
ATOM      8  C   UNL     1     -37.932  25.689   3.239  0.00  0.00    +0.233 C 
ATOM      9  CA  UNL     1     -36.265  24.129   4.824  0.00  0.00    +0.192 C 
ATOM     10  C   UNL     1     -36.198  25.636   4.946  0.00  0.00    +0.279 C 
ATOM     11  C   UNL     1     -38.796  23.719   2.315  0.00  0.00    +0.224 C 
ATOM     12  C   UNL     1     -39.554  25.752   1.642  0.00  0.00    +0.199 C 
ATOM     13  H   UNL     1     -37.055  27.314   4.162  0.00  0.00    +0.158 HD
ATOM     14  H   UNL     1     -40.401  27.496   0.872  0.00  0.00    +0.156 HD
ATOM     15  H   UNL     1     -41.031  26.062   0.200  0.00  0.00    +0.156 HD
ATOM     16  N   UNL     1     -38.828  22.304   2.232  0.00  0.00    -0.330 N 
ATOM     17  H   UNL     1     -39.446  21.862   1.606  0.00  0.00    +0.145 HD
ATOM     18  H   UNL     1     -38.232  21.764   2.800  0.00  0.00    +0.145 HD
ENDROOT
BRANCH   9  19
ATOM     19  C   UNL     1     -35.348  23.330   5.704  0.00  0.00    +0.201 C 
BRANCH  19  20
ATOM     20  O   UNL     1     -36.076  22.205   6.138  0.00  0.00    -0.375 OA
ATOM     21  H   UNL     1     -36.785  22.012   5.503  0.00  0.00    +0.211 HD
ENDBRANCH  19  20
ENDBRANCH   9  19
TORSDOF 2
ENDMDL
MODEL 4
REMARK VINA RESULT:      -5.4      2.835      4.497
REMARK  Name = 5486846
REMARK  2 active torsions:
REMARK  status: ('A' for Active; 'I' for Inactive)
REMARK    1  A    between atoms: CA_9  and  C_19
REMARK    2  A    between atoms: C_19  and  O_20
REMARK                            x       y       z     vdW  Elec       q    Type
REMARK                         _______ _______ _______ _____ _____    ______ ____
ROOT
ATOM      1  O   UNL     1     -33.026  28.006   4.769  0.00  0.00    -0.267 OA
ATOM      2  N   UNL     1     -33.913  25.929   5.273  0.00  0.00    -0.251 N 
ATOM      3  N   UNL     1     -35.647  26.309   3.102  0.00  0.00    -0.391 NA
ATOM      4  N   UNL     1     -34.878  23.812   5.717  0.00  0.00    -0.310 NA
ATOM      5  N   UNL     1     -36.670  22.993   4.333  0.00  0.00    -0.311 NA
ATOM      6  N   UNL     1     -35.857  21.720   6.127  0.00  0.00    -0.283 N 
ATOM      7  C   UNL     1     -35.686  25.148   3.884  0.00  0.00    +0.220 C 
ATOM      8  C   UNL     1     -34.844  24.930   4.961  0.00  0.00    +0.233 C 
ATOM      9  CA  UNL     1     -34.784  27.227   3.398  0.00  0.00    +0.192 C 
ATOM     10  C   UNL     1     -33.814  27.097   4.552  0.00  0.00    +0.279 C 
ATOM     11  C   UNL     1     -36.587  24.133   3.616  0.00  0.00    +0.224 C 
ATOM     12  C   UNL     1     -35.799  22.900   5.355  0.00  0.00    +0.199 C 
ATOM     13  H   UNL     1     -33.306  25.791   6.036  0.00  0.00    +0.158 HD
ATOM     14  H   UNL     1     -35.243  21.599   6.887  0.00  0.00    +0.156 HD
ATOM     15  H   UNL     1     -36.511  21.018   5.907  0.00  0.00    +0.156 HD
ATOM     16  N   UNL     1     -37.478  24.294   2.525  0.00  0.00    -0.330 N 
ATOM     17  H   UNL     1     -38.129  23.587   2.314  0.00  0.00    +0.145 HD
ATOM     18  H   UNL     1     -37.445  25.113   1.980  0.00  0.00    +0.145 HD
ENDROOT
BRANCH   9  19
ATOM     19  C   UNL     1     -34.710  28.484   2.580  0.00  0.00    +0.201 C 
BRANCH  19  20
ATOM     20  O   UNL     1     -35.226  29.522   3.379  0.00  0.00    -0.375 OA
ATOM     21  H   UNL     1     -35.892  30.018   2.876  0.00  0.00    +0.211 HD
ENDBRANCH  19  20
ENDBRANCH   9  19
TORSDOF 2
ENDMDL
MODEL 5
REMARK VINA RESULT:      -5.4      2.923      3.537
REMARK  Name = 5486846
REMARK  2 active torsions:
REMARK  status: ('A' for Active; 'I' for Inactive)
REMARK    1  A    between atoms: CA_9  and  C_19
REMARK    2  A    between atoms: C_19  and  O_20
REMARK                            x       y       z     vdW  Elec       q    Type
REMARK                         _______ _______ _______ _____ _____    ______ ____
ROOT
ATOM      1  O   UNL     1     -36.826  21.872   0.102  0.00  0.00    -0.267 OA
ATOM      2  N   UNL     1     -36.711  23.372   1.861  0.00  0.00    -0.251 N 
ATOM      3  N   UNL     1     -35.529  21.308   3.348  0.00  0.00    -0.391 NA
ATOM      4  N   UNL     1     -36.553  24.841   3.712  0.00  0.00    -0.310 NA
ATOM      5  N   UNL     1     -35.592  24.070   5.781  0.00  0.00    -0.311 NA
ATOM      6  N   UNL     1     -36.379  26.268   5.565  0.00  0.00    -0.283 N 
ATOM      7  C   UNL     1     -35.754  22.577   3.895  0.00  0.00    +0.220 C 
ATOM      8  C   UNL     1     -36.334  23.616   3.188  0.00  0.00    +0.233 C 
ATOM      9  CA  UNL     1     -35.880  21.091   2.121  0.00  0.00    +0.192 C 
ATOM     10  C   UNL     1     -36.522  22.152   1.254  0.00  0.00    +0.279 C 
ATOM     11  C   UNL     1     -35.400  22.867   5.200  0.00  0.00    +0.224 C 
ATOM     12  C   UNL     1     -36.165  24.997   4.991  0.00  0.00    +0.199 C 
ATOM     13  H   UNL     1     -37.125  24.099   1.344  0.00  0.00    +0.158 HD
ATOM     14  H   UNL     1     -36.796  26.985   5.034  0.00  0.00    +0.156 HD
ATOM     15  H   UNL     1     -36.114  26.440   6.498  0.00  0.00    +0.156 HD
ATOM     16  N   UNL     1     -34.801  21.846   5.979  0.00  0.00    -0.330 N 
ATOM     17  H   UNL     1     -34.540  22.026   6.911  0.00  0.00    +0.145 HD
ATOM     18  H   UNL     1     -34.646  20.956   5.587  0.00  0.00    +0.145 HD
ENDROOT
BRANCH   9  19
ATOM     19  C   UNL     1     -35.651  19.744   1.498  0.00  0.00    +0.201 C 
BRANCH  19  20
ATOM     20  O   UNL     1     -36.915  19.141   1.353  0.00  0.00    -0.375 OA
ATOM     21  H   UNL     1     -37.511  19.463   2.048  0.00  0.00    +0.211 HD
ENDBRANCH  19  20
ENDBRANCH   9  19
TORSDOF 2
ENDMDL
MODEL 6
REMARK VINA RESULT:      -5.4      2.165      3.390
REMARK  Name = 5486846
REMARK  2 active torsions:
REMARK  status: ('A' for Active; 'I' for Inactive)
REMARK    1  A    between atoms: CA_9  and  C_19
REMARK    2  A    between atoms: C_19  and  O_20
REMARK                            x       y       z     vdW  Elec       q    Type
REMARK                         _______ _______ _______ _____ _____    ______ ____
ROOT
ATOM      1  O   UNL     1     -35.729  20.522   3.182  0.00  0.00    -0.267 OA
ATOM      2  N   UNL     1     -35.044  22.459   4.247  0.00  0.00    -0.251 N 
ATOM      3  N   UNL     1     -36.986  23.800   2.733  0.00  0.00    -0.391 NA
ATOM      4  N   UNL     1     -34.407  24.488   5.289  0.00  0.00    -0.310 NA
ATOM      5  N   UNL     1     -35.521  26.541   4.705  0.00  0.00    -0.311 NA
ATOM      6  N   UNL     1     -33.803  26.516   6.302  0.00  0.00    -0.283 N 
ATOM      7  C   UNL     1     -36.167  24.474   3.645  0.00  0.00    +0.220 C 
ATOM      8  C   UNL     1     -35.200  23.842   4.408  0.00  0.00    +0.233 C 
ATOM      9  CA  UNL     1     -36.836  22.522   2.590  0.00  0.00    +0.192 C 
ATOM     10  C   UNL     1     -35.812  21.727   3.370  0.00  0.00    +0.279 C 
ATOM     11  C   UNL     1     -36.281  25.839   3.840  0.00  0.00    +0.224 C 
ATOM     12  C   UNL     1     -34.616  25.814   5.386  0.00  0.00    +0.199 C 
ATOM     13  H   UNL     1     -34.361  21.993   4.780  0.00  0.00    +0.158 HD
ATOM     14  H   UNL     1     -33.124  26.034   6.827  0.00  0.00    +0.156 HD
ATOM     15  H   UNL     1     -33.913  27.488   6.415  0.00  0.00    +0.156 HD
ATOM     16  N   UNL     1     -37.254  26.547   3.090  0.00  0.00    -0.330 N 
ATOM     17  H   UNL     1     -37.356  27.519   3.209  0.00  0.00    +0.145 HD
ATOM     18  H   UNL     1     -37.827  26.066   2.450  0.00  0.00    +0.145 HD
ENDROOT
BRANCH   9  19
ATOM     19  C   UNL     1     -37.699  21.765   1.623  0.00  0.00    +0.201 C 
BRANCH  19  20
ATOM     20  O   UNL     1     -38.547  20.942   2.390  0.00  0.00    -0.375 OA
ATOM     21  H   UNL     1     -38.964  20.280   1.816  0.00  0.00    +0.211 HD
ENDBRANCH  19  20
ENDBRANCH   9  19
TORSDOF 2
ENDMDL
MODEL 7
REMARK VINA RESULT:      -5.1      2.818      5.515
REMARK  Name = 5486846
REMARK  2 active torsions:
REMARK  status: ('A' for Active; 'I' for Inactive)
REMARK    1  A    between atoms: CA_9  and  C_19
REMARK    2  A    between atoms: C_19  and  O_20
REMARK                            x       y       z     vdW  Elec       q    Type
REMARK                         _______ _______ _______ _____ _____    ______ ____
ROOT
ATOM      1  O   UNL     1     -34.884  23.213   4.874  0.00  0.00    -0.267 OA
ATOM      2  N   UNL     1     -36.649  22.532   3.541  0.00  0.00    -0.251 N 
ATOM      3  N   UNL     1     -37.784  25.052   4.016  0.00  0.00    -0.391 NA
ATOM      4  N   UNL     1     -38.494  21.918   2.189  0.00  0.00    -0.310 NA
ATOM      5  N   UNL     1     -40.299  23.473   1.839  0.00  0.00    -0.311 NA
ATOM      6  N   UNL     1     -40.337  21.345   0.856  0.00  0.00    -0.283 N 
ATOM      7  C   UNL     1     -38.419  24.096   3.215  0.00  0.00    +0.220 C 
ATOM      8  C   UNL     1     -37.885  22.843   2.961  0.00  0.00    +0.233 C 
ATOM      9  CA  UNL     1     -36.642  24.756   4.548  0.00  0.00    +0.192 C 
ATOM     10  C   UNL     1     -35.964  23.419   4.339  0.00  0.00    +0.279 C 
ATOM     11  C   UNL     1     -39.641  24.355   2.621  0.00  0.00    +0.224 C 
ATOM     12  C   UNL     1     -39.678  22.292   1.669  0.00  0.00    +0.199 C 
ATOM     13  H   UNL     1     -36.255  21.646   3.371  0.00  0.00    +0.158 HD
ATOM     14  H   UNL     1     -39.928  20.463   0.696  0.00  0.00    +0.156 HD
ATOM     15  H   UNL     1     -41.206  21.564   0.448  0.00  0.00    +0.156 HD
ATOM     16  N   UNL     1     -40.242  25.619   2.841  0.00  0.00    -0.330 N 
ATOM     17  H   UNL     1     -41.111  25.829   2.430  0.00  0.00    +0.145 HD
ATOM     18  H   UNL     1     -39.790  26.287   3.405  0.00  0.00    +0.145 HD
ENDROOT
BRANCH   9  19
ATOM     19  C   UNL     1     -35.929  25.757   5.410  0.00  0.00    +0.201 C 
BRANCH  19  20
ATOM     20  O   UNL     1     -35.902  26.968   4.692  0.00  0.00    -0.375 OA
ATOM     21  H   UNL     1     -35.347  27.612   5.162  0.00  0.00    +0.211 HD
ENDBRANCH  19  20
ENDBRANCH   9  19
TORSDOF 2
ENDMDL
MODEL 8
REMARK VINA RESULT:      -5.1      2.350      3.844
REMARK  Name = 5486846
REMARK  2 active torsions:
REMARK  status: ('A' for Active; 'I' for Inactive)
REMARK    1  A    between atoms: CA_9  and  C_19
REMARK    2  A    between atoms: C_19  and  O_20
REMARK                            x       y       z     vdW  Elec       q    Type
REMARK                         _______ _______ _______ _____ _____    ______ ____
ROOT
ATOM      1  O   UNL     1     -36.307  23.274   5.387  0.00  0.00    -0.267 OA
ATOM      2  N   UNL     1     -34.722  24.891   5.866  0.00  0.00    -0.251 N 
ATOM      3  N   UNL     1     -35.388  26.059   3.404  0.00  0.00    -0.391 NA
ATOM      4  N   UNL     1     -33.120  26.586   6.275  0.00  0.00    -0.310 NA
ATOM      5  N   UNL     1     -32.782  28.338   4.658  0.00  0.00    -0.311 NA
ATOM      6  N   UNL     1     -31.544  28.283   6.648  0.00  0.00    -0.283 N 
ATOM      7  C   UNL     1     -34.412  26.610   4.243  0.00  0.00    +0.220 C 
ATOM      8  C   UNL     1     -34.061  26.058   5.464  0.00  0.00    +0.233 C 
ATOM      9  CA  UNL     1     -35.994  24.979   3.784  0.00  0.00    +0.192 C 
ATOM     10  C   UNL     1     -35.692  24.290   5.096  0.00  0.00    +0.279 C 
ATOM     11  C   UNL     1     -33.731  27.761   3.891  0.00  0.00    +0.224 C 
ATOM     12  C   UNL     1     -32.530  27.707   5.820  0.00  0.00    +0.199 C 
ATOM     13  H   UNL     1     -34.485  24.484   6.730  0.00  0.00    +0.158 HD
ATOM     14  H   UNL     1     -31.318  27.863   7.510  0.00  0.00    +0.156 HD
ATOM     15  H   UNL     1     -31.080  29.104   6.366  0.00  0.00    +0.156 HD
ATOM     16  N   UNL     1     -34.044  28.377   2.653  0.00  0.00    -0.330 N 
ATOM     17  H   UNL     1     -33.574  29.197   2.378  0.00  0.00    +0.145 HD
ATOM     18  H   UNL     1     -34.731  27.983   2.068  0.00  0.00    +0.145 HD
ENDROOT
BRANCH   9  19
ATOM     19  C   UNL     1     -37.049  24.361   2.912  0.00  0.00    +0.201 C 
BRANCH  19  20
ATOM     20  O   UNL     1     -38.239  24.338   3.665  0.00  0.00    -0.375 OA
ATOM     21  H   UNL     1     -39.002  24.369   3.067  0.00  0.00    +0.211 HD
ENDBRANCH  19  20
ENDBRANCH   9  19
TORSDOF 2
ENDMDL
MODEL 9
REMARK VINA RESULT:      -5.0      1.694      1.975
REMARK  Name = 5486846
REMARK  2 active torsions:
REMARK  status: ('A' for Active; 'I' for Inactive)
REMARK    1  A    between atoms: CA_9  and  C_19
REMARK    2  A    between atoms: C_19  and  O_20
REMARK                            x       y       z     vdW  Elec       q    Type
REMARK                         _______ _______ _______ _____ _____    ______ ____
ROOT
ATOM      1  O   UNL     1     -40.399  24.580   1.812  0.00  0.00    -0.267 OA
ATOM      2  N   UNL     1     -38.561  25.030   3.144  0.00  0.00    -0.251 N 
ATOM      3  N   UNL     1     -37.807  22.358   2.747  0.00  0.00    -0.391 NA
ATOM      4  N   UNL     1     -36.652  25.403   4.495  0.00  0.00    -0.310 NA
ATOM      5  N   UNL     1     -35.097  23.609   4.902  0.00  0.00    -0.311 NA
ATOM      6  N   UNL     1     -34.750  25.736   5.827  0.00  0.00    -0.283 N 
ATOM      7  C   UNL     1     -37.042  23.232   3.527  0.00  0.00    +0.220 C 
ATOM      8  C   UNL     1     -37.387  24.556   3.743  0.00  0.00    +0.233 C 
ATOM      9  CA  UNL     1     -38.891  22.804   2.197  0.00  0.00    +0.192 C 
ATOM     10  C   UNL     1     -39.365  24.232   2.363  0.00  0.00    +0.279 C 
ATOM     11  C   UNL     1     -35.875  22.812   4.139  0.00  0.00    +0.224 C 
ATOM     12  C   UNL     1     -35.539  24.873   5.036  0.00  0.00    +0.199 C 
ATOM     13  H   UNL     1     -38.821  25.968   3.287  0.00  0.00    +0.158 HD
ATOM     14  H   UNL     1     -35.025  26.672   5.959  0.00  0.00    +0.156 HD
ATOM     15  H   UNL     1     -33.924  25.402   6.247  0.00  0.00    +0.156 HD
ATOM     16  N   UNL     1     -35.466  21.467   3.958  0.00  0.00    -0.330 N 
ATOM     17  H   UNL     1     -34.639  21.143   4.383  0.00  0.00    +0.145 HD
ATOM     18  H   UNL     1     -36.009  20.858   3.408  0.00  0.00    +0.145 HD
ENDROOT
BRANCH   9  19
ATOM     19  C   UNL     1     -39.735  21.897   1.350  0.00  0.00    +0.201 C 
BRANCH  19  20
ATOM     20  O   UNL     1     -40.366  20.990   2.223  0.00  0.00    -0.375 OA
ATOM     21  H   UNL     1     -39.808  20.853   3.006  0.00  0.00    +0.211 HD
ENDBRANCH  19  20
ENDBRANCH   9  19
TORSDOF 2
ENDMDL
