MODEL 1
REMARK VINA RESULT:      -7.1      0.000      0.000
REMARK  Name = 5458457
REMARK  7 active torsions:
REMARK  status: ('A' for Active; 'I' for Inactive)
REMARK    1  A    between atoms: C_9  and  O_25
REMARK    2  A    between atoms: C_14  and  O_27
REMARK    3  A    between atoms: C_16  and  O_31
REMARK    4  A    between atoms: C_17  and  O_29
REMARK    5  A    between atoms: O_31  and  C_33
REMARK    6  A    between atoms: C_33  and  C_34
REMARK    7  A    between atoms: C_34  and  C_36
REMARK                            x       y       z     vdW  Elec       q    Type
REMARK                         _______ _______ _______ _____ _____    ______ ____
ROOT
ATOM      1  O   UNL     1     -36.499  23.278   4.462  0.00  0.00    -0.332 OA
ATOM      2  O   UNL     1     -33.610  25.179   1.041  0.00  0.00    -0.450 OA
ATOM      3  O   UNL     1     -32.243  26.941   1.246  0.00  0.00    -0.246 OA
ATOM      4  O   UNL     1     -40.207  25.881  -0.193  0.00  0.00    -0.289 OA
ATOM      5  C   UNL     1     -34.968  24.264   2.922  0.00  0.00    +0.073 C 
ATOM      6  C   UNL     1     -36.342  24.978   2.811  0.00  0.00    +0.063 C 
ATOM      7  C   UNL     1     -37.257  24.568   1.564  0.00  0.00    +0.040 C 
ATOM      8  C   UNL     1     -33.988  25.060   3.856  0.00  0.00    +0.060 C 
ATOM      9  C   UNL     1     -36.843  24.664   4.242  0.00  0.00    +0.209 C 
ATOM     10  C   UNL     1     -34.254  24.004   1.601  0.00  0.00    +0.172 C 
ATOM     11  C   UNL     1     -36.350  24.475   0.280  0.00  0.00    +0.025 C 
ATOM     12  C   UNL     1     -34.574  25.230   5.299  0.00  0.00    +0.036 C 
ATOM     13  C   UNL     1     -35.364  22.961   3.636  0.00  0.00    +0.148 C 
ATOM     14  C   UNL     1     -36.087  25.522   5.286  0.00  0.00    +0.161 C 
ATOM     15  C   UNL     1     -35.183  23.492   0.497  0.00  0.00    +0.048 C 
ATOM     16  C   UNL     1     -33.544  26.355   3.173  0.00  0.00    +0.266 C 
ATOM     17  C   UNL     1     -38.273  25.719   1.246  0.00  0.00    +0.172 C 
ATOM     18  C   UNL     1     -38.039  23.242   1.790  0.00  0.00    +0.003 C 
ATOM     19  C   UNL     1     -37.149  24.261  -1.002  0.00  0.00    -0.041 C 
ATOM     20  C   UNL     1     -33.820  26.197   6.213  0.00  0.00    +0.003 C 
ATOM     21  C   UNL     1     -33.053  26.171   1.760  0.00  0.00    +0.358 C 
ATOM     22  C   UNL     1     -39.058  25.471  -0.035  0.00  0.00    +0.199 C 
ATOM     23  C   UNL     1     -38.398  24.736  -1.139  0.00  0.00    +0.031 C 
ATOM     24  C   UNL     1     -36.494  23.571  -2.167  0.00  0.00    +0.026 C 
ENDROOT
BRANCH   9  25
ATOM     25  O   UNL     1     -38.233  24.875   4.408  0.00  0.00    -0.362 OA
ATOM     26  H   UNL     1     -38.510  24.543   5.277  0.00  0.00    +0.213 HD
ENDBRANCH   9  25
BRANCH  14  27
ATOM     27  O   UNL     1     -36.322  26.906   5.033  0.00  0.00    -0.380 OA
ATOM     28  H   UNL     1     -36.906  27.264   5.720  0.00  0.00    +0.211 HD
ENDBRANCH  14  27
BRANCH  17  29
ATOM     29  O   UNL     1     -39.210  25.969   2.275  0.00  0.00    -0.377 OA
ATOM     30  H   UNL     1     -39.853  25.244   2.312  0.00  0.00    +0.211 HD
ENDBRANCH  17  29
BRANCH  16  31
ATOM     31  O   UNL     1     -32.431  26.919   3.863  0.00  0.00    -0.441 OA
BRANCH  31  33
ATOM     32  O   UNL     1     -33.504  28.958   3.979  0.00  0.00    -0.250 OA
ATOM     33  C   UNL     1     -32.507  28.262   4.116  0.00  0.00    +0.317 C 
BRANCH  33  34
ATOM     34  C   UNL     1     -31.151  28.777   4.569  0.00  0.00    +0.099 C 
ATOM     35  C   UNL     1     -30.075  28.113   3.712  0.00  0.00    +0.012 C 
BRANCH  34  36
ATOM     36  C   UNL     1     -30.912  28.496   6.060  0.00  0.00    +0.011 C 
ATOM     37  C   UNL     1     -31.634  29.488   6.963  0.00  0.00    +0.001 C 
ENDBRANCH  34  36
ENDBRANCH  33  34
ENDBRANCH  31  33
ENDBRANCH  16  31
TORSDOF 7
ENDMDL
MODEL 2
REMARK VINA RESULT:      -6.7      3.775      7.137
REMARK  Name = 5458457
REMARK  7 active torsions:
REMARK  status: ('A' for Active; 'I' for Inactive)
REMARK    1  A    between atoms: C_9  and  O_25
REMARK    2  A    between atoms: C_14  and  O_27
REMARK    3  A    between atoms: C_16  and  O_31
REMARK    4  A    between atoms: C_17  and  O_29
REMARK    5  A    between atoms: O_31  and  C_33
REMARK    6  A    between atoms: C_33  and  C_34
REMARK    7  A    between atoms: C_34  and  C_36
REMARK                            x       y       z     vdW  Elec       q    Type
REMARK                         _______ _______ _______ _____ _____    ______ ____
ROOT
ATOM      1  O   UNL     1     -37.566  21.190   0.765  0.00  0.00    -0.332 OA
ATOM      2  O   UNL     1     -33.431  23.699   0.243  0.00  0.00    -0.450 OA
ATOM      3  O   UNL     1     -31.510  22.976  -0.651  0.00  0.00    -0.246 OA
ATOM      4  O   UNL     1     -35.113  22.420   6.652  0.00  0.00    -0.289 OA
ATOM      5  C   UNL     1     -35.503  22.315   0.360  0.00  0.00    +0.073 C 
ATOM      6  C   UNL     1     -35.449  21.627   1.750  0.00  0.00    +0.063 C 
ATOM      7  C   UNL     1     -35.661  22.576   3.021  0.00  0.00    +0.040 C 
ATOM      8  C   UNL     1     -34.823  21.424  -0.742  0.00  0.00    +0.060 C 
ATOM      9  C   UNL     1     -36.493  20.519   1.461  0.00  0.00    +0.209 C 
ATOM     10  C   UNL     1     -34.883  23.706   0.290  0.00  0.00    +0.172 C 
ATOM     11  C   UNL     1     -34.840  23.902   2.804  0.00  0.00    +0.025 C 
ATOM     12  C   UNL     1     -35.513  20.023  -0.858  0.00  0.00    +0.036 C 
ATOM     13  C   UNL     1     -37.018  22.339   0.094  0.00  0.00    +0.148 C 
ATOM     14  C   UNL     1     -35.901  19.445   0.517  0.00  0.00    +0.161 C 
ATOM     15  C   UNL     1     -35.241  24.592   1.486  0.00  0.00    +0.048 C 
ATOM     16  C   UNL     1     -33.308  21.394  -0.534  0.00  0.00    +0.266 C 
ATOM     17  C   UNL     1     -35.019  21.918   4.291  0.00  0.00    +0.172 C 
ATOM     18  C   UNL     1     -37.158  22.889   3.307  0.00  0.00    +0.003 C 
ATOM     19  C   UNL     1     -34.829  24.806   4.033  0.00  0.00    -0.041 C 
ATOM     20  C   UNL     1     -34.781  18.991  -1.718  0.00  0.00    +0.003 C 
ATOM     21  C   UNL     1     -32.682  22.753  -0.352  0.00  0.00    +0.358 C 
ATOM     22  C   UNL     1     -35.031  22.844   5.500  0.00  0.00    +0.199 C 
ATOM     23  C   UNL     1     -34.908  24.303   5.276  0.00  0.00    +0.031 C 
ATOM     24  C   UNL     1     -34.646  26.287   3.851  0.00  0.00    +0.026 C 
ENDROOT
BRANCH   9  25
ATOM     25  O   UNL     1     -36.967  19.878   2.630  0.00  0.00    -0.362 OA
ATOM     26  H   UNL     1     -37.926  19.745   2.560  0.00  0.00    +0.213 HD
ENDBRANCH   9  25
BRANCH  14  27
ATOM     27  O   UNL     1     -34.770  18.832   1.132  0.00  0.00    -0.380 OA
ATOM     28  H   UNL     1     -34.765  17.884   0.926  0.00  0.00    +0.211 HD
ENDBRANCH  14  27
BRANCH  17  29
ATOM     29  O   UNL     1     -35.622  20.701   4.684  0.00  0.00    -0.377 OA
ATOM     30  H   UNL     1     -34.968  20.144   5.133  0.00  0.00    +0.211 HD
ENDBRANCH  17  29
BRANCH  16  31
ATOM     31  O   UNL     1     -32.664  20.860  -1.689  0.00  0.00    -0.441 OA
BRANCH  31  33
ATOM     32  O   UNL     1     -31.753  18.818  -2.255  0.00  0.00    -0.250 OA
ATOM     33  C   UNL     1     -31.889  19.752  -1.477  0.00  0.00    +0.317 C 
BRANCH  33  34
ATOM     34  C   UNL     1     -31.237  19.836  -0.107  0.00  0.00    +0.099 C 
ATOM     35  C   UNL     1     -29.737  20.046  -0.301  0.00  0.00    +0.012 C 
BRANCH  34  36
ATOM     36  C   UNL     1     -31.509  18.573   0.724  0.00  0.00    +0.011 C 
ATOM     37  C   UNL     1     -30.284  17.675   0.837  0.00  0.00    +0.001 C 
ENDBRANCH  34  36
ENDBRANCH  33  34
ENDBRANCH  31  33
ENDBRANCH  16  31
TORSDOF 7
ENDMDL
MODEL 3
REMARK VINA RESULT:      -6.6      3.855      7.316
REMARK  Name = 5458457
REMARK  7 active torsions:
REMARK  status: ('A' for Active; 'I' for Inactive)
REMARK    1  A    between atoms: C_9  and  O_25
REMARK    2  A    between atoms: C_14  and  O_27
REMARK    3  A    between atoms: C_16  and  O_31
REMARK    4  A    between atoms: C_17  and  O_29
REMARK    5  A    between atoms: O_31  and  C_33
REMARK    6  A    between atoms: C_33  and  C_34
REMARK    7  A    between atoms: C_34  and  C_36
REMARK                            x       y       z     vdW  Elec       q    Type
REMARK                         _______ _______ _______ _____ _____    ______ ____
ROOT
ATOM      1  O   UNL     1     -37.418  21.046   0.702  0.00  0.00    -0.332 OA
ATOM      2  O   UNL     1     -33.455  23.843   0.342  0.00  0.00    -0.450 OA
ATOM      3  O   UNL     1     -31.449  23.256  -0.464  0.00  0.00    -0.246 OA
ATOM      4  O   UNL     1     -35.316  22.468   6.681  0.00  0.00    -0.289 OA
ATOM      5  C   UNL     1     -35.425  22.314   0.378  0.00  0.00    +0.073 C 
ATOM      6  C   UNL     1     -35.383  21.636   1.774  0.00  0.00    +0.063 C 
ATOM      7  C   UNL     1     -35.716  22.572   3.028  0.00  0.00    +0.040 C 
ATOM      8  C   UNL     1     -34.637  21.471  -0.687  0.00  0.00    +0.060 C 
ATOM      9  C   UNL     1     -36.331  20.456   1.448  0.00  0.00    +0.209 C 
ATOM     10  C   UNL     1     -34.904  23.746   0.327  0.00  0.00    +0.172 C 
ATOM     11  C   UNL     1     -34.983  23.952   2.839  0.00  0.00    +0.025 C 
ATOM     12  C   UNL     1     -35.219  20.023  -0.824  0.00  0.00    +0.036 C 
ATOM     13  C   UNL     1     -36.925  22.229   0.048  0.00  0.00    +0.148 C 
ATOM     14  C   UNL     1     -35.624  19.424   0.536  0.00  0.00    +0.161 C 
ATOM     15  C   UNL     1     -35.375  24.608   1.501  0.00  0.00    +0.048 C 
ATOM     16  C   UNL     1     -33.133  21.550  -0.414  0.00  0.00    +0.266 C 
ATOM     17  C   UNL     1     -35.085  21.965   4.329  0.00  0.00    +0.172 C 
ATOM     18  C   UNL     1     -37.243  22.778   3.248  0.00  0.00    +0.003 C 
ATOM     19  C   UNL     1     -35.091  24.859   4.062  0.00  0.00    -0.041 C 
ATOM     20  C   UNL     1     -34.378  19.044  -1.645  0.00  0.00    +0.003 C 
ATOM     21  C   UNL     1     -32.615  22.951  -0.214  0.00  0.00    +0.358 C 
ATOM     22  C   UNL     1     -35.215  22.892   5.531  0.00  0.00    +0.199 C 
ATOM     23  C   UNL     1     -35.187  24.355   5.303  0.00  0.00    +0.031 C 
ATOM     24  C   UNL     1     -35.007  26.349   3.878  0.00  0.00    +0.026 C 
ENDROOT
BRANCH   9  25
ATOM     25  O   UNL     1     -36.809  19.786   2.600  0.00  0.00    -0.362 OA
ATOM     26  H   UNL     1     -37.718  20.068   2.784  0.00  0.00    +0.213 HD
ENDBRANCH   9  25
BRANCH  14  27
ATOM     27  O   UNL     1     -34.479  18.895   1.204  0.00  0.00    -0.380 OA
ATOM     28  H   UNL     1     -34.248  19.469   1.951  0.00  0.00    +0.211 HD
ENDBRANCH  14  27
BRANCH  17  29
ATOM     29  O   UNL     1     -35.616  20.710   4.704  0.00  0.00    -0.377 OA
ATOM     30  H   UNL     1     -35.271  20.458   5.574  0.00  0.00    +0.211 HD
ENDBRANCH  17  29
BRANCH  16  31
ATOM     31  O   UNL     1     -32.403  21.060  -1.537  0.00  0.00    -0.441 OA
BRANCH  31  33
ATOM     32  O   UNL     1     -31.092  19.748  -0.165  0.00  0.00    -0.250 OA
ATOM     33  C   UNL     1     -31.319  20.278  -1.244  0.00  0.00    +0.317 C 
BRANCH  33  34
ATOM     34  C   UNL     1     -30.410  20.186  -2.458  0.00  0.00    +0.099 C 
ATOM     35  C   UNL     1     -31.140  20.795  -3.652  0.00  0.00    +0.012 C 
BRANCH  34  36
ATOM     36  C   UNL     1     -30.005  18.733  -2.749  0.00  0.00    +0.011 C 
ATOM     37  C   UNL     1     -31.177  17.886  -3.227  0.00  0.00    +0.001 C 
ENDBRANCH  34  36
ENDBRANCH  33  34
ENDBRANCH  31  33
ENDBRANCH  16  31
TORSDOF 7
ENDMDL
MODEL 4
REMARK VINA RESULT:      -6.5      2.085      4.433
REMARK  Name = 5458457
REMARK  7 active torsions:
REMARK  status: ('A' for Active; 'I' for Inactive)
REMARK    1  A    between atoms: C_9  and  O_25
REMARK    2  A    between atoms: C_14  and  O_27
REMARK    3  A    between atoms: C_16  and  O_31
REMARK    4  A    between atoms: C_17  and  O_29
REMARK    5  A    between atoms: O_31  and  C_33
REMARK    6  A    between atoms: C_33  and  C_34
REMARK    7  A    between atoms: C_34  and  C_36
REMARK                            x       y       z     vdW  Elec       q    Type
REMARK                         _______ _______ _______ _____ _____    ______ ____
ROOT
ATOM      1  O   UNL     1     -37.948  25.887   1.748  0.00  0.00    -0.332 OA
ATOM      2  O   UNL     1     -34.473  26.072   5.147  0.00  0.00    -0.450 OA
ATOM      3  O   UNL     1     -32.614  27.322   5.120  0.00  0.00    -0.246 OA
ATOM      4  O   UNL     1     -34.873  20.168   1.906  0.00  0.00    -0.289 OA
ATOM      5  C   UNL     1     -36.213  26.154   3.363  0.00  0.00    +0.073 C 
ATOM      6  C   UNL     1     -35.819  25.033   2.365  0.00  0.00    +0.063 C 
ATOM      7  C   UNL     1     -35.999  23.529   2.879  0.00  0.00    +0.040 C 
ATOM      8  C   UNL     1     -35.562  27.527   2.961  0.00  0.00    +0.060 C 
ATOM      9  C   UNL     1     -36.675  25.523   1.170  0.00  0.00    +0.209 C 
ATOM     10  C   UNL     1     -35.876  25.883   4.824  0.00  0.00    +0.172 C 
ATOM     11  C   UNL     1     -35.478  23.435   4.362  0.00  0.00    +0.025 C 
ATOM     12  C   UNL     1     -35.995  27.972   1.522  0.00  0.00    +0.036 C 
ATOM     13  C   UNL     1     -37.729  26.250   3.123  0.00  0.00    +0.148 C 
ATOM     14  C   UNL     1     -36.052  26.789   0.536  0.00  0.00    +0.161 C 
ATOM     15  C   UNL     1     -36.198  24.453   5.267  0.00  0.00    +0.048 C 
ATOM     16  C   UNL     1     -34.053  27.487   3.209  0.00  0.00    +0.266 C 
ATOM     17  C   UNL     1     -35.059  22.571   2.070  0.00  0.00    +0.172 C 
ATOM     18  C   UNL     1     -37.466  23.017   2.772  0.00  0.00    +0.003 C 
ATOM     19  C   UNL     1     -35.441  22.005   4.894  0.00  0.00    -0.041 C 
ATOM     20  C   UNL     1     -35.229  29.160   0.936  0.00  0.00    +0.003 C 
ATOM     21  C   UNL     1     -33.665  26.986   4.576  0.00  0.00    +0.358 C 
ATOM     22  C   UNL     1     -35.051  21.152   2.623  0.00  0.00    +0.199 C 
ATOM     23  C   UNL     1     -35.233  20.958   4.080  0.00  0.00    +0.031 C 
ATOM     24  C   UNL     1     -35.562  21.772   6.375  0.00  0.00    +0.026 C 
ENDROOT
BRANCH   9  25
ATOM     25  O   UNL     1     -36.837  24.546   0.159  0.00  0.00    -0.362 OA
ATOM     26  H   UNL     1     -37.748  24.213   0.173  0.00  0.00    +0.213 HD
ENDBRANCH   9  25
BRANCH  14  27
ATOM     27  O   UNL     1     -34.746  26.491   0.045  0.00  0.00    -0.380 OA
ATOM     28  H   UNL     1     -34.476  25.614   0.361  0.00  0.00    +0.211 HD
ENDBRANCH  14  27
BRANCH  17  29
ATOM     29  O   UNL     1     -35.361  22.486   0.691  0.00  0.00    -0.377 OA
ATOM     30  H   UNL     1     -35.672  21.592   0.481  0.00  0.00    +0.211 HD
ENDBRANCH  17  29
BRANCH  16  31
ATOM     31  O   UNL     1     -33.510  28.804   3.148  0.00  0.00    -0.441 OA
BRANCH  31  33
ATOM     32  O   UNL     1     -31.805  28.156   1.737  0.00  0.00    -0.250 OA
ATOM     33  C   UNL     1     -32.269  28.909   2.582  0.00  0.00    +0.317 C 
BRANCH  33  34
ATOM     34  C   UNL     1     -31.529  30.092   3.184  0.00  0.00    +0.099 C 
ATOM     35  C   UNL     1     -30.239  29.579   3.819  0.00  0.00    +0.012 C 
BRANCH  34  36
ATOM     36  C   UNL     1     -32.393  30.827   4.220  0.00  0.00    +0.011 C 
ATOM     37  C   UNL     1     -31.809  30.750   5.625  0.00  0.00    +0.001 C 
ENDBRANCH  34  36
ENDBRANCH  33  34
ENDBRANCH  31  33
ENDBRANCH  16  31
TORSDOF 7
ENDMDL
MODEL 5
REMARK VINA RESULT:      -6.4      3.794      7.391
REMARK  Name = 5458457
REMARK  7 active torsions:
REMARK  status: ('A' for Active; 'I' for Inactive)
REMARK    1  A    between atoms: C_9  and  O_25
REMARK    2  A    between atoms: C_14  and  O_27
REMARK    3  A    between atoms: C_16  and  O_31
REMARK    4  A    between atoms: C_17  and  O_29
REMARK    5  A    between atoms: O_31  and  C_33
REMARK    6  A    between atoms: C_33  and  C_34
REMARK    7  A    between atoms: C_34  and  C_36
REMARK                            x       y       z     vdW  Elec       q    Type
REMARK                         _______ _______ _______ _____ _____    ______ ____
ROOT
ATOM      1  O   UNL     1     -37.852  22.835   0.875  0.00  0.00    -0.332 OA
ATOM      2  O   UNL     1     -33.071  22.626  -0.001  0.00  0.00    -0.450 OA
ATOM      3  O   UNL     1     -31.800  20.788  -0.158  0.00  0.00    -0.246 OA
ATOM      4  O   UNL     1     -34.686  25.371   5.948  0.00  0.00    -0.289 OA
ATOM      5  C   UNL     1     -35.538  22.567   0.365  0.00  0.00    +0.073 C 
ATOM      6  C   UNL     1     -35.718  22.659   1.904  0.00  0.00    +0.063 C 
ATOM      7  C   UNL     1     -35.357  24.064   2.578  0.00  0.00    +0.040 C 
ATOM      8  C   UNL     1     -35.449  21.071  -0.108  0.00  0.00    +0.060 C 
ATOM      9  C   UNL     1     -37.183  22.156   1.960  0.00  0.00    +0.209 C 
ATOM     10  C   UNL     1     -34.335  23.312  -0.202  0.00  0.00    +0.172 C 
ATOM     11  C   UNL     1     -34.020  24.601   1.943  0.00  0.00    +0.025 C 
ATOM     12  C   UNL     1     -36.732  20.263   0.288  0.00  0.00    +0.036 C 
ATOM     13  C   UNL     1     -36.871  23.151  -0.130  0.00  0.00    +0.148 C 
ATOM     14  C   UNL     1     -37.247  20.633   1.692  0.00  0.00    +0.161 C 
ATOM     15  C   UNL     1     -34.137  24.701   0.410  0.00  0.00    +0.048 C 
ATOM     16  C   UNL     1     -34.122  20.454   0.340  0.00  0.00    +0.266 C 
ATOM     17  C   UNL     1     -35.017  23.857   4.095  0.00  0.00    +0.172 C 
ATOM     18  C   UNL     1     -36.496  25.116   2.448  0.00  0.00    +0.003 C 
ATOM     19  C   UNL     1     -33.489  25.852   2.637  0.00  0.00    -0.041 C 
ATOM     20  C   UNL     1     -36.646  18.747   0.099  0.00  0.00    +0.003 C 
ATOM     21  C   UNL     1     -32.912  21.289   0.010  0.00  0.00    +0.358 C 
ATOM     22  C   UNL     1     -34.496  25.126   4.757  0.00  0.00    +0.199 C 
ATOM     23  C   UNL     1     -33.708  26.078   3.942  0.00  0.00    +0.031 C 
ATOM     24  C   UNL     1     -32.634  26.814   1.858  0.00  0.00    +0.026 C 
ENDROOT
BRANCH   9  25
ATOM     25  O   UNL     1     -37.819  22.423   3.196  0.00  0.00    -0.362 OA
ATOM     26  H   UNL     1     -38.666  21.952   3.233  0.00  0.00    +0.213 HD
ENDBRANCH   9  25
BRANCH  14  27
ATOM     27  O   UNL     1     -36.505  19.935   2.691  0.00  0.00    -0.380 OA
ATOM     28  H   UNL     1     -35.926  20.559   3.157  0.00  0.00    +0.211 HD
ENDBRANCH  14  27
BRANCH  17  29
ATOM     29  O   UNL     1     -36.098  23.385   4.874  0.00  0.00    -0.377 OA
ATOM     30  H   UNL     1     -36.876  23.945   4.724  0.00  0.00    +0.211 HD
ENDBRANCH  17  29
BRANCH  16  31
ATOM     31  O   UNL     1     -33.898  19.222  -0.342  0.00  0.00    -0.441 OA
BRANCH  31  33
ATOM     32  O   UNL     1     -33.148  18.226   1.599  0.00  0.00    -0.250 OA
ATOM     33  C   UNL     1     -33.257  18.252   0.381  0.00  0.00    +0.317 C 
BRANCH  33  34
ATOM     34  C   UNL     1     -32.667  17.217  -0.561  0.00  0.00    +0.099 C 
ATOM     35  C   UNL     1     -33.064  17.584  -1.989  0.00  0.00    +0.012 C 
BRANCH  34  36
ATOM     36  C   UNL     1     -33.145  15.800  -0.209  0.00  0.00    +0.011 C 
ATOM     37  C   UNL     1     -34.661  15.667  -0.260  0.00  0.00    +0.001 C 
ENDBRANCH  34  36
ENDBRANCH  33  34
ENDBRANCH  31  33
ENDBRANCH  16  31
TORSDOF 7
ENDMDL
MODEL 6
REMARK VINA RESULT:      -6.4      2.479      6.467
REMARK  Name = 5458457
REMARK  7 active torsions:
REMARK  status: ('A' for Active; 'I' for Inactive)
REMARK    1  A    between atoms: C_9  and  O_25
REMARK    2  A    between atoms: C_14  and  O_27
REMARK    3  A    between atoms: C_16  and  O_31
REMARK    4  A    between atoms: C_17  and  O_29
REMARK    5  A    between atoms: O_31  and  C_33
REMARK    6  A    between atoms: C_33  and  C_34
REMARK    7  A    between atoms: C_34  and  C_36
REMARK                            x       y       z     vdW  Elec       q    Type
REMARK                         _______ _______ _______ _____ _____    ______ ____
ROOT
ATOM      1  O   UNL     1     -37.763  26.230   2.399  0.00  0.00    -0.332 OA
ATOM      2  O   UNL     1     -33.807  24.379   0.257  0.00  0.00    -0.450 OA
ATOM      3  O   UNL     1     -33.215  22.222   0.134  0.00  0.00    -0.246 OA
ATOM      4  O   UNL     1     -32.509  28.151   5.699  0.00  0.00    -0.289 OA
ATOM      5  C   UNL     1     -35.923  25.167   1.317  0.00  0.00    +0.073 C 
ATOM      6  C   UNL     1     -35.541  25.486   2.788  0.00  0.00    +0.063 C 
ATOM      7  C   UNL     1     -34.606  26.763   3.018  0.00  0.00    +0.040 C 
ATOM      8  C   UNL     1     -36.409  23.681   1.166  0.00  0.00    +0.060 C 
ATOM      9  C   UNL     1     -36.978  25.497   3.365  0.00  0.00    +0.209 C 
ATOM     10  C   UNL     1     -34.827  25.412   0.286  0.00  0.00    +0.172 C 
ATOM     11  C   UNL     1     -33.469  26.761   1.928  0.00  0.00    +0.025 C 
ATOM     12  C   UNL     1     -37.652  23.384   2.073  0.00  0.00    +0.036 C 
ATOM     13  C   UNL     1     -37.133  26.095   1.113  0.00  0.00    +0.148 C 
ATOM     14  C   UNL     1     -37.541  24.058   3.455  0.00  0.00    +0.161 C 
ATOM     15  C   UNL     1     -34.065  26.721   0.507  0.00  0.00    +0.048 C 
ATOM     16  C   UNL     1     -35.231  22.720   1.334  0.00  0.00    +0.266 C 
ATOM     17  C   UNL     1     -33.844  26.628   4.382  0.00  0.00    +0.172 C 
ATOM     18  C   UNL     1     -35.391  28.107   3.000  0.00  0.00    +0.003 C 
ATOM     19  C   UNL     1     -32.416  27.840   2.160  0.00  0.00    -0.041 C 
ATOM     20  C   UNL     1     -38.051  21.912   2.192  0.00  0.00    +0.003 C 
ATOM     21  C   UNL     1     -34.024  23.073   0.503  0.00  0.00    +0.358 C 
ATOM     22  C   UNL     1     -32.806  27.724   4.584  0.00  0.00    +0.199 C 
ATOM     23  C   UNL     1     -32.112  28.270   3.396  0.00  0.00    +0.031 C 
ATOM     24  C   UNL     1     -31.647  28.377   0.985  0.00  0.00    +0.026 C 
ENDROOT
BRANCH   9  25
ATOM     25  O   UNL     1     -37.062  26.093   4.647  0.00  0.00    -0.362 OA
ATOM     26  H   UNL     1     -36.190  26.432   4.903  0.00  0.00    +0.213 HD
ENDBRANCH   9  25
BRANCH  14  27
ATOM     27  O   UNL     1     -36.726  23.273   4.324  0.00  0.00    -0.380 OA
ATOM     28  H   UNL     1     -36.261  22.597   3.806  0.00  0.00    +0.211 HD
ENDBRANCH  14  27
BRANCH  17  29
ATOM     29  O   UNL     1     -34.684  26.625   5.519  0.00  0.00    -0.377 OA
ATOM     30  H   UNL     1     -35.328  25.904   5.445  0.00  0.00    +0.211 HD
ENDBRANCH  17  29
BRANCH  16  31
ATOM     31  O   UNL     1     -35.593  21.414   0.893  0.00  0.00    -0.441 OA
BRANCH  31  33
ATOM     32  O   UNL     1     -35.177  20.269   2.852  0.00  0.00    -0.250 OA
ATOM     33  C   UNL     1     -35.096  20.377   1.636  0.00  0.00    +0.317 C 
BRANCH  33  34
ATOM     34  C   UNL     1     -34.395  19.384   0.725  0.00  0.00    +0.099 C 
ATOM     35  C   UNL     1     -35.437  18.403   0.192  0.00  0.00    +0.012 C 
BRANCH  34  36
ATOM     36  C   UNL     1     -33.272  18.640   1.463  0.00  0.00    +0.011 C 
ATOM     37  C   UNL     1     -31.931  18.755   0.750  0.00  0.00    +0.001 C 
ENDBRANCH  34  36
ENDBRANCH  33  34
ENDBRANCH  31  33
ENDBRANCH  16  31
TORSDOF 7
ENDMDL
MODEL 7
REMARK VINA RESULT:      -6.4      2.849      8.087
REMARK  Name = 5458457
REMARK  7 active torsions:
REMARK  status: ('A' for Active; 'I' for Inactive)
REMARK    1  A    between atoms: C_9  and  O_25
REMARK    2  A    between atoms: C_14  and  O_27
REMARK    3  A    between atoms: C_16  and  O_31
REMARK    4  A    between atoms: C_17  and  O_29
REMARK    5  A    between atoms: O_31  and  C_33
REMARK    6  A    between atoms: C_33  and  C_34
REMARK    7  A    between atoms: C_34  and  C_36
REMARK                            x       y       z     vdW  Elec       q    Type
REMARK                         _______ _______ _______ _____ _____    ______ ____
ROOT
ATOM      1  O   UNL     1     -35.413  24.489  -0.249  0.00  0.00    -0.332 OA
ATOM      2  O   UNL     1     -38.195  21.325   2.182  0.00  0.00    -0.450 OA
ATOM      3  O   UNL     1     -40.404  21.018   1.969  0.00  0.00    -0.246 OA
ATOM      4  O   UNL     1     -35.608  26.250   6.000  0.00  0.00    -0.289 OA
ATOM      5  C   UNL     1     -36.888  22.932   0.793  0.00  0.00    +0.073 C 
ATOM      6  C   UNL     1     -36.860  24.246   1.619  0.00  0.00    +0.063 C 
ATOM      7  C   UNL     1     -35.976  24.227   2.953  0.00  0.00    +0.040 C 
ATOM      8  C   UNL     1     -38.119  22.901  -0.183  0.00  0.00    +0.060 C 
ATOM      9  C   UNL     1     -36.451  25.195   0.464  0.00  0.00    +0.209 C 
ATOM     10  C   UNL     1     -36.900  21.644   1.608  0.00  0.00    +0.172 C 
ATOM     11  C   UNL     1     -36.228  22.868   3.707  0.00  0.00    +0.025 C 
ATOM     12  C   UNL     1     -38.097  24.110  -1.179  0.00  0.00    +0.036 C 
ATOM     13  C   UNL     1     -35.609  23.077  -0.048  0.00  0.00    +0.148 C 
ATOM     14  C   UNL     1     -37.638  25.417  -0.504  0.00  0.00    +0.161 C 
ATOM     15  C   UNL     1     -35.932  21.664   2.793  0.00  0.00    +0.048 C 
ATOM     16  C   UNL     1     -39.417  22.730   0.610  0.00  0.00    +0.266 C 
ATOM     17  C   UNL     1     -36.484  25.329   3.945  0.00  0.00    +0.172 C 
ATOM     18  C   UNL     1     -34.458  24.441   2.684  0.00  0.00    +0.003 C 
ATOM     19  C   UNL     1     -35.569  22.817   5.083  0.00  0.00    -0.041 C 
ATOM     20  C   UNL     1     -39.370  24.316  -2.003  0.00  0.00    +0.003 C 
ATOM     21  C   UNL     1     -39.383  21.605   1.613  0.00  0.00    +0.358 C 
ATOM     22  C   UNL     1     -35.802  25.254   5.305  0.00  0.00    +0.199 C 
ATOM     23  C   UNL     1     -35.386  23.927   5.816  0.00  0.00    +0.031 C 
ATOM     24  C   UNL     1     -35.187  21.483   5.662  0.00  0.00    +0.026 C 
ENDROOT
BRANCH   9  25
ATOM     25  O   UNL     1     -35.994  26.457   0.912  0.00  0.00    -0.362 OA
ATOM     26  H   UNL     1     -36.308  26.613   1.817  0.00  0.00    +0.213 HD
ENDBRANCH   9  25
BRANCH  14  27
ATOM     27  O   UNL     1     -38.726  26.020   0.195  0.00  0.00    -0.380 OA
ATOM     28  H   UNL     1     -38.548  25.996   1.149  0.00  0.00    +0.211 HD
ENDBRANCH  14  27
BRANCH  17  29
ATOM     29  O   UNL     1     -36.337  26.653   3.471  0.00  0.00    -0.377 OA
ATOM     30  H   UNL     1     -37.031  27.214   3.851  0.00  0.00    +0.211 HD
ENDBRANCH  17  29
BRANCH  16  31
ATOM     31  O   UNL     1     -40.488  22.389  -0.267  0.00  0.00    -0.441 OA
BRANCH  31  33
ATOM     32  O   UNL     1     -41.817  24.001   0.710  0.00  0.00    -0.250 OA
ATOM     33  C   UNL     1     -41.658  23.070  -0.068  0.00  0.00    +0.317 C 
BRANCH  33  34
ATOM     34  C   UNL     1     -42.751  22.479  -0.942  0.00  0.00    +0.099 C 
ATOM     35  C   UNL     1     -42.466  20.990  -1.126  0.00  0.00    +0.012 C 
BRANCH  34  36
ATOM     36  C   UNL     1     -42.832  23.191  -2.300  0.00  0.00    +0.011 C 
ATOM     37  C   UNL     1     -42.315  22.327  -3.443  0.00  0.00    +0.001 C 
ENDBRANCH  34  36
ENDBRANCH  33  34
ENDBRANCH  31  33
ENDBRANCH  16  31
TORSDOF 7
ENDMDL
MODEL 8
REMARK VINA RESULT:      -6.3      2.820      5.675
REMARK  Name = 5458457
REMARK  7 active torsions:
REMARK  status: ('A' for Active; 'I' for Inactive)
REMARK    1  A    between atoms: C_9  and  O_25
REMARK    2  A    between atoms: C_14  and  O_27
REMARK    3  A    between atoms: C_16  and  O_31
REMARK    4  A    between atoms: C_17  and  O_29
REMARK    5  A    between atoms: O_31  and  C_33
REMARK    6  A    between atoms: C_33  and  C_34
REMARK    7  A    between atoms: C_34  and  C_36
REMARK                            x       y       z     vdW  Elec       q    Type
REMARK                         _______ _______ _______ _____ _____    ______ ____
ROOT
ATOM      1  O   UNL     1     -37.253  22.409  -0.760  0.00  0.00    -0.332 OA
ATOM      2  O   UNL     1     -35.340  21.232   3.556  0.00  0.00    -0.450 OA
ATOM      3  O   UNL     1     -35.184  22.535   5.370  0.00  0.00    -0.246 OA
ATOM      4  O   UNL     1     -30.857  21.538  -1.478  0.00  0.00    -0.289 OA
ATOM      5  C   UNL     1     -36.434  21.953   1.433  0.00  0.00    +0.073 C 
ATOM      6  C   UNL     1     -35.285  22.532   0.565  0.00  0.00    +0.063 C 
ATOM      7  C   UNL     1     -34.221  21.478   0.001  0.00  0.00    +0.040 C 
ATOM      8  C   UNL     1     -37.108  23.074   2.304  0.00  0.00    +0.060 C 
ATOM      9  C   UNL     1     -36.171  23.311  -0.439  0.00  0.00    +0.209 C 
ATOM     10  C   UNL     1     -36.045  20.807   2.359  0.00  0.00    +0.172 C 
ATOM     11  C   UNL     1     -33.860  20.461   1.148  0.00  0.00    +0.025 C 
ATOM     12  C   UNL     1     -37.693  24.223   1.414  0.00  0.00    +0.036 C 
ATOM     13  C   UNL     1     -37.436  21.514   0.352  0.00  0.00    +0.148 C 
ATOM     14  C   UNL     1     -36.773  24.571   0.228  0.00  0.00    +0.161 C 
ATOM     15  C   UNL     1     -35.126  19.776   1.699  0.00  0.00    +0.048 C 
ATOM     16  C   UNL     1     -36.156  23.524   3.413  0.00  0.00    +0.266 C 
ATOM     17  C   UNL     1     -32.870  22.205  -0.321  0.00  0.00    +0.172 C 
ATOM     18  C   UNL     1     -34.716  20.730  -1.270  0.00  0.00    +0.003 C 
ATOM     19  C   UNL     1     -32.721  19.517   0.773  0.00  0.00    -0.041 C 
ATOM     20  C   UNL     1     -38.147  25.478   2.164  0.00  0.00    +0.003 C 
ATOM     21  C   UNL     1     -35.552  22.392   4.205  0.00  0.00    +0.358 C 
ATOM     22  C   UNL     1     -31.758  21.235  -0.697  0.00  0.00    +0.199 C 
ATOM     23  C   UNL     1     -31.749  19.891  -0.074  0.00  0.00    +0.031 C 
ATOM     24  C   UNL     1     -32.645  18.166   1.429  0.00  0.00    +0.026 C 
ENDROOT
BRANCH   9  25
ATOM     25  O   UNL     1     -35.477  23.708  -1.607  0.00  0.00    -0.362 OA
ATOM     26  H   UNL     1     -34.746  24.299  -1.365  0.00  0.00    +0.213 HD
ENDBRANCH   9  25
BRANCH  14  27
ATOM     27  O   UNL     1     -35.724  25.440   0.653  0.00  0.00    -0.380 OA
ATOM     28  H   UNL     1     -34.899  25.190   0.209  0.00  0.00    +0.211 HD
ENDBRANCH  14  27
BRANCH  17  29
ATOM     29  O   UNL     1     -32.958  23.168  -1.352  0.00  0.00    -0.377 OA
ATOM     30  H   UNL     1     -32.280  23.849  -1.219  0.00  0.00    +0.211 HD
ENDBRANCH  17  29
BRANCH  16  31
ATOM     31  O   UNL     1     -36.859  24.297   4.383  0.00  0.00    -0.441 OA
BRANCH  31  33
ATOM     32  O   UNL     1     -36.433  25.904   5.981  0.00  0.00    -0.250 OA
ATOM     33  C   UNL     1     -36.162  25.340   4.930  0.00  0.00    +0.317 C 
BRANCH  33  34
ATOM     34  C   UNL     1     -35.008  25.720   4.018  0.00  0.00    +0.099 C 
ATOM     35  C   UNL     1     -33.716  25.664   4.829  0.00  0.00    +0.012 C 
BRANCH  34  36
ATOM     36  C   UNL     1     -35.210  27.116   3.409  0.00  0.00    +0.011 C 
ATOM     37  C   UNL     1     -33.898  27.868   3.228  0.00  0.00    +0.001 C 
ENDBRANCH  34  36
ENDBRANCH  33  34
ENDBRANCH  31  33
ENDBRANCH  16  31
TORSDOF 7
ENDMDL
MODEL 9
REMARK VINA RESULT:      -6.3      2.443      7.164
REMARK  Name = 5458457
REMARK  7 active torsions:
REMARK  status: ('A' for Active; 'I' for Inactive)
REMARK    1  A    between atoms: C_9  and  O_25
REMARK    2  A    between atoms: C_14  and  O_27
REMARK    3  A    between atoms: C_16  and  O_31
REMARK    4  A    between atoms: C_17  and  O_29
REMARK    5  A    between atoms: O_31  and  C_33
REMARK    6  A    between atoms: C_33  and  C_34
REMARK    7  A    between atoms: C_34  and  C_36
REMARK                            x       y       z     vdW  Elec       q    Type
REMARK                         _______ _______ _______ _____ _____    ______ ____
ROOT
ATOM      1  O   UNL     1     -35.148  25.565  -0.014  0.00  0.00    -0.332 OA
ATOM      2  O   UNL     1     -38.207  22.643   2.388  0.00  0.00    -0.450 OA
ATOM      3  O   UNL     1     -40.443  22.760   2.430  0.00  0.00    -0.246 OA
ATOM      4  O   UNL     1     -34.336  26.481   6.364  0.00  0.00    -0.289 OA
ATOM      5  C   UNL     1     -36.774  24.166   1.030  0.00  0.00    +0.073 C 
ATOM      6  C   UNL     1     -36.407  25.332   1.987  0.00  0.00    +0.063 C 
ATOM      7  C   UNL     1     -35.406  24.980   3.184  0.00  0.00    +0.040 C 
ATOM      8  C   UNL     1     -38.085  24.483   0.225  0.00  0.00    +0.060 C 
ATOM      9  C   UNL     1     -35.951  26.340   0.902  0.00  0.00    +0.209 C 
ATOM     10  C   UNL     1     -36.944  22.803   1.690  0.00  0.00    +0.172 C 
ATOM     11  C   UNL     1     -35.830  23.598   3.808  0.00  0.00    +0.025 C 
ATOM     12  C   UNL     1     -37.939  25.791  -0.625  0.00  0.00    +0.036 C 
ATOM     13  C   UNL     1     -35.587  24.196   0.051  0.00  0.00    +0.148 C 
ATOM     14  C   UNL     1     -37.171  26.895   0.127  0.00  0.00    +0.161 C 
ATOM     15  C   UNL     1     -35.868  22.494   2.734  0.00  0.00    +0.048 C 
ATOM     16  C   UNL     1     -39.299  24.438   1.155  0.00  0.00    +0.266 C 
ATOM     17  C   UNL     1     -35.586  26.012   4.351  0.00  0.00    +0.172 C 
ATOM     18  C   UNL     1     -33.913  24.958   2.746  0.00  0.00    +0.003 C 
ATOM     19  C   UNL     1     -35.049  23.248   5.072  0.00  0.00    -0.041 C 
ATOM     20  C   UNL     1     -39.230  26.326  -1.248  0.00  0.00    +0.003 C 
ATOM     21  C   UNL     1     -39.373  23.201   2.012  0.00  0.00    +0.358 C 
ATOM     22  C   UNL     1     -34.789  25.636   5.593  0.00  0.00    +0.199 C 
ATOM     23  C   UNL     1     -34.581  24.201   5.895  0.00  0.00    +0.031 C 
ATOM     24  C   UNL     1     -34.869  21.803   5.444  0.00  0.00    +0.026 C 
ENDROOT
BRANCH   9  25
ATOM     25  O   UNL     1     -35.216  27.431   1.425  0.00  0.00    -0.362 OA
ATOM     26  H   UNL     1     -35.109  28.108   0.738  0.00  0.00    +0.213 HD
ENDBRANCH   9  25
BRANCH  14  27
ATOM     27  O   UNL     1     -38.042  27.581   1.024  0.00  0.00    -0.380 OA
ATOM     28  H   UNL     1     -38.053  28.526   0.805  0.00  0.00    +0.211 HD
ENDBRANCH  14  27
BRANCH  17  29
ATOM     29  O   UNL     1     -35.240  27.340   4.012  0.00  0.00    -0.377 OA
ATOM     30  H   UNL     1     -35.772  27.631   3.255  0.00  0.00    +0.211 HD
ENDBRANCH  17  29
BRANCH  16  31
ATOM     31  O   UNL     1     -40.503  24.411   0.392  0.00  0.00    -0.441 OA
BRANCH  31  33
ATOM     32  O   UNL     1     -42.732  24.530   0.974  0.00  0.00    -0.250 OA
ATOM     33  C   UNL     1     -41.595  24.983   0.986  0.00  0.00    +0.317 C 
BRANCH  33  34
ATOM     34  C   UNL     1     -41.194  26.292   1.643  0.00  0.00    +0.099 C 
ATOM     35  C   UNL     1     -41.580  26.227   3.119  0.00  0.00    +0.012 C 
BRANCH  34  36
ATOM     36  C   UNL     1     -41.863  27.493   0.957  0.00  0.00    +0.011 C 
ATOM     37  C   UNL     1     -42.712  28.315   1.917  0.00  0.00    +0.001 C 
ENDBRANCH  34  36
ENDBRANCH  33  34
ENDBRANCH  31  33
ENDBRANCH  16  31
TORSDOF 7
ENDMDL
