MODEL 1
REMARK VINA RESULT:      -6.3      0.000      0.000
REMARK  Name = 56986002
REMARK  6 active torsions:
REMARK  status: ('A' for Active; 'I' for Inactive)
REMARK    1  A    between atoms: N_2  and  CA_9
REMARK    2  A    between atoms: C_3  and  C_20
REMARK    3  A    between atoms: CA_11  and  C_16
REMARK    4  A    between atoms: C_16  and  O_17
REMARK    5  A    between atoms: N_19  and  O_29
REMARK    6  A    between atoms: C_20  and  C_24
REMARK                            x       y       z     vdW  Elec       q    Type
REMARK                         _______ _______ _______ _____ _____    ______ ____
ROOT
ATOM      1  O   UNL     1     -35.760  26.222   5.946  0.00  0.00    -0.268 OA
ATOM      2  N   UNL     1     -34.965  24.809   4.248  0.00  0.00    -0.291 N 
ATOM      3  C   UNL     1     -34.912  25.865   5.144  0.00  0.00    +0.269 C 
ATOM      4  H   UNL     1     -34.191  24.649   3.661  0.00  0.00    +0.150 HD
ENDROOT
BRANCH   2   9
ATOM      5  S   UNL     1     -38.602  24.235   2.763  0.00  0.00    -0.114 S 
ATOM      6  O   UNL     1     -35.104  21.572   4.285  0.00  0.00    -0.273 OA
ATOM      7  N   UNL     1     -36.570  22.526   2.703  0.00  0.00    -0.242 N 
ATOM      8  C   UNL     1     -36.816  23.955   2.758  0.00  0.00    +0.155 C 
ATOM      9  CA  UNL     1     -36.122  23.924   4.138  0.00  0.00    +0.179 C 
ATOM     10  C   UNL     1     -35.762  22.453   3.783  0.00  0.00    +0.251 C 
ATOM     11  CA  UNL     1     -37.101  21.704   1.761  0.00  0.00    +0.124 C 
ATOM     12  C   UNL     1     -38.842  23.442   1.137  0.00  0.00    +0.083 C 
ATOM     13  C   UNL     1     -38.131  22.101   0.976  0.00  0.00    -0.013 C 
ATOM     14  C   UNL     1     -38.721  21.279  -0.146  0.00  0.00    +0.029 C 
BRANCH  11  16
ATOM     15  OXT UNL     1     -35.857  19.937   0.769  0.00  0.00    -0.244 OA
ATOM     16  C   UNL     1     -36.553  20.341   1.679  0.00  0.00    +0.351 C 
BRANCH  16  17
ATOM     17  O   UNL     1     -36.947  19.636   2.757  0.00  0.00    -0.476 OA
ATOM     18  H   UNL     1     -36.340  19.077   3.200  0.00  0.00    +0.295 HD
ENDBRANCH  16  17
ENDBRANCH  11  16
ENDBRANCH   2   9
BRANCH   3  20
ATOM     19  N   UNL     1     -33.024  27.008   6.169  0.00  0.00    -0.076 NA
ATOM     20  C   UNL     1     -33.618  26.631   5.077  0.00  0.00    +0.198 C 
BRANCH  20  24
ATOM     21  S   UNL     1     -32.432  28.121   1.578  0.00  0.00    -0.060 S 
ATOM     22  N   UNL     1     -32.228  26.040   3.098  0.00  0.00    -0.383 NA
ATOM     23  N   UNL     1     -31.041  25.915   1.058  0.00  0.00    -0.328 N 
ATOM     24  C   UNL     1     -33.040  26.952   3.744  0.00  0.00    +0.148 C 
ATOM     25  C   UNL     1     -33.266  28.137   3.077  0.00  0.00    +0.127 C 
ATOM     26  C   UNL     1     -31.849  26.550   1.948  0.00  0.00    +0.204 C 
ATOM     27  H   UNL     1     -30.797  26.356   0.213  0.00  0.00    +0.145 HD
ATOM     28  H   UNL     1     -30.700  25.013   1.260  0.00  0.00    +0.145 HD
ENDBRANCH  20  24
BRANCH  19  29
ATOM     29  O   UNL     1     -31.841  27.711   5.900  0.00  0.00    -0.373 OA
ATOM     30  C   UNL     1     -31.828  28.877   6.710  0.00  0.00    +0.288 C 
ENDBRANCH  19  29
ENDBRANCH   3  20
TORSDOF 6
ENDMDL
MODEL 2
REMARK VINA RESULT:      -5.9      4.086      6.599
REMARK  Name = 56986002
REMARK  6 active torsions:
REMARK  status: ('A' for Active; 'I' for Inactive)
REMARK    1  A    between atoms: N_2  and  CA_9
REMARK    2  A    between atoms: C_3  and  C_20
REMARK    3  A    between atoms: CA_11  and  C_16
REMARK    4  A    between atoms: C_16  and  O_17
REMARK    5  A    between atoms: N_19  and  O_29
REMARK    6  A    between atoms: C_20  and  C_24
REMARK                            x       y       z     vdW  Elec       q    Type
REMARK                         _______ _______ _______ _____ _____    ______ ____
ROOT
ATOM      1  O   UNL     1     -36.249  22.148   0.703  0.00  0.00    -0.268 OA
ATOM      2  N   UNL     1     -34.690  20.760   1.778  0.00  0.00    -0.291 N 
ATOM      3  C   UNL     1     -35.664  21.742   1.695  0.00  0.00    +0.269 C 
ATOM      4  H   UNL     1     -34.311  20.544   2.661  0.00  0.00    +0.150 HD
ENDROOT
BRANCH   2   9
ATOM      5  S   UNL     1     -31.625  18.968   0.002  0.00  0.00    -0.114 S 
ATOM      6  O   UNL     1     -36.266  18.755  -0.221  0.00  0.00    -0.273 OA
ATOM      7  N   UNL     1     -34.086  18.009   0.279  0.00  0.00    -0.242 N 
ATOM      8  C   UNL     1     -33.172  18.926   0.936  0.00  0.00    +0.155 C 
ATOM      9  CA  UNL     1     -34.201  20.032   0.610  0.00  0.00    +0.179 C 
ATOM     10  C   UNL     1     -35.124  18.865   0.158  0.00  0.00    +0.251 C 
ATOM     11  CA  UNL     1     -33.774  16.723  -0.026  0.00  0.00    +0.124 C 
ATOM     12  C   UNL     1     -31.296  17.191   0.256  0.00  0.00    +0.083 C 
ATOM     13  C   UNL     1     -32.494  16.282  -0.008  0.00  0.00    -0.013 C 
ATOM     14  C   UNL     1     -32.076  14.851  -0.255  0.00  0.00    +0.029 C 
BRANCH  11  16
ATOM     15  OXT UNL     1     -35.166  15.609  -1.600  0.00  0.00    -0.244 OA
ATOM     16  C   UNL     1     -34.882  15.850  -0.444  0.00  0.00    +0.351 C 
BRANCH  16  17
ATOM     17  O   UNL     1     -35.512  15.375   0.649  0.00  0.00    -0.476 OA
ATOM     18  H   UNL     1     -35.324  15.737   1.493  0.00  0.00    +0.295 HD
ENDBRANCH  16  17
ENDBRANCH  11  16
ENDBRANCH   2   9
BRANCH   3  20
ATOM     19  N   UNL     1     -35.628  21.767   4.129  0.00  0.00    -0.076 NA
ATOM     20  C   UNL     1     -36.008  22.347   3.030  0.00  0.00    +0.198 C 
BRANCH  20  24
ATOM     21  S   UNL     1     -37.472  26.052   2.986  0.00  0.00    -0.060 S 
ATOM     22  N   UNL     1     -38.150  23.580   3.323  0.00  0.00    -0.383 NA
ATOM     23  N   UNL     1     -39.913  25.142   3.519  0.00  0.00    -0.328 N 
ATOM     24  C   UNL     1     -36.793  23.610   3.066  0.00  0.00    +0.148 C 
ATOM     25  C   UNL     1     -36.246  24.858   2.858  0.00  0.00    +0.127 C 
ATOM     26  C   UNL     1     -38.613  24.810   3.304  0.00  0.00    +0.204 C 
ATOM     27  H   UNL     1     -40.191  26.087   3.491  0.00  0.00    +0.145 HD
ATOM     28  H   UNL     1     -40.577  24.438   3.703  0.00  0.00    +0.145 HD
ENDBRANCH  20  24
BRANCH  19  29
ATOM     29  O   UNL     1     -36.048  22.476   5.262  0.00  0.00    -0.373 OA
ATOM     30  C   UNL     1     -35.280  22.031   6.370  0.00  0.00    +0.288 C 
ENDBRANCH  19  29
ENDBRANCH   3  20
TORSDOF 6
ENDMDL
MODEL 3
REMARK VINA RESULT:      -5.9      2.772      3.911
REMARK  Name = 56986002
REMARK  6 active torsions:
REMARK  status: ('A' for Active; 'I' for Inactive)
REMARK    1  A    between atoms: N_2  and  CA_9
REMARK    2  A    between atoms: C_3  and  C_20
REMARK    3  A    between atoms: CA_11  and  C_16
REMARK    4  A    between atoms: C_16  and  O_17
REMARK    5  A    between atoms: N_19  and  O_29
REMARK    6  A    between atoms: C_20  and  C_24
REMARK                            x       y       z     vdW  Elec       q    Type
REMARK                         _______ _______ _______ _____ _____    ______ ____
ROOT
ATOM      1  O   UNL     1     -35.779  28.523   1.871  0.00  0.00    -0.268 OA
ATOM      2  N   UNL     1     -35.020  27.466   3.825  0.00  0.00    -0.291 N 
ATOM      3  C   UNL     1     -35.047  28.445   2.844  0.00  0.00    +0.269 C 
ATOM      4  H   UNL     1     -34.363  27.546   4.553  0.00  0.00    +0.150 HD
ENDROOT
BRANCH   2   9
ATOM      5  S   UNL     1     -36.712  24.549   1.730  0.00  0.00    -0.114 S 
ATOM      6  O   UNL     1     -35.712  25.372   6.197  0.00  0.00    -0.273 OA
ATOM      7  N   UNL     1     -35.520  24.327   4.092  0.00  0.00    -0.242 N 
ATOM      8  C   UNL     1     -35.482  25.161   2.905  0.00  0.00    +0.155 C 
ATOM      9  CA  UNL     1     -35.927  26.321   3.823  0.00  0.00    +0.179 C 
ATOM     10  C   UNL     1     -35.688  25.322   4.990  0.00  0.00    +0.251 C 
ATOM     11  CA  UNL     1     -35.405  22.974   4.068  0.00  0.00    +0.124 C 
ATOM     12  C   UNL     1     -35.921  22.911   1.585  0.00  0.00    +0.083 C 
ATOM     13  C   UNL     1     -35.538  22.273   2.917  0.00  0.00    -0.013 C 
ATOM     14  C   UNL     1     -35.344  20.780   2.795  0.00  0.00    +0.029 C 
BRANCH  11  16
ATOM     15  OXT UNL     1     -34.125  21.880   5.747  0.00  0.00    -0.244 OA
ATOM     16  C   UNL     1     -35.196  22.299   5.359  0.00  0.00    +0.351 C 
BRANCH  16  17
ATOM     17  O   UNL     1     -36.369  22.225   6.018  0.00  0.00    -0.476 OA
ATOM     18  H   UNL     1     -36.753  21.390   6.201  0.00  0.00    +0.295 HD
ENDBRANCH  16  17
ENDBRANCH  11  16
ENDBRANCH   2   9
BRANCH   3  20
ATOM     19  N   UNL     1     -34.278  30.751   2.712  0.00  0.00    -0.076 NA
ATOM     20  C   UNL     1     -34.022  29.526   3.062  0.00  0.00    +0.198 C 
BRANCH  20  24
ATOM     21  S   UNL     1     -30.285  28.525   4.015  0.00  0.00    -0.060 S 
ATOM     22  N   UNL     1     -32.592  29.071   5.048  0.00  0.00    -0.383 NA
ATOM     23  N   UNL     1     -30.888  28.563   6.605  0.00  0.00    -0.328 N 
ATOM     24  C   UNL     1     -32.715  29.166   3.675  0.00  0.00    +0.148 C 
ATOM     25  C   UNL     1     -31.574  28.904   2.947  0.00  0.00    +0.127 C 
ATOM     26  C   UNL     1     -31.354  28.740   5.340  0.00  0.00    +0.204 C 
ATOM     27  H   UNL     1     -29.946  28.314   6.752  0.00  0.00    +0.145 HD
ATOM     28  H   UNL     1     -31.492  28.684   7.374  0.00  0.00    +0.145 HD
ENDBRANCH  20  24
BRANCH  19  29
ATOM     29  O   UNL     1     -33.202  31.606   2.988  0.00  0.00    -0.373 OA
ATOM     30  C   UNL     1     -33.342  32.765   2.180  0.00  0.00    +0.288 C 
ENDBRANCH  19  29
ENDBRANCH   3  20
TORSDOF 6
ENDMDL
MODEL 4
REMARK VINA RESULT:      -5.8      3.966      7.666
REMARK  Name = 56986002
REMARK  6 active torsions:
REMARK  status: ('A' for Active; 'I' for Inactive)
REMARK    1  A    between atoms: N_2  and  CA_9
REMARK    2  A    between atoms: C_3  and  C_20
REMARK    3  A    between atoms: CA_11  and  C_16
REMARK    4  A    between atoms: C_16  and  O_17
REMARK    5  A    between atoms: N_19  and  O_29
REMARK    6  A    between atoms: C_20  and  C_24
REMARK                            x       y       z     vdW  Elec       q    Type
REMARK                         _______ _______ _______ _____ _____    ______ ____
ROOT
ATOM      1  O   UNL     1     -37.421  19.383   0.656  0.00  0.00    -0.268 OA
ATOM      2  N   UNL     1     -35.591  20.386   1.730  0.00  0.00    -0.291 N 
ATOM      3  C   UNL     1     -36.234  19.650   0.748  0.00  0.00    +0.269 C 
ATOM      4  H   UNL     1     -34.617  20.514   1.662  0.00  0.00    +0.150 HD
ENDROOT
BRANCH   2   9
ATOM      5  S   UNL     1     -35.376  21.799   5.433  0.00  0.00    -0.114 S 
ATOM      6  O   UNL     1     -38.178  22.336   1.761  0.00  0.00    -0.273 OA
ATOM      7  N   UNL     1     -36.556  22.956   3.355  0.00  0.00    -0.242 N 
ATOM      8  C   UNL     1     -35.477  22.030   3.643  0.00  0.00    +0.155 C 
ATOM      9  CA  UNL     1     -36.298  20.981   2.862  0.00  0.00    +0.179 C 
ATOM     10  C   UNL     1     -37.220  22.173   2.478  0.00  0.00    +0.251 C 
ATOM     11  CA  UNL     1     -36.665  24.187   3.919  0.00  0.00    +0.124 C 
ATOM     12  C   UNL     1     -35.025  23.561   5.751  0.00  0.00    +0.083 C 
ATOM     13  C   UNL     1     -35.939  24.533   5.009  0.00  0.00    -0.013 C 
ATOM     14  C   UNL     1     -35.943  25.904   5.643  0.00  0.00    +0.029 C 
BRANCH  11  16
ATOM     15  OXT UNL     1     -37.419  25.877   2.426  0.00  0.00    -0.244 OA
ATOM     16  C   UNL     1     -37.654  25.104   3.333  0.00  0.00    +0.351 C 
BRANCH  16  17
ATOM     17  O   UNL     1     -38.836  24.945   3.961  0.00  0.00    -0.476 OA
ATOM     18  H   UNL     1     -38.923  24.310   4.644  0.00  0.00    +0.295 HD
ENDBRANCH  16  17
ENDBRANCH  11  16
ENDBRANCH   2   9
BRANCH   3  20
ATOM     19  N   UNL     1     -35.767  18.716  -1.451  0.00  0.00    -0.076 NA
ATOM     20  C   UNL     1     -35.298  19.143  -0.317  0.00  0.00    +0.198 C 
BRANCH  20  24
ATOM     21  S   UNL     1     -31.365  19.706  -0.020  0.00  0.00    -0.060 S 
ATOM     22  N   UNL     1     -33.283  18.161   0.765  0.00  0.00    -0.383 NA
ATOM     23  N   UNL     1     -31.136  17.587   1.571  0.00  0.00    -0.328 N 
ATOM     24  C   UNL     1     -33.836  19.134  -0.045  0.00  0.00    +0.148 C 
ATOM     25  C   UNL     1     -32.954  20.059  -0.563  0.00  0.00    +0.127 C 
ATOM     26  C   UNL     1     -31.987  18.364   0.850  0.00  0.00    +0.204 C 
ATOM     27  H   UNL     1     -30.174  17.797   1.589  0.00  0.00    +0.145 HD
ATOM     28  H   UNL     1     -31.482  16.814   2.074  0.00  0.00    +0.145 HD
ENDBRANCH  20  24
BRANCH  19  29
ATOM     29  O   UNL     1     -34.744  18.282  -2.305  0.00  0.00    -0.373 OA
ATOM     30  C   UNL     1     -35.278  17.283  -3.161  0.00  0.00    +0.288 C 
ENDBRANCH  19  29
ENDBRANCH   3  20
TORSDOF 6
ENDMDL
MODEL 5
REMARK VINA RESULT:      -5.8      4.210      7.947
REMARK  Name = 56986002
REMARK  6 active torsions:
REMARK  status: ('A' for Active; 'I' for Inactive)
REMARK    1  A    between atoms: N_2  and  CA_9
REMARK    2  A    between atoms: C_3  and  C_20
REMARK    3  A    between atoms: CA_11  and  C_16
REMARK    4  A    between atoms: C_16  and  O_17
REMARK    5  A    between atoms: N_19  and  O_29
REMARK    6  A    between atoms: C_20  and  C_24
REMARK                            x       y       z     vdW  Elec       q    Type
REMARK                         _______ _______ _______ _____ _____    ______ ____
ROOT
ATOM      1  O   UNL     1     -34.191  19.535   2.464  0.00  0.00    -0.268 OA
ATOM      2  N   UNL     1     -36.051  20.599   1.506  0.00  0.00    -0.291 N 
ATOM      3  C   UNL     1     -34.892  19.840   1.513  0.00  0.00    +0.269 C 
ATOM      4  H   UNL     1     -36.506  20.757   0.647  0.00  0.00    +0.150 HD
ENDROOT
BRANCH   2   9
ATOM      5  S   UNL     1     -35.418  21.969   5.178  0.00  0.00    -0.114 S 
ATOM      6  O   UNL     1     -38.627  22.531   1.858  0.00  0.00    -0.273 OA
ATOM      7  N   UNL     1     -36.835  23.142   3.263  0.00  0.00    -0.242 N 
ATOM      8  C   UNL     1     -35.725  22.220   3.414  0.00  0.00    +0.155 C 
ATOM      9  CA  UNL     1     -36.625  21.175   2.719  0.00  0.00    +0.179 C 
ATOM     10  C   UNL     1     -37.592  22.365   2.459  0.00  0.00    +0.251 C 
ATOM     11  CA  UNL     1     -36.885  24.366   3.851  0.00  0.00    +0.124 C 
ATOM     12  C   UNL     1     -35.042  23.729   5.475  0.00  0.00    +0.083 C 
ATOM     13  C   UNL     1     -36.040  24.703   4.855  0.00  0.00    -0.013 C 
ATOM     14  C   UNL     1     -35.978  26.067   5.502  0.00  0.00    +0.029 C 
BRANCH  11  16
ATOM     15  OXT UNL     1     -37.764  26.194   2.610  0.00  0.00    -0.244 OA
ATOM     16  C   UNL     1     -37.940  25.283   3.395  0.00  0.00    +0.351 C 
BRANCH  16  17
ATOM     17  O   UNL     1     -39.106  24.950   3.982  0.00  0.00    -0.476 OA
ATOM     18  H   UNL     1     -39.122  24.704   4.886  0.00  0.00    +0.295 HD
ENDBRANCH  16  17
ENDBRANCH  11  16
ENDBRANCH   2   9
BRANCH   3  20
ATOM     19  N   UNL     1     -34.311  20.197  -0.824  0.00  0.00    -0.076 NA
ATOM     20  C   UNL     1     -34.498  19.351   0.144  0.00  0.00    +0.198 C 
BRANCH  20  24
ATOM     21  S   UNL     1     -34.756  15.459  -0.665  0.00  0.00    -0.060 S 
ATOM     22  N   UNL     1     -33.129  17.273   0.198  0.00  0.00    -0.383 NA
ATOM     23  N   UNL     1     -32.230  15.089   0.081  0.00  0.00    -0.328 N 
ATOM     24  C   UNL     1     -34.334  17.889  -0.078  0.00  0.00    +0.148 C 
ATOM     25  C   UNL     1     -35.336  17.070  -0.553  0.00  0.00    +0.127 C 
ATOM     26  C   UNL     1     -33.235  15.991  -0.076  0.00  0.00    +0.204 C 
ATOM     27  H   UNL     1     -32.380  14.142  -0.143  0.00  0.00    +0.145 HD
ATOM     28  H   UNL     1     -31.353  15.384   0.419  0.00  0.00    +0.145 HD
ENDBRANCH  20  24
BRANCH  19  29
ATOM     29  O   UNL     1     -33.957  19.551  -2.017  0.00  0.00    -0.373 OA
ATOM     30  C   UNL     1     -32.773  20.157  -2.512  0.00  0.00    +0.288 C 
ENDBRANCH  19  29
ENDBRANCH   3  20
TORSDOF 6
ENDMDL
MODEL 6
REMARK VINA RESULT:      -5.7      4.629      7.906
REMARK  Name = 56986002
REMARK  6 active torsions:
REMARK  status: ('A' for Active; 'I' for Inactive)
REMARK    1  A    between atoms: N_2  and  CA_9
REMARK    2  A    between atoms: C_3  and  C_20
REMARK    3  A    between atoms: CA_11  and  C_16
REMARK    4  A    between atoms: C_16  and  O_17
REMARK    5  A    between atoms: N_19  and  O_29
REMARK    6  A    between atoms: C_20  and  C_24
REMARK                            x       y       z     vdW  Elec       q    Type
REMARK                         _______ _______ _______ _____ _____    ______ ____
ROOT
ATOM      1  O   UNL     1     -39.894  26.559   2.839  0.00  0.00    -0.268 OA
ATOM      2  N   UNL     1     -39.522  24.573   1.644  0.00  0.00    -0.291 N 
ATOM      3  C   UNL     1     -40.272  25.615   2.163  0.00  0.00    +0.269 C 
ATOM      4  H   UNL     1     -39.980  23.881   1.113  0.00  0.00    +0.150 HD
ENDROOT
BRANCH   2   9
ATOM      5  S   UNL     1     -36.450  25.087   4.105  0.00  0.00    -0.114 S 
ATOM      6  O   UNL     1     -37.419  22.444   0.403  0.00  0.00    -0.273 OA
ATOM      7  N   UNL     1     -36.996  22.919   2.673  0.00  0.00    -0.242 N 
ATOM      8  C   UNL     1     -37.678  24.044   3.285  0.00  0.00    +0.155 C 
ATOM      9  CA  UNL     1     -38.081  24.455   1.852  0.00  0.00    +0.179 C 
ATOM     10  C   UNL     1     -37.489  23.082   1.426  0.00  0.00    +0.251 C 
ATOM     11  CA  UNL     1     -36.157  22.088   3.345  0.00  0.00    +0.124 C 
ATOM     12  C   UNL     1     -35.917  23.760   5.238  0.00  0.00    +0.083 C 
ATOM     13  C   UNL     1     -35.664  22.415   4.563  0.00  0.00    -0.013 C 
ATOM     14  C   UNL     1     -34.794  21.513   5.407  0.00  0.00    +0.029 C 
BRANCH  11  16
ATOM     15  OXT UNL     1     -34.728  20.719   2.027  0.00  0.00    -0.244 OA
ATOM     16  C   UNL     1     -35.756  20.849   2.661  0.00  0.00    +0.351 C 
BRANCH  16  17
ATOM     17  O   UNL     1     -36.701  19.908   2.852  0.00  0.00    -0.476 OA
ATOM     18  H   UNL     1     -36.596  19.269   3.529  0.00  0.00    +0.295 HD
ENDBRANCH  16  17
ENDBRANCH  11  16
ENDBRANCH   2   9
BRANCH   3  20
ATOM     19  N   UNL     1     -42.192  24.482   1.185  0.00  0.00    -0.076 NA
ATOM     20  C   UNL     1     -41.734  25.523   1.812  0.00  0.00    +0.198 C 
BRANCH  20  24
ATOM     21  S   UNL     1     -43.976  28.798   2.163  0.00  0.00    -0.060 S 
ATOM     22  N   UNL     1     -43.264  26.652   3.418  0.00  0.00    -0.383 NA
ATOM     23  N   UNL     1     -44.752  28.061   4.598  0.00  0.00    -0.328 N 
ATOM     24  C   UNL     1     -42.635  26.646   2.188  0.00  0.00    +0.148 C 
ATOM     25  C   UNL     1     -42.897  27.724   1.370  0.00  0.00    +0.127 C 
ATOM     26  C   UNL     1     -43.998  27.739   3.513  0.00  0.00    +0.204 C 
ATOM     27  H   UNL     1     -45.277  28.893   4.602  0.00  0.00    +0.145 HD
ATOM     28  H   UNL     1     -44.771  27.461   5.379  0.00  0.00    +0.145 HD
ENDBRANCH  20  24
BRANCH  19  29
ATOM     29  O   UNL     1     -43.569  24.586   0.944  0.00  0.00    -0.373 OA
ATOM     30  C   UNL     1     -43.823  24.116  -0.371  0.00  0.00    +0.288 C 
ENDBRANCH  19  29
ENDBRANCH   3  20
TORSDOF 6
ENDMDL
MODEL 7
REMARK VINA RESULT:      -5.7      2.466      7.800
REMARK  Name = 56986002
REMARK  6 active torsions:
REMARK  status: ('A' for Active; 'I' for Inactive)
REMARK    1  A    between atoms: N_2  and  CA_9
REMARK    2  A    between atoms: C_3  and  C_20
REMARK    3  A    between atoms: CA_11  and  C_16
REMARK    4  A    between atoms: C_16  and  O_17
REMARK    5  A    between atoms: N_19  and  O_29
REMARK    6  A    between atoms: C_20  and  C_24
REMARK                            x       y       z     vdW  Elec       q    Type
REMARK                         _______ _______ _______ _____ _____    ______ ____
ROOT
ATOM      1  O   UNL     1     -36.365  26.244   2.807  0.00  0.00    -0.268 OA
ATOM      2  N   UNL     1     -34.156  25.581   3.241  0.00  0.00    -0.291 N 
ATOM      3  C   UNL     1     -35.536  25.469   3.257  0.00  0.00    +0.269 C 
ATOM      4  H   UNL     1     -33.619  24.864   3.650  0.00  0.00    +0.150 HD
ENDROOT
BRANCH   2   9
ATOM      5  S   UNL     1     -33.921  29.526   2.861  0.00  0.00    -0.114 S 
ATOM      6  O   UNL     1     -31.040  25.902   2.412  0.00  0.00    -0.273 OA
ATOM      7  N   UNL     1     -31.925  27.856   3.390  0.00  0.00    -0.242 N 
ATOM      8  C   UNL     1     -33.363  27.956   3.563  0.00  0.00    +0.155 C 
ATOM      9  CA  UNL     1     -33.462  26.719   2.644  0.00  0.00    +0.179 C 
ATOM     10  C   UNL     1     -31.913  26.656   2.772  0.00  0.00    +0.251 C 
ATOM     11  CA  UNL     1     -31.048  28.808   3.802  0.00  0.00    +0.124 C 
ATOM     12  C   UNL     1     -32.906  30.524   4.003  0.00  0.00    +0.083 C 
ATOM     13  C   UNL     1     -31.461  30.052   4.142  0.00  0.00    -0.013 C 
ATOM     14  C   UNL     1     -30.561  31.137   4.685  0.00  0.00    +0.029 C 
BRANCH  11  16
ATOM     15  OXT UNL     1     -28.851  28.710   2.896  0.00  0.00    -0.244 OA
ATOM     16  C   UNL     1     -29.621  28.447   3.797  0.00  0.00    +0.351 C 
BRANCH  16  17
ATOM     17  O   UNL     1     -29.324  27.790   4.936  0.00  0.00    -0.476 OA
ATOM     18  H   UNL     1     -28.922  26.945   4.899  0.00  0.00    +0.295 HD
ENDBRANCH  16  17
ENDBRANCH  11  16
ENDBRANCH   2   9
BRANCH   3  20
ATOM     19  N   UNL     1     -35.746  23.982   5.173  0.00  0.00    -0.076 NA
ATOM     20  C   UNL     1     -36.019  24.208   3.923  0.00  0.00    +0.198 C 
BRANCH  20  24
ATOM     21  S   UNL     1     -37.469  21.296   1.623  0.00  0.00    -0.060 S 
ATOM     22  N   UNL     1     -38.180  23.321   3.064  0.00  0.00    -0.383 NA
ATOM     23  N   UNL     1     -39.954  22.151   2.029  0.00  0.00    -0.328 N 
ATOM     24  C   UNL     1     -36.803  23.228   3.124  0.00  0.00    +0.148 C 
ATOM     25  C   UNL     1     -36.236  22.195   2.408  0.00  0.00    +0.127 C 
ATOM     26  C   UNL     1     -38.638  22.353   2.302  0.00  0.00    +0.204 C 
ATOM     27  H   UNL     1     -40.228  21.405   1.447  0.00  0.00    +0.145 HD
ATOM     28  H   UNL     1     -40.634  22.752   2.412  0.00  0.00    +0.145 HD
ENDBRANCH  20  24
BRANCH  19  29
ATOM     29  O   UNL     1     -36.274  22.758   5.607  0.00  0.00    -0.373 OA
ATOM     30  C   UNL     1     -35.273  22.088   6.358  0.00  0.00    +0.288 C 
ENDBRANCH  19  29
ENDBRANCH   3  20
TORSDOF 6
ENDMDL
MODEL 8
REMARK VINA RESULT:      -5.7      3.058      7.802
REMARK  Name = 56986002
REMARK  6 active torsions:
REMARK  status: ('A' for Active; 'I' for Inactive)
REMARK    1  A    between atoms: N_2  and  CA_9
REMARK    2  A    between atoms: C_3  and  C_20
REMARK    3  A    between atoms: CA_11  and  C_16
REMARK    4  A    between atoms: C_16  and  O_17
REMARK    5  A    between atoms: N_19  and  O_29
REMARK    6  A    between atoms: C_20  and  C_24
REMARK                            x       y       z     vdW  Elec       q    Type
REMARK                         _______ _______ _______ _____ _____    ______ ____
ROOT
ATOM      1  O   UNL     1     -37.057  27.984   1.390  0.00  0.00    -0.268 OA
ATOM      2  N   UNL     1     -35.542  26.617   2.549  0.00  0.00    -0.291 N 
ATOM      3  C   UNL     1     -36.777  26.998   2.052  0.00  0.00    +0.269 C 
ATOM      4  H   UNL     1     -35.479  25.784   3.070  0.00  0.00    +0.150 HD
ENDROOT
BRANCH   2   9
ATOM      5  S   UNL     1     -33.900  30.219   2.250  0.00  0.00    -0.114 S 
ATOM      6  O   UNL     1     -32.469  25.921   3.305  0.00  0.00    -0.273 OA
ATOM      7  N   UNL     1     -33.012  28.181   3.702  0.00  0.00    -0.242 N 
ATOM      8  C   UNL     1     -34.256  28.701   3.165  0.00  0.00    +0.155 C 
ATOM      9  CA  UNL     1     -34.328  27.401   2.334  0.00  0.00    +0.179 C 
ATOM     10  C   UNL     1     -33.114  26.936   3.188  0.00  0.00    +0.251 C 
ATOM     11  CA  UNL     1     -32.156  28.910   4.464  0.00  0.00    +0.124 C 
ATOM     12  C   UNL     1     -33.240  31.079   3.718  0.00  0.00    +0.083 C 
ATOM     13  C   UNL     1     -32.250  30.259   4.540  0.00  0.00    -0.013 C 
ATOM     14  C   UNL     1     -31.391  31.131   5.427  0.00  0.00    +0.029 C 
BRANCH  11  16
ATOM     15  OXT UNL     1     -29.977  27.983   4.682  0.00  0.00    -0.244 OA
ATOM     16  C   UNL     1     -31.081  28.175   5.149  0.00  0.00    +0.351 C 
BRANCH  16  17
ATOM     17  O   UNL     1     -31.522  27.761   6.354  0.00  0.00    -0.476 OA
ATOM     18  H   UNL     1     -31.825  28.386   6.983  0.00  0.00    +0.295 HD
ENDBRANCH  16  17
ENDBRANCH  11  16
ENDBRANCH   2   9
BRANCH   3  20
ATOM     19  N   UNL     1     -39.099  26.448   2.535  0.00  0.00    -0.076 NA
ATOM     20  C   UNL     1     -37.877  26.029   2.399  0.00  0.00    +0.198 C 
BRANCH  20  24
ATOM     21  S   UNL     1     -37.226  22.102   2.231  0.00  0.00    -0.060 S 
ATOM     22  N   UNL     1     -36.986  24.159   3.779  0.00  0.00    -0.383 NA
ATOM     23  N   UNL     1     -36.246  22.113   4.703  0.00  0.00    -0.328 N 
ATOM     24  C   UNL     1     -37.537  24.593   2.589  0.00  0.00    +0.148 C 
ATOM     25  C   UNL     1     -37.742  23.624   1.630  0.00  0.00    +0.127 C 
ATOM     26  C   UNL     1     -36.780  22.863   3.703  0.00  0.00    +0.204 C 
ATOM     27  H   UNL     1     -36.120  21.145   4.578  0.00  0.00    +0.145 HD
ATOM     28  H   UNL     1     -35.986  22.539   5.552  0.00  0.00    +0.145 HD
ENDBRANCH  20  24
BRANCH  19  29
ATOM     29  O   UNL     1     -39.973  25.402   2.863  0.00  0.00    -0.373 OA
ATOM     30  C   UNL     1     -41.080  25.458   1.976  0.00  0.00    +0.288 C 
ENDBRANCH  19  29
ENDBRANCH   3  20
TORSDOF 6
ENDMDL
MODEL 9
REMARK VINA RESULT:      -5.7      2.483      3.120
REMARK  Name = 56986002
REMARK  6 active torsions:
REMARK  status: ('A' for Active; 'I' for Inactive)
REMARK    1  A    between atoms: N_2  and  CA_9
REMARK    2  A    between atoms: C_3  and  C_20
REMARK    3  A    between atoms: CA_11  and  C_16
REMARK    4  A    between atoms: C_16  and  O_17
REMARK    5  A    between atoms: N_19  and  O_29
REMARK    6  A    between atoms: C_20  and  C_24
REMARK                            x       y       z     vdW  Elec       q    Type
REMARK                         _______ _______ _______ _____ _____    ______ ____
ROOT
ATOM      1  O   UNL     1     -33.520  24.815   4.169  0.00  0.00    -0.268 OA
ATOM      2  N   UNL     1     -34.951  26.013   2.746  0.00  0.00    -0.291 N 
ATOM      3  C   UNL     1     -33.986  25.852   3.726  0.00  0.00    +0.269 C 
ATOM      4  H   UNL     1     -35.224  26.925   2.496  0.00  0.00    +0.150 HD
ENDROOT
BRANCH   2   9
ATOM      5  S   UNL     1     -34.833  23.438  -0.274  0.00  0.00    -0.114 S 
ATOM      6  O   UNL     1     -36.736  23.600   3.967  0.00  0.00    -0.273 OA
ATOM      7  N   UNL     1     -35.252  22.870   2.286  0.00  0.00    -0.242 N 
ATOM      8  C   UNL     1     -34.589  23.867   1.465  0.00  0.00    +0.155 C 
ATOM      9  CA  UNL     1     -35.584  24.884   2.067  0.00  0.00    +0.179 C 
ATOM     10  C   UNL     1     -35.999  23.725   3.017  0.00  0.00    +0.251 C 
ATOM     11  CA  UNL     1     -35.035  21.534   2.174  0.00  0.00    +0.124 C 
ATOM     12  C   UNL     1     -33.977  21.835  -0.113  0.00  0.00    +0.083 C 
ATOM     13  C   UNL     1     -34.404  21.008   1.096  0.00  0.00    -0.013 C 
ATOM     14  C   UNL     1     -34.053  19.547   0.937  0.00  0.00    +0.029 C 
BRANCH  11  16
ATOM     15  OXT UNL     1     -35.104  20.600   4.359  0.00  0.00    -0.244 OA
ATOM     16  C   UNL     1     -35.574  20.678   3.242  0.00  0.00    +0.351 C 
BRANCH  16  17
ATOM     17  O   UNL     1     -36.650  20.011   2.779  0.00  0.00    -0.476 OA
ATOM     18  H   UNL     1     -37.120  20.338   2.037  0.00  0.00    +0.295 HD
ENDBRANCH  16  17
ENDBRANCH  11  16
ENDBRANCH   2   9
BRANCH   3  20
ATOM     19  N   UNL     1     -32.970  27.215   5.469  0.00  0.00    -0.076 NA
ATOM     20  C   UNL     1     -33.480  27.160   4.276  0.00  0.00    +0.198 C 
BRANCH  20  24
ATOM     21  S   UNL     1     -33.073  30.266   1.814  0.00  0.00    -0.060 S 
ATOM     22  N   UNL     1     -34.736  29.141   3.444  0.00  0.00    -0.383 NA
ATOM     23  N   UNL     1     -35.527  31.108   2.398  0.00  0.00    -0.328 N 
ATOM     24  C   UNL     1     -33.582  28.381   3.433  0.00  0.00    +0.148 C 
ATOM     25  C   UNL     1     -32.570  28.832   2.612  0.00  0.00    +0.127 C 
ATOM     26  C   UNL     1     -34.581  30.159   2.626  0.00  0.00    +0.204 C 
ATOM     27  H   UNL     1     -35.343  31.846   1.772  0.00  0.00    +0.145 HD
ATOM     28  H   UNL     1     -36.396  31.057   2.859  0.00  0.00    +0.145 HD
ENDBRANCH  20  24
BRANCH  19  29
ATOM     29  O   UNL     1     -32.564  28.515   5.801  0.00  0.00    -0.373 OA
ATOM     30  C   UNL     1     -31.216  28.456   6.242  0.00  0.00    +0.288 C 
ENDBRANCH  19  29
ENDBRANCH   3  20
TORSDOF 6
ENDMDL
