MODEL 1
REMARK VINA RESULT:      -7.3      0.000      0.000
REMARK  Name = 5458834
REMARK  5 active torsions:
REMARK  status: ('A' for Active; 'I' for Inactive)
REMARK    1  A    between atoms: C_4  and  N_17
REMARK    2  A    between atoms: C_5  and  C_13
REMARK    3  A    between atoms: C_6  and  C_20
REMARK    4  A    between atoms: C_21  and  C_27
REMARK    5  A    between atoms: C_24  and  C_33
REMARK                            x       y       z     vdW  Elec       q    Type
REMARK                         _______ _______ _______ _____ _____    ______ ____
ROOT
ATOM      1  N   UNL     1     -36.993  18.554   0.744  0.00  0.00    -0.352 N 
ATOM      2  C   UNL     1     -37.355  17.590  -0.168  0.00  0.00    +0.058 A 
ATOM      3  C   UNL     1     -36.732  17.911  -1.376  0.00  0.00    +0.030 A 
ATOM      4  C   UNL     1     -35.983  19.101  -1.155  0.00  0.00    +0.059 A 
ATOM      5  C   UNL     1     -38.370  15.653  -1.139  0.00  0.00    +0.033 C 
ATOM      6  C   UNL     1     -36.164  19.472   0.158  0.00  0.00    +0.070 A 
ATOM      7  C   UNL     1     -38.179  16.468  -0.020  0.00  0.00    +0.020 C 
ATOM      8  C   UNL     1     -36.940  17.075  -2.491  0.00  0.00    +0.003 C 
ATOM      9  C   UNL     1     -37.760  15.949  -2.357  0.00  0.00    +0.003 C 
ATOM     10  H   UNL     1     -37.288  18.579   1.684  0.00  0.00    +0.166 HD
ENDROOT
BRANCH   5  13
ATOM     11  N   UNL     1     -38.830  13.249  -1.483  0.00  0.00    -0.296 N 
ATOM     12  N   UNL     1     -40.412  14.527  -0.484  0.00  0.00    -0.228 NA
ATOM     13  C   UNL     1     -39.220  14.477  -1.029  0.00  0.00    +0.132 C 
ATOM     14  C   UNL     1     -39.851  12.275  -1.240  0.00  0.00    +0.084 C 
ATOM     15  C   UNL     1     -40.932  13.131  -0.574  0.00  0.00    +0.116 C 
ATOM     16  H   UNL     1     -37.967  13.061  -1.917  0.00  0.00    +0.154 HD
ENDBRANCH   5  13
BRANCH   4  17
ATOM     17  N   UNL     1     -35.229  19.753  -2.069  0.00  0.00    -0.356 N 
ATOM     18  H   UNL     1     -35.348  19.564  -3.028  0.00  0.00    +0.142 HD
ATOM     19  H   UNL     1     -34.563  20.415  -1.776  0.00  0.00    +0.142 HD
ENDBRANCH   4  17
BRANCH   6  20
ATOM     20  C   UNL     1     -35.696  20.533   0.951  0.00  0.00    +0.021 C 
ATOM     21  C   UNL     1     -36.481  21.274   1.779  0.00  0.00    +0.039 C 
BRANCH  21  27
ATOM     22  O   UNL     1     -36.690  22.812   3.642  0.00  0.00    -0.453 OA
ATOM     23  C   UNL     1     -34.836  24.075   3.377  0.00  0.00    +0.038 C 
ATOM     24  C   UNL     1     -34.282  25.890   4.872  0.00  0.00    +0.032 C 
ATOM     25  C   UNL     1     -35.973  23.856   4.148  0.00  0.00    +0.145 C 
ATOM     26  C   UNL     1     -33.966  25.117   3.746  0.00  0.00    +0.006 C 
ATOM     27  C   UNL     1     -36.010  22.378   2.563  0.00  0.00    +0.145 C 
ATOM     28  C   UNL     1     -34.874  23.101   2.347  0.00  0.00    +0.041 C 
ATOM     29  C   UNL     1     -35.436  25.638   5.619  0.00  0.00    +0.006 C 
ATOM     30  C   UNL     1     -36.314  24.607   5.271  0.00  0.00    +0.038 C 
BRANCH  24  33
ATOM     31  N   UNL     1     -33.090  28.009   4.431  0.00  0.00    -0.296 N 
ATOM     32  N   UNL     1     -32.830  27.015   6.450  0.00  0.00    -0.228 NA
ATOM     33  C   UNL     1     -33.393  26.973   5.267  0.00  0.00    +0.132 C 
ATOM     34  C   UNL     1     -32.204  28.932   5.074  0.00  0.00    +0.084 C 
ATOM     35  C   UNL     1     -32.012  28.263   6.438  0.00  0.00    +0.116 C 
ATOM     36  H   UNL     1     -33.434  28.108   3.514  0.00  0.00    +0.154 HD
ENDBRANCH  24  33
ENDBRANCH  21  27
ENDBRANCH   6  20
TORSDOF 5
ENDMDL
MODEL 2
REMARK VINA RESULT:      -7.1      1.652      2.141
REMARK  Name = 5458834
REMARK  5 active torsions:
REMARK  status: ('A' for Active; 'I' for Inactive)
REMARK    1  A    between atoms: C_4  and  N_17
REMARK    2  A    between atoms: C_5  and  C_13
REMARK    3  A    between atoms: C_6  and  C_20
REMARK    4  A    between atoms: C_21  and  C_27
REMARK    5  A    between atoms: C_24  and  C_33
REMARK                            x       y       z     vdW  Elec       q    Type
REMARK                         _______ _______ _______ _____ _____    ______ ____
ROOT
ATOM      1  N   UNL     1     -35.563  18.354   0.372  0.00  0.00    -0.352 N 
ATOM      2  C   UNL     1     -36.206  17.337  -0.294  0.00  0.00    +0.058 A 
ATOM      3  C   UNL     1     -37.508  17.772  -0.552  0.00  0.00    +0.030 A 
ATOM      4  C   UNL     1     -37.621  19.087  -0.018  0.00  0.00    +0.059 A 
ATOM      5  C   UNL     1     -36.634  15.237  -1.359  0.00  0.00    +0.033 C 
ATOM      6  C   UNL     1     -36.409  19.417   0.544  0.00  0.00    +0.070 A 
ATOM      7  C   UNL     1     -35.741  16.076  -0.685  0.00  0.00    +0.020 C 
ATOM      8  C   UNL     1     -38.390  16.910  -1.232  0.00  0.00    +0.003 C 
ATOM      9  C   UNL     1     -37.938  15.646  -1.630  0.00  0.00    +0.003 C 
ATOM     10  H   UNL     1     -34.627  18.323   0.680  0.00  0.00    +0.166 HD
ENDROOT
BRANCH   5  13
ATOM     11  N   UNL     1     -37.044  12.854  -1.866  0.00  0.00    -0.296 N 
ATOM     12  N   UNL     1     -34.946  13.672  -2.111  0.00  0.00    -0.228 NA
ATOM     13  C   UNL     1     -36.192  13.917  -1.782  0.00  0.00    +0.132 C 
ATOM     14  C   UNL     1     -36.349  11.685  -2.315  0.00  0.00    +0.084 C 
ATOM     15  C   UNL     1     -34.925  12.225  -2.473  0.00  0.00    +0.116 C 
ATOM     16  H   UNL     1     -38.003  12.886  -1.647  0.00  0.00    +0.154 HD
ENDBRANCH   5  13
BRANCH   4  17
ATOM     17  N   UNL     1     -38.721  19.872  -0.053  0.00  0.00    -0.356 N 
ATOM     18  H   UNL     1     -39.558  19.565   0.366  0.00  0.00    +0.142 HD
ATOM     19  H   UNL     1     -38.686  20.749  -0.498  0.00  0.00    +0.142 HD
ENDBRANCH   4  17
BRANCH   6  20
ATOM     20  C   UNL     1     -35.912  20.549   1.211  0.00  0.00    +0.021 C 
ATOM     21  C   UNL     1     -36.539  21.162   2.250  0.00  0.00    +0.039 C 
BRANCH  21  27
ATOM     22  O   UNL     1     -36.720  22.900   3.932  0.00  0.00    -0.453 OA
ATOM     23  C   UNL     1     -34.844  24.094   3.533  0.00  0.00    +0.038 C 
ATOM     24  C   UNL     1     -34.258  26.052   4.819  0.00  0.00    +0.032 C 
ATOM     25  C   UNL     1     -35.985  23.980   4.321  0.00  0.00    +0.145 C 
ATOM     26  C   UNL     1     -33.957  25.154   3.785  0.00  0.00    +0.006 C 
ATOM     27  C   UNL     1     -36.048  22.338   2.909  0.00  0.00    +0.145 C 
ATOM     28  C   UNL     1     -34.900  23.013   2.615  0.00  0.00    +0.041 C 
ATOM     29  C   UNL     1     -35.416  25.904   5.587  0.00  0.00    +0.006 C 
ATOM     30  C   UNL     1     -36.312  24.857   5.354  0.00  0.00    +0.038 C 
BRANCH  24  33
ATOM     31  N   UNL     1     -33.159  28.180   4.210  0.00  0.00    -0.296 N 
ATOM     32  N   UNL     1     -32.662  27.232   6.206  0.00  0.00    -0.228 NA
ATOM     33  C   UNL     1     -33.350  27.156   5.093  0.00  0.00    +0.132 C 
ATOM     34  C   UNL     1     -32.224  29.129   4.734  0.00  0.00    +0.084 C 
ATOM     35  C   UNL     1     -31.872  28.491   6.080  0.00  0.00    +0.116 C 
ATOM     36  H   UNL     1     -33.603  28.255   3.334  0.00  0.00    +0.154 HD
ENDBRANCH  24  33
ENDBRANCH  21  27
ENDBRANCH   6  20
TORSDOF 5
ENDMDL
MODEL 3
REMARK VINA RESULT:      -7.1      3.501     11.963
REMARK  Name = 5458834
REMARK  5 active torsions:
REMARK  status: ('A' for Active; 'I' for Inactive)
REMARK    1  A    between atoms: C_4  and  N_17
REMARK    2  A    between atoms: C_5  and  C_13
REMARK    3  A    between atoms: C_6  and  C_20
REMARK    4  A    between atoms: C_21  and  C_27
REMARK    5  A    between atoms: C_24  and  C_33
REMARK                            x       y       z     vdW  Elec       q    Type
REMARK                         _______ _______ _______ _____ _____    ______ ____
ROOT
ATOM      1  N   UNL     1     -34.982  23.043   2.332  0.00  0.00    -0.352 N 
ATOM      2  C   UNL     1     -35.048  24.190   3.090  0.00  0.00    +0.058 A 
ATOM      3  C   UNL     1     -35.406  23.807   4.385  0.00  0.00    +0.030 A 
ATOM      4  C   UNL     1     -35.551  22.391   4.375  0.00  0.00    +0.059 A 
ATOM      5  C   UNL     1     -34.964  26.493   3.731  0.00  0.00    +0.033 C 
ATOM      6  C   UNL     1     -35.285  21.951   3.099  0.00  0.00    +0.070 A 
ATOM      7  C   UNL     1     -34.821  25.524   2.734  0.00  0.00    +0.020 C 
ATOM      8  C   UNL     1     -35.545  24.802   5.372  0.00  0.00    +0.003 C 
ATOM      9  C   UNL     1     -35.320  26.140   5.031  0.00  0.00    +0.003 C 
ATOM     10  H   UNL     1     -34.751  23.014   1.375  0.00  0.00    +0.166 HD
ENDROOT
BRANCH   5  13
ATOM     11  N   UNL     1     -35.655  28.640   2.721  0.00  0.00    -0.296 N 
ATOM     12  N   UNL     1     -33.638  28.519   3.745  0.00  0.00    -0.228 NA
ATOM     13  C   UNL     1     -34.738  27.893   3.403  0.00  0.00    +0.132 C 
ATOM     14  C   UNL     1     -35.181  29.980   2.543  0.00  0.00    +0.084 C 
ATOM     15  C   UNL     1     -33.811  29.906   3.223  0.00  0.00    +0.116 C 
ATOM     16  H   UNL     1     -36.522  28.305   2.397  0.00  0.00    +0.154 HD
ENDBRANCH   5  13
BRANCH   4  17
ATOM     17  N   UNL     1     -35.891  21.616   5.429  0.00  0.00    -0.356 N 
ATOM     18  H   UNL     1     -36.085  22.029   6.302  0.00  0.00    +0.142 HD
ATOM     19  H   UNL     1     -35.946  20.639   5.325  0.00  0.00    +0.142 HD
ENDBRANCH   4  17
BRANCH   6  20
ATOM     20  C   UNL     1     -35.266  20.690   2.480  0.00  0.00    +0.021 C 
ATOM     21  C   UNL     1     -34.399  20.334   1.494  0.00  0.00    +0.039 C 
BRANCH  21  27
ATOM     22  O   UNL     1     -35.457  18.647   0.109  0.00  0.00    -0.453 OA
ATOM     23  C   UNL     1     -33.861  17.049   0.069  0.00  0.00    +0.038 C 
ATOM     24  C   UNL     1     -34.137  14.974  -1.136  0.00  0.00    +0.032 C 
ATOM     25  C   UNL     1     -35.131  17.412  -0.367  0.00  0.00    +0.145 C 
ATOM     26  C   UNL     1     -33.349  15.800  -0.323  0.00  0.00    +0.006 C 
ATOM     27  C   UNL     1     -34.401  19.058   0.839  0.00  0.00    +0.145 C 
ATOM     28  C   UNL     1     -33.398  18.135   0.856  0.00  0.00    +0.041 C 
ATOM     29  C   UNL     1     -35.409  15.376  -1.552  0.00  0.00    +0.006 C 
ATOM     30  C   UNL     1     -35.939  16.614  -1.175  0.00  0.00    +0.038 C 
BRANCH  24  33
ATOM     31  N   UNL     1     -34.191  12.504  -1.145  0.00  0.00    -0.296 N 
ATOM     32  N   UNL     1     -32.581  13.561  -2.337  0.00  0.00    -0.228 NA
ATOM     33  C   UNL     1     -33.623  13.678  -1.550  0.00  0.00    +0.132 C 
ATOM     34  C   UNL     1     -33.492  11.386  -1.704  0.00  0.00    +0.084 C 
ATOM     35  C   UNL     1     -32.393  12.090  -2.504  0.00  0.00    +0.116 C 
ATOM     36  H   UNL     1     -34.973  12.436  -0.551  0.00  0.00    +0.154 HD
ENDBRANCH  24  33
ENDBRANCH  21  27
ENDBRANCH   6  20
TORSDOF 5
ENDMDL
MODEL 4
REMARK VINA RESULT:      -7.1      6.195     11.369
REMARK  Name = 5458834
REMARK  5 active torsions:
REMARK  status: ('A' for Active; 'I' for Inactive)
REMARK    1  A    between atoms: C_4  and  N_17
REMARK    2  A    between atoms: C_5  and  C_13
REMARK    3  A    between atoms: C_6  and  C_20
REMARK    4  A    between atoms: C_21  and  C_27
REMARK    5  A    between atoms: C_24  and  C_33
REMARK                            x       y       z     vdW  Elec       q    Type
REMARK                         _______ _______ _______ _____ _____    ______ ____
ROOT
ATOM      1  N   UNL     1     -40.628  25.913   3.185  0.00  0.00    -0.352 N 
ATOM      2  C   UNL     1     -41.791  26.637   3.314  0.00  0.00    +0.058 A 
ATOM      3  C   UNL     1     -42.674  26.174   2.336  0.00  0.00    +0.030 A 
ATOM      4  C   UNL     1     -41.998  25.147   1.618  0.00  0.00    +0.059 A 
ATOM      5  C   UNL     1     -43.403  28.218   4.105  0.00  0.00    +0.033 C 
ATOM      6  C   UNL     1     -40.743  25.010   2.163  0.00  0.00    +0.070 A 
ATOM      7  C   UNL     1     -42.127  27.656   4.212  0.00  0.00    +0.020 C 
ATOM      8  C   UNL     1     -43.954  26.755   2.248  0.00  0.00    +0.003 C 
ATOM      9  C   UNL     1     -44.305  27.775   3.139  0.00  0.00    +0.003 C 
ATOM     10  H   UNL     1     -39.827  26.028   3.748  0.00  0.00    +0.166 HD
ENDROOT
BRANCH   5  13
ATOM     11  N   UNL     1     -45.097  29.643   5.203  0.00  0.00    -0.296 N 
ATOM     12  N   UNL     1     -42.914  29.953   5.722  0.00  0.00    -0.228 NA
ATOM     13  C   UNL     1     -43.793  29.281   5.019  0.00  0.00    +0.132 C 
ATOM     14  C   UNL     1     -45.195  30.705   6.159  0.00  0.00    +0.084 C 
ATOM     15  C   UNL     1     -43.721  30.930   6.509  0.00  0.00    +0.116 C 
ATOM     16  H   UNL     1     -45.863  29.232   4.742  0.00  0.00    +0.154 HD
ENDBRANCH   5  13
BRANCH   4  17
ATOM     17  N   UNL     1     -42.499  24.434   0.584  0.00  0.00    -0.356 N 
ATOM     18  H   UNL     1     -42.064  23.594   0.309  0.00  0.00    +0.142 HD
ATOM     19  H   UNL     1     -43.298  24.753   0.107  0.00  0.00    +0.142 HD
ENDBRANCH   4  17
BRANCH   6  20
ATOM     20  C   UNL     1     -39.640  24.184   1.891  0.00  0.00    +0.021 C 
ATOM     21  C   UNL     1     -39.618  22.841   2.104  0.00  0.00    +0.039 C 
BRANCH  21  27
ATOM     22  O   UNL     1     -37.374  22.080   2.624  0.00  0.00    -0.453 OA
ATOM     23  C   UNL     1     -37.069  20.501   1.038  0.00  0.00    +0.038 C 
ATOM     24  C   UNL     1     -35.027  19.224   0.859  0.00  0.00    +0.032 C 
ATOM     25  C   UNL     1     -36.502  21.159   2.125  0.00  0.00    +0.145 C 
ATOM     26  C   UNL     1     -36.315  19.508   0.387  0.00  0.00    +0.006 C 
ATOM     27  C   UNL     1     -38.480  22.003   1.858  0.00  0.00    +0.145 C 
ATOM     28  C   UNL     1     -38.361  21.064   0.877  0.00  0.00    +0.041 C 
ATOM     29  C   UNL     1     -34.493  19.909   1.954  0.00  0.00    +0.006 C 
ATOM     30  C   UNL     1     -35.225  20.899   2.617  0.00  0.00    +0.038 C 
BRANCH  24  33
ATOM     31  N   UNL     1     -34.527  16.870   0.299  0.00  0.00    -0.296 N 
ATOM     32  N   UNL     1     -33.187  18.495  -0.536  0.00  0.00    -0.228 NA
ATOM     33  C   UNL     1     -34.233  18.200   0.197  0.00  0.00    +0.132 C 
ATOM     34  C   UNL     1     -33.592  16.089  -0.454  0.00  0.00    +0.084 C 
ATOM     35  C   UNL     1     -32.673  17.178  -1.014  0.00  0.00    +0.116 C 
ATOM     36  H   UNL     1     -35.277  16.500   0.818  0.00  0.00    +0.154 HD
ENDBRANCH  24  33
ENDBRANCH  21  27
ENDBRANCH   6  20
TORSDOF 5
ENDMDL
MODEL 5
REMARK VINA RESULT:      -7.0      2.727     12.114
REMARK  Name = 5458834
REMARK  5 active torsions:
REMARK  status: ('A' for Active; 'I' for Inactive)
REMARK    1  A    between atoms: C_4  and  N_17
REMARK    2  A    between atoms: C_5  and  C_13
REMARK    3  A    between atoms: C_6  and  C_20
REMARK    4  A    between atoms: C_21  and  C_27
REMARK    5  A    between atoms: C_24  and  C_33
REMARK                            x       y       z     vdW  Elec       q    Type
REMARK                         _______ _______ _______ _____ _____    ______ ____
ROOT
ATOM      1  N   UNL     1     -35.039  23.149   2.465  0.00  0.00    -0.352 N 
ATOM      2  C   UNL     1     -34.972  24.273   3.254  0.00  0.00    +0.058 A 
ATOM      3  C   UNL     1     -35.270  23.877   4.560  0.00  0.00    +0.030 A 
ATOM      4  C   UNL     1     -35.517  22.476   4.524  0.00  0.00    +0.059 A 
ATOM      5  C   UNL     1     -34.680  26.545   3.947  0.00  0.00    +0.033 C 
ATOM      6  C   UNL     1     -35.368  22.057   3.222  0.00  0.00    +0.070 A 
ATOM      7  C   UNL     1     -34.673  25.598   2.918  0.00  0.00    +0.020 C 
ATOM      8  C   UNL     1     -35.271  24.849   5.581  0.00  0.00    +0.003 C 
ATOM      9  C   UNL     1     -34.973  26.178   5.259  0.00  0.00    +0.003 C 
ATOM     10  H   UNL     1     -34.873  23.132   1.493  0.00  0.00    +0.166 HD
ENDROOT
BRANCH   5  13
ATOM     11  N   UNL     1     -35.276  28.762   3.034  0.00  0.00    -0.296 N 
ATOM     12  N   UNL     1     -33.216  28.474   3.932  0.00  0.00    -0.228 NA
ATOM     13  C   UNL     1     -34.375  27.934   3.641  0.00  0.00    +0.132 C 
ATOM     14  C   UNL     1     -34.720  30.071   2.861  0.00  0.00    +0.084 C 
ATOM     15  C   UNL     1     -33.321  29.884   3.455  0.00  0.00    +0.116 C 
ATOM     16  H   UNL     1     -36.181  28.496   2.754  0.00  0.00    +0.154 HD
ENDBRANCH   5  13
BRANCH   4  17
ATOM     17  N   UNL     1     -35.842  21.695   5.579  0.00  0.00    -0.356 N 
ATOM     18  H   UNL     1     -36.785  21.476   5.757  0.00  0.00    +0.142 HD
ATOM     19  H   UNL     1     -35.136  21.345   6.168  0.00  0.00    +0.142 HD
ENDBRANCH   4  17
BRANCH   6  20
ATOM     20  C   UNL     1     -35.481  20.818   2.571  0.00  0.00    +0.021 C 
ATOM     21  C   UNL     1     -34.745  20.453   1.487  0.00  0.00    +0.039 C 
BRANCH  21  27
ATOM     22  O   UNL     1     -33.891  18.289   0.797  0.00  0.00    -0.453 OA
ATOM     23  C   UNL     1     -35.639  17.485  -0.385  0.00  0.00    +0.038 C 
ATOM     24  C   UNL     1     -35.598  15.313  -1.440  0.00  0.00    +0.032 C 
ATOM     25  C   UNL     1     -34.349  17.232   0.069  0.00  0.00    +0.145 C 
ATOM     26  C   UNL     1     -36.282  16.503  -1.159  0.00  0.00    +0.006 C 
ATOM     27  C   UNL     1     -34.884  19.200   0.802  0.00  0.00    +0.145 C 
ATOM     28  C   UNL     1     -35.974  18.775   0.102  0.00  0.00    +0.041 C 
ATOM     29  C   UNL     1     -34.301  15.098  -0.965  0.00  0.00    +0.006 C 
ATOM     30  C   UNL     1     -33.643  16.060  -0.194  0.00  0.00    +0.038 C 
BRANCH  24  33
ATOM     31  N   UNL     1     -36.301  12.979  -1.846  0.00  0.00    -0.296 N 
ATOM     32  N   UNL     1     -36.822  14.556  -3.388  0.00  0.00    -0.228 NA
ATOM     33  C   UNL     1     -36.249  14.286  -2.240  0.00  0.00    +0.132 C 
ATOM     34  C   UNL     1     -37.003  12.190  -2.814  0.00  0.00    +0.084 C 
ATOM     35  C   UNL     1     -37.350  13.245  -3.867  0.00  0.00    +0.116 C 
ATOM     36  H   UNL     1     -35.911  12.629  -1.013  0.00  0.00    +0.154 HD
ENDBRANCH  24  33
ENDBRANCH  21  27
ENDBRANCH   6  20
TORSDOF 5
ENDMDL
MODEL 6
REMARK VINA RESULT:      -7.0      5.668      8.110
REMARK  Name = 5458834
REMARK  5 active torsions:
REMARK  status: ('A' for Active; 'I' for Inactive)
REMARK    1  A    between atoms: C_4  and  N_17
REMARK    2  A    between atoms: C_5  and  C_13
REMARK    3  A    between atoms: C_6  and  C_20
REMARK    4  A    between atoms: C_21  and  C_27
REMARK    5  A    between atoms: C_24  and  C_33
REMARK                            x       y       z     vdW  Elec       q    Type
REMARK                         _______ _______ _______ _____ _____    ______ ____
ROOT
ATOM      1  N   UNL     1     -34.916  22.569   1.017  0.00  0.00    -0.352 N 
ATOM      2  C   UNL     1     -34.037  21.543   0.759  0.00  0.00    +0.058 A 
ATOM      3  C   UNL     1     -34.589  20.381   1.303  0.00  0.00    +0.030 A 
ATOM      4  C   UNL     1     -35.831  20.748   1.896  0.00  0.00    +0.059 A 
ATOM      5  C   UNL     1     -32.122  20.338  -0.020  0.00  0.00    +0.033 C 
ATOM      6  C   UNL     1     -36.004  22.099   1.704  0.00  0.00    +0.070 A 
ATOM      7  C   UNL     1     -32.807  21.552   0.093  0.00  0.00    +0.020 C 
ATOM      8  C   UNL     1     -33.881  19.170   1.178  0.00  0.00    +0.003 C 
ATOM      9  C   UNL     1     -32.650  19.164   0.513  0.00  0.00    +0.003 C 
ATOM     10  H   UNL     1     -34.782  23.507   0.747  0.00  0.00    +0.166 HD
ENDROOT
BRANCH   5  13
ATOM     11  N   UNL     1     -30.383  19.186  -1.344  0.00  0.00    -0.296 N 
ATOM     12  N   UNL     1     -30.045  21.346  -0.751  0.00  0.00    -0.228 NA
ATOM     13  C   UNL     1     -30.839  20.304  -0.705  0.00  0.00    +0.132 C 
ATOM     14  C   UNL     1     -29.103  19.433  -1.937  0.00  0.00    +0.084 C 
ATOM     15  C   UNL     1     -28.859  20.889  -1.532  0.00  0.00    +0.116 C 
ATOM     16  H   UNL     1     -30.866  18.330  -1.390  0.00  0.00    +0.154 HD
ENDBRANCH   5  13
BRANCH   4  17
ATOM     17  N   UNL     1     -36.687  19.918   2.534  0.00  0.00    -0.356 N 
ATOM     18  H   UNL     1     -37.203  20.244   3.306  0.00  0.00    +0.142 HD
ATOM     19  H   UNL     1     -36.794  18.990   2.226  0.00  0.00    +0.142 HD
ENDBRANCH   4  17
BRANCH   6  20
ATOM     20  C   UNL     1     -37.006  23.019   2.052  0.00  0.00    +0.021 C 
ATOM     21  C   UNL     1     -38.307  22.915   1.670  0.00  0.00    +0.039 C 
BRANCH  21  27
ATOM     22  O   UNL     1     -40.423  24.017   1.233  0.00  0.00    -0.453 OA
ATOM     23  C   UNL     1     -40.531  25.462   2.966  0.00  0.00    +0.038 C 
ATOM     24  C   UNL     1     -42.388  26.975   3.276  0.00  0.00    +0.032 C 
ATOM     25  C   UNL     1     -41.170  24.993   1.822  0.00  0.00    +0.145 C 
ATOM     26  C   UNL     1     -41.153  26.477   3.713  0.00  0.00    +0.006 C 
ATOM     27  C   UNL     1     -39.324  23.872   1.998  0.00  0.00    +0.145 C 
ATOM     28  C   UNL     1     -39.326  24.719   3.067  0.00  0.00    +0.041 C 
ATOM     29  C   UNL     1     -42.997  26.477   2.120  0.00  0.00    +0.006 C 
ATOM     30  C   UNL     1     -42.397  25.467   1.362  0.00  0.00    +0.038 C 
BRANCH  24  33
ATOM     31  N   UNL     1     -44.405  28.140   4.100  0.00  0.00    -0.296 N 
ATOM     32  N   UNL     1     -42.370  28.927   4.708  0.00  0.00    -0.228 NA
ATOM     33  C   UNL     1     -43.046  28.026   4.037  0.00  0.00    +0.132 C 
ATOM     34  C   UNL     1     -44.780  29.252   4.919  0.00  0.00    +0.084 C 
ATOM     35  C   UNL     1     -43.410  29.800   5.327  0.00  0.00    +0.116 C 
ATOM     36  H   UNL     1     -45.039  27.540   3.644  0.00  0.00    +0.154 HD
ENDBRANCH  24  33
ENDBRANCH  21  27
ENDBRANCH   6  20
TORSDOF 5
ENDMDL
MODEL 7
REMARK VINA RESULT:      -6.9      2.348     12.157
REMARK  Name = 5458834
REMARK  5 active torsions:
REMARK  status: ('A' for Active; 'I' for Inactive)
REMARK    1  A    between atoms: C_4  and  N_17
REMARK    2  A    between atoms: C_5  and  C_13
REMARK    3  A    between atoms: C_6  and  C_20
REMARK    4  A    between atoms: C_21  and  C_27
REMARK    5  A    between atoms: C_24  and  C_33
REMARK                            x       y       z     vdW  Elec       q    Type
REMARK                         _______ _______ _______ _____ _____    ______ ____
ROOT
ATOM      1  N   UNL     1     -34.833  23.401   2.761  0.00  0.00    -0.352 N 
ATOM      2  C   UNL     1     -34.538  24.461   3.586  0.00  0.00    +0.058 A 
ATOM      3  C   UNL     1     -34.949  24.107   4.874  0.00  0.00    +0.030 A 
ATOM      4  C   UNL     1     -35.500  22.797   4.789  0.00  0.00    +0.059 A 
ATOM      5  C   UNL     1     -33.768  26.592   4.354  0.00  0.00    +0.033 C 
ATOM      6  C   UNL     1     -35.415  22.390   3.478  0.00  0.00    +0.070 A 
ATOM      7  C   UNL     1     -33.945  25.695   3.297  0.00  0.00    +0.020 C 
ATOM      8  C   UNL     1     -34.761  25.028   5.923  0.00  0.00    +0.003 C 
ATOM      9  C   UNL     1     -34.168  26.265   5.649  0.00  0.00    +0.003 C 
ATOM     10  H   UNL     1     -34.651  23.373   1.793  0.00  0.00    +0.166 HD
ENDROOT
BRANCH   5  13
ATOM     11  N   UNL     1     -32.564  28.623   5.083  0.00  0.00    -0.296 N 
ATOM     12  N   UNL     1     -33.135  28.422   2.900  0.00  0.00    -0.228 NA
ATOM     13  C   UNL     1     -33.155  27.887   4.097  0.00  0.00    +0.132 C 
ATOM     14  C   UNL     1     -32.038  29.845   4.552  0.00  0.00    +0.084 C 
ATOM     15  C   UNL     1     -32.429  29.724   3.077  0.00  0.00    +0.116 C 
ATOM     16  H   UNL     1     -32.508  28.352   6.027  0.00  0.00    +0.154 HD
ENDBRANCH   5  13
BRANCH   4  17
ATOM     17  N   UNL     1     -36.016  22.081   5.813  0.00  0.00    -0.356 N 
ATOM     18  H   UNL     1     -36.284  21.144   5.672  0.00  0.00    +0.142 HD
ATOM     19  H   UNL     1     -36.123  22.495   6.699  0.00  0.00    +0.142 HD
ENDBRANCH   4  17
BRANCH   6  20
ATOM     20  C   UNL     1     -35.783  21.224   2.787  0.00  0.00    +0.021 C 
ATOM     21  C   UNL     1     -35.375  20.921   1.525  0.00  0.00    +0.039 C 
BRANCH  21  27
ATOM     22  O   UNL     1     -37.068  19.528   0.488  0.00  0.00    -0.453 OA
ATOM     23  C   UNL     1     -35.815  17.815  -0.283  0.00  0.00    +0.038 C 
ATOM     24  C   UNL     1     -36.772  15.947  -1.479  0.00  0.00    +0.032 C 
ATOM     25  C   UNL     1     -37.099  18.342  -0.183  0.00  0.00    +0.145 C 
ATOM     26  C   UNL     1     -35.644  16.587  -0.947  0.00  0.00    +0.006 C 
ATOM     27  C   UNL     1     -35.778  19.746   0.807  0.00  0.00    +0.145 C 
ATOM     28  C   UNL     1     -34.964  18.744   0.369  0.00  0.00    +0.041 C 
ATOM     29  C   UNL     1     -38.045  16.510  -1.356  0.00  0.00    +0.006 C 
ATOM     30  C   UNL     1     -38.238  17.730  -0.701  0.00  0.00    +0.038 C 
BRANCH  24  33
ATOM     31  N   UNL     1     -37.190  13.523  -1.716  0.00  0.00    -0.296 N 
ATOM     32  N   UNL     1     -35.905  14.562  -3.266  0.00  0.00    -0.228 NA
ATOM     33  C   UNL     1     -36.613  14.676  -2.169  0.00  0.00    +0.132 C 
ATOM     34  C   UNL     1     -36.878  12.429  -2.585  0.00  0.00    +0.084 C 
ATOM     35  C   UNL     1     -35.999  13.118  -3.631  0.00  0.00    +0.116 C 
ATOM     36  H   UNL     1     -37.744  13.455  -0.904  0.00  0.00    +0.154 HD
ENDBRANCH  24  33
ENDBRANCH  21  27
ENDBRANCH   6  20
TORSDOF 5
ENDMDL
MODEL 8
REMARK VINA RESULT:      -6.9      6.110     10.624
REMARK  Name = 5458834
REMARK  5 active torsions:
REMARK  status: ('A' for Active; 'I' for Inactive)
REMARK    1  A    between atoms: C_4  and  N_17
REMARK    2  A    between atoms: C_5  and  C_13
REMARK    3  A    between atoms: C_6  and  C_20
REMARK    4  A    between atoms: C_21  and  C_27
REMARK    5  A    between atoms: C_24  and  C_33
REMARK                            x       y       z     vdW  Elec       q    Type
REMARK                         _______ _______ _______ _____ _____    ______ ____
ROOT
ATOM      1  N   UNL     1     -40.087  25.529   3.370  0.00  0.00    -0.352 N 
ATOM      2  C   UNL     1     -41.264  26.240   3.303  0.00  0.00    +0.058 A 
ATOM      3  C   UNL     1     -41.978  25.750   2.207  0.00  0.00    +0.030 A 
ATOM      4  C   UNL     1     -41.188  24.721   1.621  0.00  0.00    +0.059 A 
ATOM      5  C   UNL     1     -42.997  27.811   3.805  0.00  0.00    +0.033 C 
ATOM      6  C   UNL     1     -40.031  24.609   2.358  0.00  0.00    +0.070 A 
ATOM      7  C   UNL     1     -41.747  27.268   4.119  0.00  0.00    +0.020 C 
ATOM      8  C   UNL     1     -43.235  26.313   1.909  0.00  0.00    +0.003 C 
ATOM      9  C   UNL     1     -43.731  27.341   2.718  0.00  0.00    +0.003 C 
ATOM     10  H   UNL     1     -39.386  25.664   4.049  0.00  0.00    +0.166 HD
ENDROOT
BRANCH   5  13
ATOM     11  N   UNL     1     -44.872  29.161   4.679  0.00  0.00    -0.296 N 
ATOM     12  N   UNL     1     -42.770  29.643   5.372  0.00  0.00    -0.228 NA
ATOM     13  C   UNL     1     -43.537  28.882   4.628  0.00  0.00    +0.132 C 
ATOM     14  C   UNL     1     -45.125  30.254   5.570  0.00  0.00    +0.084 C 
ATOM     15  C   UNL     1     -43.707  30.595   6.036  0.00  0.00    +0.116 C 
ATOM     16  H   UNL     1     -45.565  28.679   4.173  0.00  0.00    +0.154 HD
ENDBRANCH   5  13
BRANCH   4  17
ATOM     17  N   UNL     1     -41.513  23.985   0.533  0.00  0.00    -0.356 N 
ATOM     18  H   UNL     1     -41.833  24.431  -0.284  0.00  0.00    +0.142 HD
ATOM     19  H   UNL     1     -41.429  23.006   0.559  0.00  0.00    +0.142 HD
ENDBRANCH   4  17
BRANCH   6  20
ATOM     20  C   UNL     1     -38.891  23.794   2.276  0.00  0.00    +0.021 C 
ATOM     21  C   UNL     1     -38.033  23.780   1.220  0.00  0.00    +0.039 C 
BRANCH  21  27
ATOM     22  O   UNL     1     -36.847  21.732   1.750  0.00  0.00    -0.453 OA
ATOM     23  C   UNL     1     -34.913  22.042   0.625  0.00  0.00    +0.038 C 
ATOM     24  C   UNL     1     -33.135  20.408   0.634  0.00  0.00    +0.032 C 
ATOM     25  C   UNL     1     -35.636  21.184   1.448  0.00  0.00    +0.145 C 
ATOM     26  C   UNL     1     -33.631  21.646   0.205  0.00  0.00    +0.006 C 
ATOM     27  C   UNL     1     -36.887  22.923   1.122  0.00  0.00    +0.145 C 
ATOM     28  C   UNL     1     -35.745  23.173   0.421  0.00  0.00    +0.041 C 
ATOM     29  C   UNL     1     -33.893  19.576   1.462  0.00  0.00    +0.006 C 
ATOM     30  C   UNL     1     -35.170  19.948   1.891  0.00  0.00    +0.038 C 
BRANCH  24  33
ATOM     31  N   UNL     1     -31.281  18.775   0.566  0.00  0.00    -0.296 N 
ATOM     32  N   UNL     1     -31.043  20.738  -0.541  0.00  0.00    -0.228 NA
ATOM     33  C   UNL     1     -31.809  19.983   0.209  0.00  0.00    +0.132 C 
ATOM     34  C   UNL     1     -29.973  18.613   0.008  0.00  0.00    +0.084 C 
ATOM     35  C   UNL     1     -29.796  19.941  -0.734  0.00  0.00    +0.116 C 
ATOM     36  H   UNL     1     -31.738  18.108   1.128  0.00  0.00    +0.154 HD
ENDBRANCH  24  33
ENDBRANCH  21  27
ENDBRANCH   6  20
TORSDOF 5
ENDMDL
MODEL 9
REMARK VINA RESULT:      -6.8      5.603      6.890
REMARK  Name = 5458834
REMARK  5 active torsions:
REMARK  status: ('A' for Active; 'I' for Inactive)
REMARK    1  A    between atoms: C_4  and  N_17
REMARK    2  A    between atoms: C_5  and  C_13
REMARK    3  A    between atoms: C_6  and  C_20
REMARK    4  A    between atoms: C_21  and  C_27
REMARK    5  A    between atoms: C_24  and  C_33
REMARK                            x       y       z     vdW  Elec       q    Type
REMARK                         _______ _______ _______ _____ _____    ______ ____
ROOT
ATOM      1  N   UNL     1     -37.830  20.912   1.421  0.00  0.00    -0.352 N 
ATOM      2  C   UNL     1     -36.779  20.084   1.104  0.00  0.00    +0.058 A 
ATOM      3  C   UNL     1     -35.627  20.651   1.654  0.00  0.00    +0.030 A 
ATOM      4  C   UNL     1     -36.027  21.848   2.314  0.00  0.00    +0.059 A 
ATOM      5  C   UNL     1     -35.521  18.254   0.212  0.00  0.00    +0.033 C 
ATOM      6  C   UNL     1     -37.387  21.981   2.152  0.00  0.00    +0.070 A 
ATOM      7  C   UNL     1     -36.756  18.887   0.378  0.00  0.00    +0.020 C 
ATOM      8  C   UNL     1     -34.394  19.995   1.473  0.00  0.00    +0.003 C 
ATOM      9  C   UNL     1     -34.357  18.797   0.751  0.00  0.00    +0.003 C 
ATOM     10  H   UNL     1     -38.768  20.757   1.160  0.00  0.00    +0.166 HD
ENDROOT
BRANCH   5  13
ATOM     11  N   UNL     1     -35.107  15.823   0.048  0.00  0.00    -0.296 N 
ATOM     12  N   UNL     1     -35.723  16.949  -1.818  0.00  0.00    -0.228 NA
ATOM     13  C   UNL     1     -35.454  17.008  -0.536  0.00  0.00    +0.132 C 
ATOM     14  C   UNL     1     -35.129  14.762  -0.913  0.00  0.00    +0.084 C 
ATOM     15  C   UNL     1     -35.534  15.515  -2.183  0.00  0.00    +0.116 C 
ATOM     16  H   UNL     1     -34.875  15.714   0.998  0.00  0.00    +0.154 HD
ENDBRANCH   5  13
BRANCH   4  17
ATOM     17  N   UNL     1     -35.217  22.703   2.978  0.00  0.00    -0.356 N 
ATOM     18  H   UNL     1     -34.270  22.782   2.722  0.00  0.00    +0.142 HD
ATOM     19  H   UNL     1     -35.574  23.245   3.717  0.00  0.00    +0.142 HD
ENDBRANCH   4  17
BRANCH   6  20
ATOM     20  C   UNL     1     -38.335  22.933   2.562  0.00  0.00    +0.021 C 
ATOM     21  C   UNL     1     -39.164  23.602   1.716  0.00  0.00    +0.039 C 
BRANCH  21  27
ATOM     22  O   UNL     1     -41.218  24.855   1.412  0.00  0.00    -0.453 OA
ATOM     23  C   UNL     1     -41.186  26.197   3.229  0.00  0.00    +0.038 C 
ATOM     24  C   UNL     1     -42.935  27.798   3.687  0.00  0.00    +0.032 C 
ATOM     25  C   UNL     1     -41.885  25.837   2.081  0.00  0.00    +0.145 C 
ATOM     26  C   UNL     1     -41.722  27.201   4.054  0.00  0.00    +0.006 C 
ATOM     27  C   UNL     1     -40.109  24.598   2.132  0.00  0.00    +0.145 C 
ATOM     28  C   UNL     1     -40.028  25.377   3.248  0.00  0.00    +0.041 C 
ATOM     29  C   UNL     1     -43.606  27.409   2.524  0.00  0.00    +0.006 C 
ATOM     30  C   UNL     1     -43.093  26.412   1.689  0.00  0.00    +0.038 C 
BRANCH  24  33
ATOM     31  N   UNL     1     -44.844  29.099   4.563  0.00  0.00    -0.296 N 
ATOM     32  N   UNL     1     -42.761  29.591   5.305  0.00  0.00    -0.228 NA
ATOM     33  C   UNL     1     -43.504  28.840   4.529  0.00  0.00    +0.132 C 
ATOM     34  C   UNL     1     -45.128  30.164   5.477  0.00  0.00    +0.084 C 
ATOM     35  C   UNL     1     -43.723  30.512   5.977  0.00  0.00    +0.116 C 
ATOM     36  H   UNL     1     -45.521  28.621   4.031  0.00  0.00    +0.154 HD
ENDBRANCH  24  33
ENDBRANCH  21  27
ENDBRANCH   6  20
TORSDOF 5
ENDMDL
