MODEL 1
REMARK VINA RESULT:      -5.5      0.000      0.000
REMARK  Name = 197659
REMARK  6 active torsions:
REMARK  status: ('A' for Active; 'I' for Inactive)
REMARK    1  A    between atoms: N_4  and  C1*_12
REMARK    2  A    between atoms: C_6  and  O_21
REMARK    3  A    between atoms: C_7  and  C_23
REMARK    4  A    between atoms: C3*_14  and  O3*_16
REMARK    5  A    between atoms: C4*_15  and  C5*_18
REMARK    6  A    between atoms: C5*_18  and  O5*_19
REMARK                            x       y       z     vdW  Elec       q    Type
REMARK                         _______ _______ _______ _____ _____    ______ ____
ROOT
ATOM      1 BR   UNL     1     -34.703  22.840   0.985  0.00  0.00    -0.069 Br
ATOM      2  O   UNL     1     -34.917  21.609   5.526  0.00  0.00    -0.252 OA
ATOM      3  O   UNL     1     -36.703  20.122   1.577  0.00  0.00    -0.274 OA
ATOM      4  N   UNL     1     -35.804  23.220   4.101  0.00  0.00    -0.217 N 
ATOM      5  N   UNL     1     -35.918  20.922   3.584  0.00  0.00    -0.239 N 
ATOM      6  C   UNL     1     -36.673  23.501   2.962  0.00  0.00    +0.215 C 
ATOM      7  C   UNL     1     -36.471  22.519   1.807  0.00  0.00    +0.160 C 
ATOM      8  C   UNL     1     -35.508  21.910   4.487  0.00  0.00    +0.313 C 
ATOM      9  C   UNL     1     -36.404  21.080   2.290  0.00  0.00    +0.242 C 
ATOM     10  H   UNL     1     -35.855  19.994   3.907  0.00  0.00    +0.159 HD
ENDROOT
BRANCH   4  12
ATOM     11  O4* UNL     1     -36.211  25.475   4.573  0.00  0.00    -0.335 OA
ATOM     12  C1* UNL     1     -35.426  24.328   4.928  0.00  0.00    +0.200 C 
ATOM     13  C2* UNL     1     -33.964  24.711   4.767  0.00  0.00    +0.083 C 
ATOM     14  C3* UNL     1     -33.993  26.207   4.982  0.00  0.00    +0.144 C 
ATOM     15  C4* UNL     1     -35.343  26.612   4.404  0.00  0.00    +0.173 C 
BRANCH  14  16
ATOM     16  O3* UNL     1     -33.958  26.493   6.378  0.00  0.00    -0.382 OA
ATOM     17  H3* UNL     1     -34.824  26.298   6.769  0.00  0.00    +0.210 HD
ENDBRANCH  14  16
BRANCH  15  18
ATOM     18  C5* UNL     1     -35.278  26.935   2.917  0.00  0.00    +0.169 C 
BRANCH  18  19
ATOM     19  O5* UNL     1     -36.550  27.396   2.493  0.00  0.00    -0.379 OA
ATOM     20  H5* UNL     1     -36.779  26.982   1.646  0.00  0.00    +0.211 HD
ENDBRANCH  18  19
ENDBRANCH  15  18
ENDBRANCH   4  12
BRANCH   6  21
ATOM     21  O   UNL     1     -38.026  23.470   3.412  0.00  0.00    -0.334 OA
ATOM     22  C   UNL     1     -38.714  24.659   3.057  0.00  0.00    +0.176 C 
ENDBRANCH   6  21
BRANCH   7  23
ATOM     23  C   UNL     1     -37.517  22.686   0.703  0.00  0.00    +0.024 C 
ATOM     24  C   UNL     1     -37.138  23.800  -0.252  0.00  0.00    +0.002 C 
ENDBRANCH   7  23
TORSDOF 6
ENDMDL
MODEL 2
REMARK VINA RESULT:      -5.4      1.889      2.306
REMARK  Name = 197659
REMARK  6 active torsions:
REMARK  status: ('A' for Active; 'I' for Inactive)
REMARK    1  A    between atoms: N_4  and  C1*_12
REMARK    2  A    between atoms: C_6  and  O_21
REMARK    3  A    between atoms: C_7  and  C_23
REMARK    4  A    between atoms: C3*_14  and  O3*_16
REMARK    5  A    between atoms: C4*_15  and  C5*_18
REMARK    6  A    between atoms: C5*_18  and  O5*_19
REMARK                            x       y       z     vdW  Elec       q    Type
REMARK                         _______ _______ _______ _____ _____    ______ ____
ROOT
ATOM      1 BR   UNL     1     -37.278  22.788  -0.636  0.00  0.00    -0.069 Br
ATOM      2  O   UNL     1     -35.486  20.598   3.129  0.00  0.00    -0.252 OA
ATOM      3  O   UNL     1     -39.515  20.735   0.951  0.00  0.00    -0.274 OA
ATOM      4  N   UNL     1     -36.291  22.700   2.539  0.00  0.00    -0.217 N 
ATOM      5  N   UNL     1     -37.543  20.743   2.131  0.00  0.00    -0.239 N 
ATOM      6  C   UNL     1     -37.444  23.500   2.136  0.00  0.00    +0.215 C 
ATOM      7  C   UNL     1     -38.291  22.819   1.060  0.00  0.00    +0.160 C 
ATOM      8  C   UNL     1     -36.369  21.308   2.644  0.00  0.00    +0.313 C 
ATOM      9  C   UNL     1     -38.539  21.354   1.375  0.00  0.00    +0.242 C 
ATOM     10  H   UNL     1     -37.682  19.789   2.333  0.00  0.00    +0.159 HD
ENDROOT
BRANCH   4  12
ATOM     11  O4* UNL     1     -35.132  23.399   4.447  0.00  0.00    -0.335 OA
ATOM     12  C1* UNL     1     -35.136  23.404   3.013  0.00  0.00    +0.200 C 
ATOM     13  C2* UNL     1     -35.107  24.856   2.564  0.00  0.00    +0.083 C 
ATOM     14  C3* UNL     1     -34.421  25.542   3.723  0.00  0.00    +0.144 C 
ATOM     15  C4* UNL     1     -34.889  24.736   4.927  0.00  0.00    +0.173 C 
BRANCH  14  16
ATOM     16  O3* UNL     1     -33.007  25.426   3.582  0.00  0.00    -0.382 OA
ATOM     17  H3* UNL     1     -32.783  25.326   2.644  0.00  0.00    +0.210 HD
ENDBRANCH  14  16
BRANCH  15  18
ATOM     18  C5* UNL     1     -36.189  25.262   5.524  0.00  0.00    +0.169 C 
BRANCH  18  19
ATOM     19  O5* UNL     1     -36.257  26.662   5.309  0.00  0.00    -0.379 OA
ATOM     20  H5* UNL     1     -36.650  27.090   6.086  0.00  0.00    +0.211 HD
ENDBRANCH  18  19
ENDBRANCH  15  18
ENDBRANCH   4  12
BRANCH   6  21
ATOM     21  O   UNL     1     -38.231  23.766   3.296  0.00  0.00    -0.334 OA
ATOM     22  C   UNL     1     -38.729  25.094   3.288  0.00  0.00    +0.176 C 
ENDBRANCH   6  21
BRANCH   7  23
ATOM     23  C   UNL     1     -39.602  23.558   0.787  0.00  0.00    +0.024 C 
ATOM     24  C   UNL     1     -39.717  23.956  -0.670  0.00  0.00    +0.002 C 
ENDBRANCH   7  23
TORSDOF 6
ENDMDL
MODEL 3
REMARK VINA RESULT:      -5.3      1.905      5.628
REMARK  Name = 197659
REMARK  6 active torsions:
REMARK  status: ('A' for Active; 'I' for Inactive)
REMARK    1  A    between atoms: N_4  and  C1*_12
REMARK    2  A    between atoms: C_6  and  O_21
REMARK    3  A    between atoms: C_7  and  C_23
REMARK    4  A    between atoms: C3*_14  and  O3*_16
REMARK    5  A    between atoms: C4*_15  and  C5*_18
REMARK    6  A    between atoms: C5*_18  and  O5*_19
REMARK                            x       y       z     vdW  Elec       q    Type
REMARK                         _______ _______ _______ _____ _____    ______ ____
ROOT
ATOM      1 BR   UNL     1     -34.769  24.590   1.992  0.00  0.00    -0.069 Br
ATOM      2  O   UNL     1     -38.979  22.485   2.173  0.00  0.00    -0.252 OA
ATOM      3  O   UNL     1     -36.956  26.080   4.168  0.00  0.00    -0.274 OA
ATOM      4  N   UNL     1     -36.819  22.163   2.979  0.00  0.00    -0.217 N 
ATOM      5  N   UNL     1     -37.951  24.211   3.274  0.00  0.00    -0.239 N 
ATOM      6  C   UNL     1     -35.756  22.646   3.855  0.00  0.00    +0.215 C 
ATOM      7  C   UNL     1     -35.547  24.157   3.757  0.00  0.00    +0.160 C 
ATOM      8  C   UNL     1     -37.985  22.906   2.768  0.00  0.00    +0.313 C 
ATOM      9  C   UNL     1     -36.863  24.915   3.782  0.00  0.00    +0.242 C 
ATOM     10  H   UNL     1     -38.810  24.694   3.270  0.00  0.00    +0.159 HD
ENDROOT
BRANCH   4  12
ATOM     11  O4* UNL     1     -35.370  20.352   2.675  0.00  0.00    -0.335 OA
ATOM     12  C1* UNL     1     -36.716  20.817   2.499  0.00  0.00    +0.200 C 
ATOM     13  C2* UNL     1     -37.049  20.691   1.021  0.00  0.00    +0.083 C 
ATOM     14  C3* UNL     1     -36.144  19.564   0.577  0.00  0.00    +0.144 C 
ATOM     15  C4* UNL     1     -34.910  19.749   1.451  0.00  0.00    +0.173 C 
BRANCH  14  16
ATOM     16  O3* UNL     1     -36.760  18.312   0.866  0.00  0.00    -0.382 OA
ATOM     17  H3* UNL     1     -36.937  17.840   0.037  0.00  0.00    +0.210 HD
ENDBRANCH  14  16
BRANCH  15  18
ATOM     18  C5* UNL     1     -33.877  20.679   0.829  0.00  0.00    +0.169 C 
BRANCH  18  19
ATOM     19  O5* UNL     1     -33.838  20.450  -0.570  0.00  0.00    -0.379 OA
ATOM     20  H5* UNL     1     -33.452  21.221  -1.014  0.00  0.00    +0.211 HD
ENDBRANCH  18  19
ENDBRANCH  15  18
ENDBRANCH   4  12
BRANCH   6  21
ATOM     21  O   UNL     1     -36.076  22.272   5.193  0.00  0.00    -0.334 OA
ATOM     22  C   UNL     1     -35.036  21.503   5.777  0.00  0.00    +0.176 C 
ENDBRANCH   6  21
BRANCH   7  23
ATOM     23  C   UNL     1     -34.580  24.688   4.817  0.00  0.00    +0.024 C 
ATOM     24  C   UNL     1     -33.586  25.662   4.217  0.00  0.00    +0.002 C 
ENDBRANCH   7  23
TORSDOF 6
ENDMDL
MODEL 4
REMARK VINA RESULT:      -5.2      2.471      3.349
REMARK  Name = 197659
REMARK  6 active torsions:
REMARK  status: ('A' for Active; 'I' for Inactive)
REMARK    1  A    between atoms: N_4  and  C1*_12
REMARK    2  A    between atoms: C_6  and  O_21
REMARK    3  A    between atoms: C_7  and  C_23
REMARK    4  A    between atoms: C3*_14  and  O3*_16
REMARK    5  A    between atoms: C4*_15  and  C5*_18
REMARK    6  A    between atoms: C5*_18  and  O5*_19
REMARK                            x       y       z     vdW  Elec       q    Type
REMARK                         _______ _______ _______ _____ _____    ______ ____
ROOT
ATOM      1 BR   UNL     1     -35.691  22.785   2.730  0.00  0.00    -0.069 Br
ATOM      2  O   UNL     1     -35.846  26.125   6.048  0.00  0.00    -0.252 OA
ATOM      3  O   UNL     1     -38.825  24.077   3.233  0.00  0.00    -0.274 OA
ATOM      4  N   UNL     1     -35.199  25.888   3.825  0.00  0.00    -0.217 N 
ATOM      5  N   UNL     1     -37.331  25.204   4.567  0.00  0.00    -0.239 N 
ATOM      6  C   UNL     1     -35.618  25.638   2.449  0.00  0.00    +0.215 C 
ATOM      7  C   UNL     1     -36.616  24.486   2.333  0.00  0.00    +0.160 C 
ATOM      8  C   UNL     1     -36.095  25.775   4.892  0.00  0.00    +0.313 C 
ATOM      9  C   UNL     1     -37.709  24.573   3.386  0.00  0.00    +0.242 C 
ATOM     10  H   UNL     1     -38.023  25.256   5.265  0.00  0.00    +0.159 HD
ENDROOT
BRANCH   4  12
ATOM     11  O4* UNL     1     -34.015  27.815   4.423  0.00  0.00    -0.335 OA
ATOM     12  C1* UNL     1     -33.893  26.442   4.024  0.00  0.00    +0.200 C 
ATOM     13  C2* UNL     1     -33.041  26.410   2.765  0.00  0.00    +0.083 C 
ATOM     14  C3* UNL     1     -32.195  27.655   2.911  0.00  0.00    +0.144 C 
ATOM     15  C4* UNL     1     -33.128  28.623   3.626  0.00  0.00    +0.173 C 
BRANCH  14  16
ATOM     16  O3* UNL     1     -31.065  27.374   3.733  0.00  0.00    -0.382 OA
ATOM     17  H3* UNL     1     -30.262  27.381   3.191  0.00  0.00    +0.210 HD
ENDBRANCH  14  16
BRANCH  15  18
ATOM     18  C5* UNL     1     -33.979  29.444   2.665  0.00  0.00    +0.169 C 
BRANCH  18  19
ATOM     19  O5* UNL     1     -35.299  29.526   3.179  0.00  0.00    -0.379 OA
ATOM     20  H5* UNL     1     -35.497  28.726   3.690  0.00  0.00    +0.211 HD
ENDBRANCH  18  19
ENDBRANCH  15  18
ENDBRANCH   4  12
BRANCH   6  21
ATOM     21  O   UNL     1     -36.181  26.841   1.928  0.00  0.00    -0.334 OA
ATOM     22  C   UNL     1     -35.680  27.126   0.632  0.00  0.00    +0.176 C 
ENDBRANCH   6  21
BRANCH   7  23
ATOM     23  C   UNL     1     -37.208  24.359   0.928  0.00  0.00    +0.024 C 
ATOM     24  C   UNL     1     -36.350  23.474   0.047  0.00  0.00    +0.002 C 
ENDBRANCH   7  23
TORSDOF 6
ENDMDL
MODEL 5
REMARK VINA RESULT:      -5.1      1.367      1.639
REMARK  Name = 197659
REMARK  6 active torsions:
REMARK  status: ('A' for Active; 'I' for Inactive)
REMARK    1  A    between atoms: N_4  and  C1*_12
REMARK    2  A    between atoms: C_6  and  O_21
REMARK    3  A    between atoms: C_7  and  C_23
REMARK    4  A    between atoms: C3*_14  and  O3*_16
REMARK    5  A    between atoms: C4*_15  and  C5*_18
REMARK    6  A    between atoms: C5*_18  and  O5*_19
REMARK                            x       y       z     vdW  Elec       q    Type
REMARK                         _______ _______ _______ _____ _____    ______ ____
ROOT
ATOM      1 BR   UNL     1     -34.748  22.723   0.519  0.00  0.00    -0.069 Br
ATOM      2  O   UNL     1     -35.167  21.564   5.065  0.00  0.00    -0.252 OA
ATOM      3  O   UNL     1     -35.571  19.436   1.028  0.00  0.00    -0.274 OA
ATOM      4  N   UNL     1     -36.385  22.664   3.415  0.00  0.00    -0.217 N 
ATOM      5  N   UNL     1     -35.495  20.509   3.059  0.00  0.00    -0.239 N 
ATOM      6  C   UNL     1     -37.102  22.557   2.148  0.00  0.00    +0.215 C 
ATOM      7  C   UNL     1     -36.349  21.726   1.108  0.00  0.00    +0.160 C 
ATOM      8  C   UNL     1     -35.657  21.589   3.935  0.00  0.00    +0.313 C 
ATOM      9  C   UNL     1     -35.793  20.442   1.701  0.00  0.00    +0.242 C 
ATOM     10  H   UNL     1     -35.120  19.689   3.456  0.00  0.00    +0.159 HD
ENDROOT
BRANCH   4  12
ATOM     11  O4* UNL     1     -37.802  24.496   3.742  0.00  0.00    -0.335 OA
ATOM     12  C1* UNL     1     -36.612  23.839   4.201  0.00  0.00    +0.200 C 
ATOM     13  C2* UNL     1     -35.474  24.843   4.104  0.00  0.00    +0.083 C 
ATOM     14  C3* UNL     1     -36.194  26.166   4.237  0.00  0.00    +0.144 C 
ATOM     15  C4* UNL     1     -37.533  25.899   3.562  0.00  0.00    +0.173 C 
BRANCH  14  16
ATOM     16  O3* UNL     1     -36.396  26.467   5.615  0.00  0.00    -0.382 OA
ATOM     17  H3* UNL     1     -37.344  26.436   5.817  0.00  0.00    +0.210 HD
ENDBRANCH  14  16
BRANCH  15  18
ATOM     18  C5* UNL     1     -37.511  26.184   2.066  0.00  0.00    +0.169 C 
BRANCH  18  19
ATOM     19  O5* UNL     1     -37.305  27.573   1.868  0.00  0.00    -0.379 OA
ATOM     20  H5* UNL     1     -38.160  28.031   1.876  0.00  0.00    +0.211 HD
ENDBRANCH  18  19
ENDBRANCH  15  18
ENDBRANCH   4  12
BRANCH   6  21
ATOM     21  O   UNL     1     -38.384  21.988   2.407  0.00  0.00    -0.334 OA
ATOM     22  C   UNL     1     -39.422  22.786   1.859  0.00  0.00    +0.176 C 
ENDBRANCH   6  21
BRANCH   7  23
ATOM     23  C   UNL     1     -37.187  21.444  -0.140  0.00  0.00    +0.024 C 
ATOM     24  C   UNL     1     -37.094  22.582  -1.135  0.00  0.00    +0.002 C 
ENDBRANCH   7  23
TORSDOF 6
ENDMDL
MODEL 6
REMARK VINA RESULT:      -5.0      1.855      3.666
REMARK  Name = 197659
REMARK  6 active torsions:
REMARK  status: ('A' for Active; 'I' for Inactive)
REMARK    1  A    between atoms: N_4  and  C1*_12
REMARK    2  A    between atoms: C_6  and  O_21
REMARK    3  A    between atoms: C_7  and  C_23
REMARK    4  A    between atoms: C3*_14  and  O3*_16
REMARK    5  A    between atoms: C4*_15  and  C5*_18
REMARK    6  A    between atoms: C5*_18  and  O5*_19
REMARK                            x       y       z     vdW  Elec       q    Type
REMARK                         _______ _______ _______ _____ _____    ______ ____
ROOT
ATOM      1 BR   UNL     1     -34.613  22.230   1.197  0.00  0.00    -0.069 Br
ATOM      2  O   UNL     1     -35.612  25.144   4.760  0.00  0.00    -0.252 OA
ATOM      3  O   UNL     1     -35.121  20.625   4.181  0.00  0.00    -0.274 OA
ATOM      4  N   UNL     1     -36.671  24.199   2.916  0.00  0.00    -0.217 N 
ATOM      5  N   UNL     1     -35.493  22.874   4.471  0.00  0.00    -0.239 N 
ATOM      6  C   UNL     1     -37.161  22.981   2.278  0.00  0.00    +0.215 C 
ATOM      7  C   UNL     1     -36.162  21.827   2.357  0.00  0.00    +0.160 C 
ATOM      8  C   UNL     1     -35.916  24.154   4.092  0.00  0.00    +0.313 C 
ATOM      9  C   UNL     1     -35.562  21.689   3.746  0.00  0.00    +0.242 C 
ATOM     10  H   UNL     1     -35.094  22.805   5.369  0.00  0.00    +0.159 HD
ENDROOT
BRANCH   4  12
ATOM     11  O4* UNL     1     -38.119  25.991   3.320  0.00  0.00    -0.335 OA
ATOM     12  C1* UNL     1     -37.155  25.448   2.407  0.00  0.00    +0.200 C 
ATOM     13  C2* UNL     1     -37.837  25.309   1.056  0.00  0.00    +0.083 C 
ATOM     14  C3* UNL     1     -38.901  26.382   1.116  0.00  0.00    +0.144 C 
ATOM     15  C4* UNL     1     -39.291  26.398   2.588  0.00  0.00    +0.173 C 
BRANCH  14  16
ATOM     16  O3* UNL     1     -38.338  27.639   0.749  0.00  0.00    -0.382 OA
ATOM     17  H3* UNL     1     -38.441  28.265   1.482  0.00  0.00    +0.210 HD
ENDBRANCH  14  16
BRANCH  15  18
ATOM     18  C5* UNL     1     -40.411  25.419   2.915  0.00  0.00    +0.169 C 
BRANCH  18  19
ATOM     19  O5* UNL     1     -40.095  24.750   4.125  0.00  0.00    -0.379 OA
ATOM     20  H5* UNL     1     -40.346  25.307   4.878  0.00  0.00    +0.211 HD
ENDBRANCH  18  19
ENDBRANCH  15  18
ENDBRANCH   4  12
BRANCH   6  21
ATOM     21  O   UNL     1     -38.394  22.618   2.896  0.00  0.00    -0.334 OA
ATOM     22  C   UNL     1     -39.350  22.201   1.934  0.00  0.00    +0.176 C 
ENDBRANCH   6  21
BRANCH   7  23
ATOM     23  C   UNL     1     -36.753  20.502   1.873  0.00  0.00    +0.024 C 
ATOM     24  C   UNL     1     -35.852  19.836   0.852  0.00  0.00    +0.002 C 
ENDBRANCH   7  23
TORSDOF 6
ENDMDL
MODEL 7
REMARK VINA RESULT:      -5.0      2.019      5.079
REMARK  Name = 197659
REMARK  6 active torsions:
REMARK  status: ('A' for Active; 'I' for Inactive)
REMARK    1  A    between atoms: N_4  and  C1*_12
REMARK    2  A    between atoms: C_6  and  O_21
REMARK    3  A    between atoms: C_7  and  C_23
REMARK    4  A    between atoms: C3*_14  and  O3*_16
REMARK    5  A    between atoms: C4*_15  and  C5*_18
REMARK    6  A    between atoms: C5*_18  and  O5*_19
REMARK                            x       y       z     vdW  Elec       q    Type
REMARK                         _______ _______ _______ _____ _____    ______ ____
ROOT
ATOM      1 BR   UNL     1     -34.834  25.949   0.420  0.00  0.00    -0.069 Br
ATOM      2  O   UNL     1     -37.771  24.432   3.775  0.00  0.00    -0.252 OA
ATOM      3  O   UNL     1     -37.051  28.335   1.484  0.00  0.00    -0.274 OA
ATOM      4  N   UNL     1     -35.563  25.134   3.562  0.00  0.00    -0.217 N 
ATOM      5  N   UNL     1     -37.351  26.428   2.732  0.00  0.00    -0.239 N 
ATOM      6  C   UNL     1     -34.653  26.237   3.267  0.00  0.00    +0.215 C 
ATOM      7  C   UNL     1     -35.080  27.048   2.044  0.00  0.00    +0.160 C 
ATOM      8  C   UNL     1     -36.945  25.264   3.395  0.00  0.00    +0.313 C 
ATOM      9  C   UNL     1     -36.567  27.362   2.062  0.00  0.00    +0.242 C 
ATOM     10  H   UNL     1     -38.319  26.609   2.740  0.00  0.00    +0.159 HD
ENDROOT
BRANCH   4  12
ATOM     11  O4* UNL     1     -34.813  22.941   3.247  0.00  0.00    -0.335 OA
ATOM     12  C1* UNL     1     -35.011  23.983   4.212  0.00  0.00    +0.200 C 
ATOM     13  C2* UNL     1     -35.920  23.428   5.298  0.00  0.00    +0.083 C 
ATOM     14  C3* UNL     1     -35.635  21.945   5.235  0.00  0.00    +0.144 C 
ATOM     15  C4* UNL     1     -35.360  21.709   3.756  0.00  0.00    +0.173 C 
BRANCH  14  16
ATOM     16  O3* UNL     1     -34.470  21.646   5.999  0.00  0.00    -0.382 OA
ATOM     17  H3* UNL     1     -33.683  21.946   5.519  0.00  0.00    +0.210 HD
ENDBRANCH  14  16
BRANCH  15  18
ATOM     18  C5* UNL     1     -36.620  21.392   2.961  0.00  0.00    +0.169 C 
BRANCH  18  19
ATOM     19  O5* UNL     1     -36.687  19.992   2.748  0.00  0.00    -0.379 OA
ATOM     20  H5* UNL     1     -37.328  19.802   2.045  0.00  0.00    +0.211 HD
ENDBRANCH  18  19
ENDBRANCH  15  18
ENDBRANCH   4  12
BRANCH   6  21
ATOM     21  O   UNL     1     -34.577  27.074   4.420  0.00  0.00    -0.334 OA
ATOM     22  C   UNL     1     -33.474  26.724   5.240  0.00  0.00    +0.176 C 
ENDBRANCH   6  21
BRANCH   7  23
ATOM     23  C   UNL     1     -34.247  28.318   1.858  0.00  0.00    +0.024 C 
ATOM     24  C   UNL     1     -32.785  27.990   1.632  0.00  0.00    +0.002 C 
ENDBRANCH   7  23
TORSDOF 6
ENDMDL
MODEL 8
REMARK VINA RESULT:      -4.9      1.853      5.546
REMARK  Name = 197659
REMARK  6 active torsions:
REMARK  status: ('A' for Active; 'I' for Inactive)
REMARK    1  A    between atoms: N_4  and  C1*_12
REMARK    2  A    between atoms: C_6  and  O_21
REMARK    3  A    between atoms: C_7  and  C_23
REMARK    4  A    between atoms: C3*_14  and  O3*_16
REMARK    5  A    between atoms: C4*_15  and  C5*_18
REMARK    6  A    between atoms: C5*_18  and  O5*_19
REMARK                            x       y       z     vdW  Elec       q    Type
REMARK                         _______ _______ _______ _____ _____    ______ ____
ROOT
ATOM      1 BR   UNL     1     -35.198  25.410   1.666  0.00  0.00    -0.069 Br
ATOM      2  O   UNL     1     -39.595  24.823   3.248  0.00  0.00    -0.252 OA
ATOM      3  O   UNL     1     -35.806  26.988   4.646  0.00  0.00    -0.274 OA
ATOM      4  N   UNL     1     -37.599  23.632   3.128  0.00  0.00    -0.217 N 
ATOM      5  N   UNL     1     -37.681  25.810   4.029  0.00  0.00    -0.239 N 
ATOM      6  C   UNL     1     -36.212  23.522   3.571  0.00  0.00    +0.215 C 
ATOM      7  C   UNL     1     -35.473  24.860   3.544  0.00  0.00    +0.160 C 
ATOM      8  C   UNL     1     -38.382  24.744   3.453  0.00  0.00    +0.313 C 
ATOM      9  C   UNL     1     -36.305  25.980   4.145  0.00  0.00    +0.242 C 
ATOM     10  H   UNL     1     -38.235  26.535   4.401  0.00  0.00    +0.159 HD
ENDROOT
BRANCH   4  12
ATOM     11  O4* UNL     1     -37.189  21.462   2.359  0.00  0.00    -0.335 OA
ATOM     12  C1* UNL     1     -38.189  22.477   2.520  0.00  0.00    +0.200 C 
ATOM     13  C2* UNL     1     -38.767  22.766   1.143  0.00  0.00    +0.083 C 
ATOM     14  C3* UNL     1     -38.548  21.459   0.416  0.00  0.00    +0.144 C 
ATOM     15  C4* UNL     1     -37.245  20.945   1.016  0.00  0.00    +0.173 C 
BRANCH  14  16
ATOM     16  O3* UNL     1     -39.610  20.558   0.718  0.00  0.00    -0.382 OA
ATOM     17  H3* UNL     1     -39.536  19.771   0.156  0.00  0.00    +0.210 HD
ENDBRANCH  14  16
BRANCH  15  18
ATOM     18  C5* UNL     1     -36.013  21.442   0.270  0.00  0.00    +0.169 C 
BRANCH  18  19
ATOM     19  O5* UNL     1     -34.903  21.414   1.152  0.00  0.00    -0.379 OA
ATOM     20  H5* UNL     1     -34.365  20.627   0.969  0.00  0.00    +0.211 HD
ENDBRANCH  18  19
ENDBRANCH  15  18
ENDBRANCH   4  12
BRANCH   6  21
ATOM     21  O   UNL     1     -36.206  22.973   4.887  0.00  0.00    -0.334 OA
ATOM     22  C   UNL     1     -35.359  21.838   4.969  0.00  0.00    +0.176 C 
ENDBRANCH   6  21
BRANCH   7  23
ATOM     23  C   UNL     1     -34.092  24.782   4.197  0.00  0.00    +0.024 C 
ATOM     24  C   UNL     1     -33.062  25.558   3.401  0.00  0.00    +0.002 C 
ENDBRANCH   7  23
TORSDOF 6
ENDMDL
MODEL 9
REMARK VINA RESULT:      -4.8      2.495      4.334
REMARK  Name = 197659
REMARK  6 active torsions:
REMARK  status: ('A' for Active; 'I' for Inactive)
REMARK    1  A    between atoms: N_4  and  C1*_12
REMARK    2  A    between atoms: C_6  and  O_21
REMARK    3  A    between atoms: C_7  and  C_23
REMARK    4  A    between atoms: C3*_14  and  O3*_16
REMARK    5  A    between atoms: C4*_15  and  C5*_18
REMARK    6  A    between atoms: C5*_18  and  O5*_19
REMARK                            x       y       z     vdW  Elec       q    Type
REMARK                         _______ _______ _______ _____ _____    ______ ____
ROOT
ATOM      1 BR   UNL     1     -38.134  24.432  -0.710  0.00  0.00    -0.069 Br
ATOM      2  O   UNL     1     -39.889  24.601   3.658  0.00  0.00    -0.252 OA
ATOM      3  O   UNL     1     -39.845  27.321  -0.030  0.00  0.00    -0.274 OA
ATOM      4  N   UNL     1     -37.847  24.871   2.575  0.00  0.00    -0.217 N 
ATOM      5  N   UNL     1     -39.777  26.030   1.871  0.00  0.00    -0.239 N 
ATOM      6  C   UNL     1     -37.053  25.665   1.642  0.00  0.00    +0.215 C 
ATOM      7  C   UNL     1     -37.828  26.050   0.382  0.00  0.00    +0.160 C 
ATOM      8  C   UNL     1     -39.207  25.126   2.775  0.00  0.00    +0.313 C 
ATOM      9  C   UNL     1     -39.224  26.553   0.706  0.00  0.00    +0.242 C 
ATOM     10  H   UNL     1     -40.688  26.335   2.088  0.00  0.00    +0.159 HD
ENDROOT
BRANCH   4  12
ATOM     11  O4* UNL     1     -37.146  24.453   4.767  0.00  0.00    -0.335 OA
ATOM     12  C1* UNL     1     -37.144  23.954   3.422  0.00  0.00    +0.200 C 
ATOM     13  C2* UNL     1     -35.693  23.766   3.010  0.00  0.00    +0.083 C 
ATOM     14  C3* UNL     1     -35.005  23.529   4.336  0.00  0.00    +0.144 C 
ATOM     15  C4* UNL     1     -35.809  24.391   5.300  0.00  0.00    +0.173 C 
BRANCH  14  16
ATOM     16  O3* UNL     1     -35.124  22.155   4.699  0.00  0.00    -0.382 OA
ATOM     17  H3* UNL     1     -35.994  22.001   5.098  0.00  0.00    +0.210 HD
ENDBRANCH  14  16
BRANCH  15  18
ATOM     18  C5* UNL     1     -35.280  25.816   5.403  0.00  0.00    +0.169 C 
BRANCH  18  19
ATOM     19  O5* UNL     1     -36.374  26.716   5.338  0.00  0.00    -0.379 OA
ATOM     20  H5* UNL     1     -37.157  26.303   5.733  0.00  0.00    +0.211 HD
ENDBRANCH  18  19
ENDBRANCH  15  18
ENDBRANCH   4  12
BRANCH   6  21
ATOM     21  O   UNL     1     -36.597  26.832   2.324  0.00  0.00    -0.334 OA
ATOM     22  C   UNL     1     -35.227  27.085   2.055  0.00  0.00    +0.176 C 
ENDBRANCH   6  21
BRANCH   7  23
ATOM     23  C   UNL     1     -37.068  27.047  -0.495  0.00  0.00    +0.024 C 
ATOM     24  C   UNL     1     -36.941  26.544  -1.919  0.00  0.00    +0.002 C 
ENDBRANCH   7  23
TORSDOF 6
ENDMDL
