MODEL 1
REMARK VINA RESULT:      -6.6      0.000      0.000
REMARK  Name = 21115980
REMARK  7 active torsions:
REMARK  status: ('A' for Active; 'I' for Inactive)
REMARK    1  A    between atoms: C_2  and  O_16
REMARK    2  A    between atoms: C_3  and  O_18
REMARK    3  A    between atoms: C_4  and  C_20
REMARK    4  A    between atoms: C_5  and  N_7
REMARK    5  A    between atoms: C_20  and  O_21
REMARK    6  A    between atoms: O_21  and  C_23
REMARK    7  A    between atoms: C_23  and  C_24
REMARK                            x       y       z     vdW  Elec       q    Type
REMARK                         _______ _______ _______ _____ _____    ______ ____
ROOT
ATOM      1  O   UNL     1     -34.524  23.720   3.687  0.00  0.00    -0.331 OA
ATOM      2  C   UNL     1     -35.927  23.069   5.510  0.00  0.00    +0.172 C 
ATOM      3  C   UNL     1     -35.632  24.550   5.605  0.00  0.00    +0.188 C 
ATOM      4  C   UNL     1     -35.458  22.701   4.101  0.00  0.00    +0.190 C 
ATOM      5  C   UNL     1     -34.379  24.668   4.753  0.00  0.00    +0.236 C 
ENDROOT
BRANCH   5   7
ATOM      6  O   UNL     1     -33.010  26.761   6.051  0.00  0.00    -0.193 OA
ATOM      7  N   UNL     1     -34.157  25.975   4.210  0.00  0.00    -0.178 N 
ATOM      8  N   UNL     1     -33.280  28.224   4.337  0.00  0.00    -0.306 NA
ATOM      9  N   UNL     1     -33.561  29.718   2.577  0.00  0.00    -0.332 N 
ATOM     10  C   UNL     1     -34.647  26.266   2.943  0.00  0.00    +0.083 C 
ATOM     11  C   UNL     1     -33.457  26.983   4.924  0.00  0.00    +0.276 C 
ATOM     12  C   UNL     1     -34.488  27.454   2.361  0.00  0.00    +0.065 C 
ATOM     13  C   UNL     1     -33.748  28.478   3.143  0.00  0.00    +0.193 C 
ATOM     14  H   UNL     1     -33.074  30.417   3.072  0.00  0.00    +0.145 HD
ATOM     15  H   UNL     1     -33.915  29.907   1.678  0.00  0.00    +0.145 HD
ENDBRANCH   5   7
BRANCH   2  16
ATOM     16  O   UNL     1     -35.117  22.365   6.450  0.00  0.00    -0.379 OA
ATOM     17  H   UNL     1     -34.350  22.910   6.686  0.00  0.00    +0.211 HD
ENDBRANCH   2  16
BRANCH   3  18
ATOM     18  O   UNL     1     -36.719  25.266   5.029  0.00  0.00    -0.378 OA
ATOM     19  H   UNL     1     -36.978  25.990   5.620  0.00  0.00    +0.211 HD
ENDBRANCH   3  18
BRANCH   4  20
ATOM     20  C   UNL     1     -36.587  22.662   3.079  0.00  0.00    +0.241 C 
BRANCH  20  21
ATOM     21  O   UNL     1     -36.088  22.110   1.873  0.00  0.00    -0.443 OA
BRANCH  21  23
ATOM     22  O   UNL     1     -36.506  19.897   2.350  0.00  0.00    -0.245 OA
ATOM     23  C   UNL     1     -35.793  20.778   1.897  0.00  0.00    +0.341 C 
BRANCH  23  24
ATOM     24  C   UNL     1     -34.463  20.518   1.290  0.00  0.00    +0.076 C 
ATOM     25  C   UNL     1     -33.858  21.491   0.494  0.00  0.00    +0.006 C 
ATOM     26  C   UNL     1     -33.819  19.302   1.515  0.00  0.00    +0.006 C 
ATOM     27  C   UNL     1     -32.608  21.247  -0.076  0.00  0.00    +0.000 C 
ATOM     28  C   UNL     1     -32.570  19.058   0.945  0.00  0.00    +0.000 C 
ATOM     29  C   UNL     1     -31.964  20.031   0.150  0.00  0.00    +0.000 C 
ENDBRANCH  23  24
ENDBRANCH  21  23
ENDBRANCH  20  21
ENDBRANCH   4  20
TORSDOF 7
ENDMDL
MODEL 2
REMARK VINA RESULT:      -6.6      2.860      7.275
REMARK  Name = 21115980
REMARK  7 active torsions:
REMARK  status: ('A' for Active; 'I' for Inactive)
REMARK    1  A    between atoms: C_2  and  O_16
REMARK    2  A    between atoms: C_3  and  O_18
REMARK    3  A    between atoms: C_4  and  C_20
REMARK    4  A    between atoms: C_5  and  N_7
REMARK    5  A    between atoms: C_20  and  O_21
REMARK    6  A    between atoms: O_21  and  C_23
REMARK    7  A    between atoms: C_23  and  C_24
REMARK                            x       y       z     vdW  Elec       q    Type
REMARK                         _______ _______ _______ _____ _____    ______ ____
ROOT
ATOM      1  O   UNL     1     -36.156  25.211   2.850  0.00  0.00    -0.331 OA
ATOM      2  C   UNL     1     -35.366  26.337   4.805  0.00  0.00    +0.172 C 
ATOM      3  C   UNL     1     -35.039  24.862   4.905  0.00  0.00    +0.188 C 
ATOM      4  C   UNL     1     -35.776  26.513   3.342  0.00  0.00    +0.190 C 
ATOM      5  C   UNL     1     -36.024  24.262   3.916  0.00  0.00    +0.236 C 
ENDROOT
BRANCH   5   7
ATOM      6  O   UNL     1     -35.888  21.857   5.379  0.00  0.00    -0.193 OA
ATOM      7  N   UNL     1     -35.627  22.992   3.387  0.00  0.00    -0.178 N 
ATOM      8  N   UNL     1     -35.187  20.625   3.606  0.00  0.00    -0.306 NA
ATOM      9  N   UNL     1     -34.468  19.369   1.787  0.00  0.00    -0.332 N 
ATOM     10  C   UNL     1     -35.271  22.906   2.047  0.00  0.00    +0.083 C 
ATOM     11  C   UNL     1     -35.582  21.819   4.186  0.00  0.00    +0.276 C 
ATOM     12  C   UNL     1     -34.888  21.768   1.471  0.00  0.00    +0.065 C 
ATOM     13  C   UNL     1     -34.857  20.565   2.343  0.00  0.00    +0.193 C 
ATOM     14  H   UNL     1     -34.438  18.555   2.341  0.00  0.00    +0.145 HD
ATOM     15  H   UNL     1     -34.220  19.327   0.836  0.00  0.00    +0.145 HD
ENDBRANCH   5   7
BRANCH   2  16
ATOM     16  O   UNL     1     -36.498  26.625   5.625  0.00  0.00    -0.379 OA
ATOM     17  H   UNL     1     -36.201  26.824   6.526  0.00  0.00    +0.211 HD
ENDBRANCH   2  16
BRANCH   3  18
ATOM     18  O   UNL     1     -33.695  24.668   4.479  0.00  0.00    -0.378 OA
ATOM     19  H   UNL     1     -33.157  25.428   4.751  0.00  0.00    +0.211 HD
ENDBRANCH   3  18
BRANCH   4  20
ATOM     20  C   UNL     1     -34.651  27.035   2.458  0.00  0.00    +0.241 C 
BRANCH  20  21
ATOM     21  O   UNL     1     -33.505  27.255   3.263  0.00  0.00    -0.443 OA
BRANCH  21  23
ATOM     22  O   UNL     1     -32.815  29.146   2.147  0.00  0.00    -0.245 OA
ATOM     23  C   UNL     1     -32.932  28.489   3.169  0.00  0.00    +0.341 C 
BRANCH  23  24
ATOM     24  C   UNL     1     -32.451  28.953   4.495  0.00  0.00    +0.076 C 
ATOM     25  C   UNL     1     -32.263  30.314   4.731  0.00  0.00    +0.006 C 
ATOM     26  C   UNL     1     -32.188  28.027   5.505  0.00  0.00    +0.006 C 
ATOM     27  C   UNL     1     -31.812  30.750   5.978  0.00  0.00    +0.000 C 
ATOM     28  C   UNL     1     -31.736  28.463   6.750  0.00  0.00    +0.000 C 
ATOM     29  C   UNL     1     -31.548  29.825   6.987  0.00  0.00    +0.000 C 
ENDBRANCH  23  24
ENDBRANCH  21  23
ENDBRANCH  20  21
ENDBRANCH   4  20
TORSDOF 7
ENDMDL
MODEL 3
REMARK VINA RESULT:      -6.6      1.369      1.564
REMARK  Name = 21115980
REMARK  7 active torsions:
REMARK  status: ('A' for Active; 'I' for Inactive)
REMARK    1  A    between atoms: C_2  and  O_16
REMARK    2  A    between atoms: C_3  and  O_18
REMARK    3  A    between atoms: C_4  and  C_20
REMARK    4  A    between atoms: C_5  and  N_7
REMARK    5  A    between atoms: C_20  and  O_21
REMARK    6  A    between atoms: O_21  and  C_23
REMARK    7  A    between atoms: C_23  and  C_24
REMARK                            x       y       z     vdW  Elec       q    Type
REMARK                         _______ _______ _______ _____ _____    ______ ____
ROOT
ATOM      1  O   UNL     1     -34.015  24.739   3.940  0.00  0.00    -0.331 OA
ATOM      2  C   UNL     1     -36.092  24.265   5.026  0.00  0.00    +0.172 C 
ATOM      3  C   UNL     1     -35.539  25.576   5.544  0.00  0.00    +0.188 C 
ATOM      4  C   UNL     1     -35.232  23.977   3.794  0.00  0.00    +0.190 C 
ATOM      5  C   UNL     1     -34.068  25.453   5.183  0.00  0.00    +0.236 C 
ENDROOT
BRANCH   5   7
ATOM      6  O   UNL     1     -32.928  26.920   7.301  0.00  0.00    -0.193 OA
ATOM      7  N   UNL     1     -33.388  26.706   5.050  0.00  0.00    -0.178 N 
ATOM      8  N   UNL     1     -32.192  28.599   5.961  0.00  0.00    -0.306 NA
ATOM      9  N   UNL     1     -31.443  30.316   4.584  0.00  0.00    -0.332 N 
ATOM     10  C   UNL     1     -33.265  27.271   3.787  0.00  0.00    +0.083 C 
ATOM     11  C   UNL     1     -32.837  27.390   6.165  0.00  0.00    +0.276 C 
ATOM     12  C   UNL     1     -32.650  28.432   3.570  0.00  0.00    +0.065 C 
ATOM     13  C   UNL     1     -32.087  29.114   4.765  0.00  0.00    +0.193 C 
ATOM     14  H   UNL     1     -31.059  30.790   5.357  0.00  0.00    +0.145 HD
ATOM     15  H   UNL     1     -31.365  30.701   3.681  0.00  0.00    +0.145 HD
ENDBRANCH   5   7
BRANCH   2  16
ATOM     16  O   UNL     1     -35.852  23.240   5.989  0.00  0.00    -0.379 OA
ATOM     17  H   UNL     1     -35.003  23.402   6.428  0.00  0.00    +0.211 HD
ENDBRANCH   2  16
BRANCH   3  18
ATOM     18  O   UNL     1     -36.159  26.641   4.831  0.00  0.00    -0.378 OA
ATOM     19  H   UNL     1     -36.531  27.278   5.461  0.00  0.00    +0.211 HD
ENDBRANCH   3  18
BRANCH   4  20
ATOM     20  C   UNL     1     -35.890  24.398   2.487  0.00  0.00    +0.241 C 
BRANCH  20  21
ATOM     21  O   UNL     1     -35.487  23.500   1.466  0.00  0.00    -0.443 OA
BRANCH  21  23
ATOM     22  O   UNL     1     -36.953  21.809   2.006  0.00  0.00    -0.245 OA
ATOM     23  C   UNL     1     -35.859  22.197   1.629  0.00  0.00    +0.341 C 
BRANCH  23  24
ATOM     24  C   UNL     1     -34.742  21.281   1.286  0.00  0.00    +0.076 C 
ATOM     25  C   UNL     1     -33.750  21.693   0.397  0.00  0.00    +0.006 C 
ATOM     26  C   UNL     1     -34.686  20.007   1.851  0.00  0.00    +0.006 C 
ATOM     27  C   UNL     1     -32.701  20.832   0.074  0.00  0.00    +0.000 C 
ATOM     28  C   UNL     1     -33.638  19.146   1.528  0.00  0.00    +0.000 C 
ATOM     29  C   UNL     1     -32.645  19.559   0.640  0.00  0.00    +0.000 C 
ENDBRANCH  23  24
ENDBRANCH  21  23
ENDBRANCH  20  21
ENDBRANCH   4  20
TORSDOF 7
ENDMDL
MODEL 4
REMARK VINA RESULT:      -6.4      3.668      7.564
REMARK  Name = 21115980
REMARK  7 active torsions:
REMARK  status: ('A' for Active; 'I' for Inactive)
REMARK    1  A    between atoms: C_2  and  O_16
REMARK    2  A    between atoms: C_3  and  O_18
REMARK    3  A    between atoms: C_4  and  C_20
REMARK    4  A    between atoms: C_5  and  N_7
REMARK    5  A    between atoms: C_20  and  O_21
REMARK    6  A    between atoms: O_21  and  C_23
REMARK    7  A    between atoms: C_23  and  C_24
REMARK                            x       y       z     vdW  Elec       q    Type
REMARK                         _______ _______ _______ _____ _____    ______ ____
ROOT
ATOM      1  O   UNL     1     -35.134  21.777   1.296  0.00  0.00    -0.331 OA
ATOM      2  C   UNL     1     -37.434  21.847   1.944  0.00  0.00    +0.172 C 
ATOM      3  C   UNL     1     -37.067  20.435   1.537  0.00  0.00    +0.188 C 
ATOM      4  C   UNL     1     -36.079  22.546   2.069  0.00  0.00    +0.190 C 
ATOM      5  C   UNL     1     -35.823  20.673   0.696  0.00  0.00    +0.236 C 
ENDROOT
BRANCH   5   7
ATOM      6  O   UNL     1     -36.209  18.431  -0.968  0.00  0.00    -0.193 OA
ATOM      7  N   UNL     1     -34.946  19.543   0.611  0.00  0.00    -0.178 N 
ATOM      8  N   UNL     1     -34.313  17.389  -0.283  0.00  0.00    -0.306 NA
ATOM      9  N   UNL     1     -32.369  16.325   0.425  0.00  0.00    -0.332 N 
ATOM     10  C   UNL     1     -33.805  19.521   1.402  0.00  0.00    +0.083 C 
ATOM     11  C   UNL     1     -35.205  18.447  -0.253  0.00  0.00    +0.276 C 
ATOM     12  C   UNL     1     -32.935  18.512   1.389  0.00  0.00    +0.065 C 
ATOM     13  C   UNL     1     -33.244  17.386   0.469  0.00  0.00    +0.193 C 
ATOM     14  H   UNL     1     -32.549  15.565  -0.175  0.00  0.00    +0.145 HD
ATOM     15  H   UNL     1     -31.566  16.326   0.993  0.00  0.00    +0.145 HD
ENDBRANCH   5   7
BRANCH   2  16
ATOM     16  O   UNL     1     -38.163  22.467   0.886  0.00  0.00    -0.379 OA
ATOM     17  H   UNL     1     -37.665  22.383   0.058  0.00  0.00    +0.211 HD
ENDBRANCH   2  16
BRANCH   3  18
ATOM     18  O   UNL     1     -36.762  19.692   2.712  0.00  0.00    -0.378 OA
ATOM     19  H   UNL     1     -36.160  18.966   2.488  0.00  0.00    +0.211 HD
ENDBRANCH   3  18
BRANCH   4  20
ATOM     20  C   UNL     1     -35.564  22.615   3.500  0.00  0.00    +0.241 C 
BRANCH  20  21
ATOM     21  O   UNL     1     -36.599  23.110   4.332  0.00  0.00    -0.443 OA
BRANCH  21  23
ATOM     22  O   UNL     1     -38.020  24.854   3.844  0.00  0.00    -0.245 OA
ATOM     23  C   UNL     1     -36.924  24.425   4.170  0.00  0.00    +0.341 C 
BRANCH  23  24
ATOM     24  C   UNL     1     -35.755  25.298   4.443  0.00  0.00    +0.076 C 
ATOM     25  C   UNL     1     -35.273  26.149   3.450  0.00  0.00    +0.006 C 
ATOM     26  C   UNL     1     -35.139  25.268   5.694  0.00  0.00    +0.006 C 
ATOM     27  C   UNL     1     -34.175  26.970   3.707  0.00  0.00    +0.000 C 
ATOM     28  C   UNL     1     -34.041  26.088   5.951  0.00  0.00    +0.000 C 
ATOM     29  C   UNL     1     -33.559  26.940   4.958  0.00  0.00    +0.000 C 
ENDBRANCH  23  24
ENDBRANCH  21  23
ENDBRANCH  20  21
ENDBRANCH   4  20
TORSDOF 7
ENDMDL
MODEL 5
REMARK VINA RESULT:      -6.4      2.653      3.723
REMARK  Name = 21115980
REMARK  7 active torsions:
REMARK  status: ('A' for Active; 'I' for Inactive)
REMARK    1  A    between atoms: C_2  and  O_16
REMARK    2  A    between atoms: C_3  and  O_18
REMARK    3  A    between atoms: C_4  and  C_20
REMARK    4  A    between atoms: C_5  and  N_7
REMARK    5  A    between atoms: C_20  and  O_21
REMARK    6  A    between atoms: O_21  and  C_23
REMARK    7  A    between atoms: C_23  and  C_24
REMARK                            x       y       z     vdW  Elec       q    Type
REMARK                         _______ _______ _______ _____ _____    ______ ____
ROOT
ATOM      1  O   UNL     1     -35.013  24.674   3.526  0.00  0.00    -0.331 OA
ATOM      2  C   UNL     1     -34.282  25.846   5.477  0.00  0.00    +0.172 C 
ATOM      3  C   UNL     1     -35.262  26.707   4.708  0.00  0.00    +0.188 C 
ATOM      4  C   UNL     1     -34.437  24.467   4.833  0.00  0.00    +0.190 C 
ATOM      5  C   UNL     1     -35.201  26.081   3.325  0.00  0.00    +0.236 C 
ENDROOT
BRANCH   5   7
ATOM      6  O   UNL     1     -35.754  28.428   1.867  0.00  0.00    -0.193 OA
ATOM      7  N   UNL     1     -36.368  26.304   2.525  0.00  0.00    -0.178 N 
ATOM      8  N   UNL     1     -37.733  27.661   1.063  0.00  0.00    -0.306 NA
ATOM      9  N   UNL     1     -39.760  26.869   0.244  0.00  0.00    -0.332 N 
ATOM     10  C   UNL     1     -37.325  25.301   2.444  0.00  0.00    +0.083 C 
ATOM     11  C   UNL     1     -36.580  27.516   1.816  0.00  0.00    +0.276 C 
ATOM     12  C   UNL     1     -38.440  25.422   1.725  0.00  0.00    +0.065 C 
ATOM     13  C   UNL     1     -38.622  26.705   0.998  0.00  0.00    +0.193 C 
ATOM     14  H   UNL     1     -39.907  27.710  -0.249  0.00  0.00    +0.145 HD
ATOM     15  H   UNL     1     -40.428  26.148   0.198  0.00  0.00    +0.145 HD
ENDBRANCH   5   7
BRANCH   2  16
ATOM     16  O   UNL     1     -32.956  26.310   5.232  0.00  0.00    -0.379 OA
ATOM     17  H   UNL     1     -32.966  27.272   5.115  0.00  0.00    +0.211 HD
ENDBRANCH   2  16
BRANCH   3  18
ATOM     18  O   UNL     1     -36.553  26.552   5.289  0.00  0.00    -0.378 OA
ATOM     19  H   UNL     1     -36.542  25.800   5.902  0.00  0.00    +0.211 HD
ENDBRANCH   3  18
BRANCH   4  20
ATOM     20  C   UNL     1     -35.362  23.538   5.607  0.00  0.00    +0.241 C 
BRANCH  20  21
ATOM     21  O   UNL     1     -36.088  22.746   4.683  0.00  0.00    -0.443 OA
BRANCH  21  23
ATOM     22  O   UNL     1     -35.024  20.772   5.205  0.00  0.00    -0.245 OA
ATOM     23  C   UNL     1     -35.567  21.517   4.404  0.00  0.00    +0.341 C 
BRANCH  23  24
ATOM     24  C   UNL     1     -35.741  21.181   2.968  0.00  0.00    +0.076 C 
ATOM     25  C   UNL     1     -36.796  21.736   2.245  0.00  0.00    +0.006 C 
ATOM     26  C   UNL     1     -34.849  20.309   2.343  0.00  0.00    +0.006 C 
ATOM     27  C   UNL     1     -36.959  21.421   0.896  0.00  0.00    +0.000 C 
ATOM     28  C   UNL     1     -35.013  19.993   0.994  0.00  0.00    +0.000 C 
ATOM     29  C   UNL     1     -36.068  20.549   0.270  0.00  0.00    +0.000 C 
ENDBRANCH  23  24
ENDBRANCH  21  23
ENDBRANCH  20  21
ENDBRANCH   4  20
TORSDOF 7
ENDMDL
MODEL 6
REMARK VINA RESULT:      -6.3      2.120      3.402
REMARK  Name = 21115980
REMARK  7 active torsions:
REMARK  status: ('A' for Active; 'I' for Inactive)
REMARK    1  A    between atoms: C_2  and  O_16
REMARK    2  A    between atoms: C_3  and  O_18
REMARK    3  A    between atoms: C_4  and  C_20
REMARK    4  A    between atoms: C_5  and  N_7
REMARK    5  A    between atoms: C_20  and  O_21
REMARK    6  A    between atoms: O_21  and  C_23
REMARK    7  A    between atoms: C_23  and  C_24
REMARK                            x       y       z     vdW  Elec       q    Type
REMARK                         _______ _______ _______ _____ _____    ______ ____
ROOT
ATOM      1  O   UNL     1     -37.351  22.823   3.325  0.00  0.00    -0.331 OA
ATOM      2  C   UNL     1     -37.343  22.750   0.935  0.00  0.00    +0.172 C 
ATOM      3  C   UNL     1     -36.539  23.943   1.406  0.00  0.00    +0.188 C 
ATOM      4  C   UNL     1     -37.541  21.927   2.210  0.00  0.00    +0.190 C 
ATOM      5  C   UNL     1     -37.072  24.135   2.817  0.00  0.00    +0.236 C 
ENDROOT
BRANCH   5   7
ATOM      6  O   UNL     1     -36.427  26.875   2.694  0.00  0.00    -0.193 OA
ATOM      7  N   UNL     1     -36.172  24.814   3.699  0.00  0.00    -0.178 N 
ATOM      8  N   UNL     1     -35.012  26.790   4.467  0.00  0.00    -0.306 NA
ATOM      9  N   UNL     1     -33.561  26.697   6.282  0.00  0.00    -0.332 N 
ATOM     10  C   UNL     1     -35.548  24.089   4.706  0.00  0.00    +0.083 C 
ATOM     11  C   UNL     1     -35.894  26.201   3.577  0.00  0.00    +0.276 C 
ATOM     12  C   UNL     1     -34.696  24.638   5.571  0.00  0.00    +0.065 C 
ATOM     13  C   UNL     1     -34.435  26.092   5.409  0.00  0.00    +0.193 C 
ATOM     14  H   UNL     1     -33.370  27.659   6.198  0.00  0.00    +0.145 HD
ATOM     15  H   UNL     1     -33.128  26.168   6.990  0.00  0.00    +0.145 HD
ENDBRANCH   5   7
BRANCH   2  16
ATOM     16  O   UNL     1     -38.622  23.193   0.484  0.00  0.00    -0.379 OA
ATOM     17  H   UNL     1     -39.281  22.501   0.651  0.00  0.00    +0.211 HD
ENDBRANCH   2  16
BRANCH   3  18
ATOM     18  O   UNL     1     -35.162  23.583   1.418  0.00  0.00    -0.378 OA
ATOM     19  H   UNL     1     -34.971  23.012   0.659  0.00  0.00    +0.211 HD
ENDBRANCH   3  18
BRANCH   4  20
ATOM     20  C   UNL     1     -36.542  20.787   2.354  0.00  0.00    +0.241 C 
BRANCH  20  21
ATOM     21  O   UNL     1     -35.683  20.790   1.226  0.00  0.00    -0.443 OA
BRANCH  21  23
ATOM     22  O   UNL     1     -36.154  18.713   0.351  0.00  0.00    -0.245 OA
ATOM     23  C   UNL     1     -35.361  19.568   0.712  0.00  0.00    +0.341 C 
BRANCH  23  24
ATOM     24  C   UNL     1     -33.888  19.395   0.641  0.00  0.00    +0.076 C 
ATOM     25  C   UNL     1     -33.297  18.236   1.142  0.00  0.00    +0.006 C 
ATOM     26  C   UNL     1     -33.095  20.392   0.073  0.00  0.00    +0.006 C 
ATOM     27  C   UNL     1     -31.913  18.073   1.074  0.00  0.00    +0.000 C 
ATOM     28  C   UNL     1     -31.711  20.230   0.006  0.00  0.00    +0.000 C 
ATOM     29  C   UNL     1     -31.120  19.070   0.506  0.00  0.00    +0.000 C 
ENDBRANCH  23  24
ENDBRANCH  21  23
ENDBRANCH  20  21
ENDBRANCH   4  20
TORSDOF 7
ENDMDL
MODEL 7
REMARK VINA RESULT:      -6.2      2.947      4.483
REMARK  Name = 21115980
REMARK  7 active torsions:
REMARK  status: ('A' for Active; 'I' for Inactive)
REMARK    1  A    between atoms: C_2  and  O_16
REMARK    2  A    between atoms: C_3  and  O_18
REMARK    3  A    between atoms: C_4  and  C_20
REMARK    4  A    between atoms: C_5  and  N_7
REMARK    5  A    between atoms: C_20  and  O_21
REMARK    6  A    between atoms: O_21  and  C_23
REMARK    7  A    between atoms: C_23  and  C_24
REMARK                            x       y       z     vdW  Elec       q    Type
REMARK                         _______ _______ _______ _____ _____    ______ ____
ROOT
ATOM      1  O   UNL     1     -37.656  21.102   2.105  0.00  0.00    -0.331 OA
ATOM      2  C   UNL     1     -38.639  21.841   0.055  0.00  0.00    +0.172 C 
ATOM      3  C   UNL     1     -38.268  23.042   0.899  0.00  0.00    +0.188 C 
ATOM      4  C   UNL     1     -37.924  20.682   0.750  0.00  0.00    +0.190 C 
ATOM      5  C   UNL     1     -38.175  22.426   2.285  0.00  0.00    +0.236 C 
ENDROOT
BRANCH   5   7
ATOM      6  O   UNL     1     -38.803  24.922   3.431  0.00  0.00    -0.193 OA
ATOM      7  N   UNL     1     -37.343  23.151   3.198  0.00  0.00    -0.178 N 
ATOM      8  N   UNL     1     -36.870  25.053   4.613  0.00  0.00    -0.306 NA
ATOM      9  N   UNL     1     -34.886  25.181   5.820  0.00  0.00    -0.332 N 
ATOM     10  C   UNL     1     -36.119  22.607   3.565  0.00  0.00    +0.083 C 
ATOM     11  C   UNL     1     -37.726  24.408   3.736  0.00  0.00    +0.276 C 
ATOM     12  C   UNL     1     -35.282  23.212   4.406  0.00  0.00    +0.065 C 
ATOM     13  C   UNL     1     -35.722  24.524   4.947  0.00  0.00    +0.193 C 
ATOM     14  H   UNL     1     -35.153  26.052   6.195  0.00  0.00    +0.145 HD
ATOM     15  H   UNL     1     -34.023  24.780   6.069  0.00  0.00    +0.145 HD
ENDBRANCH   5   7
BRANCH   2  16
ATOM     16  O   UNL     1     -40.045  21.619   0.145  0.00  0.00    -0.379 OA
ATOM     17  H   UNL     1     -40.513  22.463   0.043  0.00  0.00    +0.211 HD
ENDBRANCH   2  16
BRANCH   3  18
ATOM     18  O   UNL     1     -37.003  23.527   0.463  0.00  0.00    -0.378 OA
ATOM     19  H   UNL     1     -36.719  24.254   1.039  0.00  0.00    +0.211 HD
ENDBRANCH   3  18
BRANCH   4  20
ATOM     20  C   UNL     1     -36.594  20.317   0.104  0.00  0.00    +0.241 C 
BRANCH  20  21
ATOM     21  O   UNL     1     -35.586  20.332   1.101  0.00  0.00    -0.443 OA
BRANCH  21  23
ATOM     22  O   UNL     1     -34.346  22.195   0.562  0.00  0.00    -0.245 OA
ATOM     23  C   UNL     1     -34.438  20.999   0.786  0.00  0.00    +0.341 C 
BRANCH  23  24
ATOM     24  C   UNL     1     -33.280  20.071   0.747  0.00  0.00    +0.076 C 
ATOM     25  C   UNL     1     -33.342  18.849   1.416  0.00  0.00    +0.006 C 
ATOM     26  C   UNL     1     -32.128  20.422   0.043  0.00  0.00    +0.006 C 
ATOM     27  C   UNL     1     -32.254  17.977   1.379  0.00  0.00    +0.000 C 
ATOM     28  C   UNL     1     -31.040  19.551   0.006  0.00  0.00    +0.000 C 
ATOM     29  C   UNL     1     -31.103  18.328   0.674  0.00  0.00    +0.000 C 
ENDBRANCH  23  24
ENDBRANCH  21  23
ENDBRANCH  20  21
ENDBRANCH   4  20
TORSDOF 7
ENDMDL
MODEL 8
REMARK VINA RESULT:      -6.2      2.659      4.708
REMARK  Name = 21115980
REMARK  7 active torsions:
REMARK  status: ('A' for Active; 'I' for Inactive)
REMARK    1  A    between atoms: C_2  and  O_16
REMARK    2  A    between atoms: C_3  and  O_18
REMARK    3  A    between atoms: C_4  and  C_20
REMARK    4  A    between atoms: C_5  and  N_7
REMARK    5  A    between atoms: C_20  and  O_21
REMARK    6  A    between atoms: O_21  and  C_23
REMARK    7  A    between atoms: C_23  and  C_24
REMARK                            x       y       z     vdW  Elec       q    Type
REMARK                         _______ _______ _______ _____ _____    ______ ____
ROOT
ATOM      1  O   UNL     1     -34.421  24.002   3.647  0.00  0.00    -0.331 OA
ATOM      2  C   UNL     1     -36.017  23.294   5.281  0.00  0.00    +0.172 C 
ATOM      3  C   UNL     1     -35.611  24.726   5.559  0.00  0.00    +0.188 C 
ATOM      4  C   UNL     1     -35.466  23.033   3.878  0.00  0.00    +0.190 C 
ATOM      5  C   UNL     1     -34.287  24.819   4.817  0.00  0.00    +0.236 C 
ENDROOT
BRANCH   5   7
ATOM      6  O   UNL     1     -32.970  26.679   6.476  0.00  0.00    -0.193 OA
ATOM      7  N   UNL     1     -33.917  26.150   4.439  0.00  0.00    -0.178 N 
ATOM      8  N   UNL     1     -32.926  28.307   4.894  0.00  0.00    -0.306 NA
ATOM      9  N   UNL     1     -32.885  29.971   3.271  0.00  0.00    -0.332 N 
ATOM     10  C   UNL     1     -34.220  26.589   3.156  0.00  0.00    +0.083 C 
ATOM     11  C   UNL     1     -33.253  27.033   5.330  0.00  0.00    +0.276 C 
ATOM     12  C   UNL     1     -33.914  27.810   2.719  0.00  0.00    +0.065 C 
ATOM     13  C   UNL     1     -33.219  28.702   3.683  0.00  0.00    +0.193 C 
ATOM     14  H   UNL     1     -32.423  30.584   3.888  0.00  0.00    +0.145 HD
ATOM     15  H   UNL     1     -33.107  30.266   2.359  0.00  0.00    +0.145 HD
ENDBRANCH   5   7
BRANCH   2  16
ATOM     16  O   UNL     1     -35.345  22.429   6.195  0.00  0.00    -0.379 OA
ATOM     17  H   UNL     1     -34.983  21.669   5.713  0.00  0.00    +0.211 HD
ENDBRANCH   2  16
BRANCH   3  18
ATOM     18  O   UNL     1     -36.586  25.592   4.987  0.00  0.00    -0.378 OA
ATOM     19  H   UNL     1     -36.638  25.433   4.032  0.00  0.00    +0.211 HD
ENDBRANCH   3  18
BRANCH   4  20
ATOM     20  C   UNL     1     -36.506  23.200   2.779  0.00  0.00    +0.241 C 
BRANCH  20  21
ATOM     21  O   UNL     1     -37.791  23.259   3.375  0.00  0.00    -0.443 OA
BRANCH  21  23
ATOM     22  O   UNL     1     -38.990  21.781   2.080  0.00  0.00    -0.245 OA
ATOM     23  C   UNL     1     -38.839  22.881   2.587  0.00  0.00    +0.341 C 
BRANCH  23  24
ATOM     24  C   UNL     1     -39.801  23.998   2.413  0.00  0.00    +0.076 C 
ATOM     25  C   UNL     1     -40.675  24.003   1.326  0.00  0.00    +0.006 C 
ATOM     26  C   UNL     1     -39.832  25.043   3.337  0.00  0.00    +0.006 C 
ATOM     27  C   UNL     1     -41.580  25.052   1.163  0.00  0.00    +0.000 C 
ATOM     28  C   UNL     1     -40.736  26.092   3.173  0.00  0.00    +0.000 C 
ATOM     29  C   UNL     1     -41.610  26.097   2.087  0.00  0.00    +0.000 C 
ENDBRANCH  23  24
ENDBRANCH  21  23
ENDBRANCH  20  21
ENDBRANCH   4  20
TORSDOF 7
ENDMDL
MODEL 9
REMARK VINA RESULT:      -6.1      3.404      6.763
REMARK  Name = 21115980
REMARK  7 active torsions:
REMARK  status: ('A' for Active; 'I' for Inactive)
REMARK    1  A    between atoms: C_2  and  O_16
REMARK    2  A    between atoms: C_3  and  O_18
REMARK    3  A    between atoms: C_4  and  C_20
REMARK    4  A    between atoms: C_5  and  N_7
REMARK    5  A    between atoms: C_20  and  O_21
REMARK    6  A    between atoms: O_21  and  C_23
REMARK    7  A    between atoms: C_23  and  C_24
REMARK                            x       y       z     vdW  Elec       q    Type
REMARK                         _______ _______ _______ _____ _____    ______ ____
ROOT
ATOM      1  O   UNL     1     -37.056  23.168   3.818  0.00  0.00    -0.331 OA
ATOM      2  C   UNL     1     -35.789  21.649   2.477  0.00  0.00    +0.172 C 
ATOM      3  C   UNL     1     -37.013  22.099   1.709  0.00  0.00    +0.188 C 
ATOM      4  C   UNL     1     -35.732  22.618   3.658  0.00  0.00    +0.190 C 
ATOM      5  C   UNL     1     -37.917  22.586   2.830  0.00  0.00    +0.236 C 
ENDROOT
BRANCH   5   7
ATOM      6  O   UNL     1     -40.310  21.983   1.470  0.00  0.00    -0.193 OA
ATOM      7  N   UNL     1     -38.900  23.543   2.421  0.00  0.00    -0.178 N 
ATOM      8  N   UNL     1     -40.992  24.146   1.372  0.00  0.00    -0.306 NA
ATOM      9  N   UNL     1     -41.685  26.364   1.272  0.00  0.00    -0.332 N 
ATOM     10  C   UNL     1     -38.684  24.886   2.700  0.00  0.00    +0.083 C 
ATOM     11  C   UNL     1     -40.086  23.165   1.737  0.00  0.00    +0.276 C 
ATOM     12  C   UNL     1     -39.543  25.844   2.356  0.00  0.00    +0.065 C 
ATOM     13  C   UNL     1     -40.771  25.405   1.644  0.00  0.00    +0.193 C 
ATOM     14  H   UNL     1     -42.508  26.101   0.799  0.00  0.00    +0.145 HD
ATOM     15  H   UNL     1     -41.515  27.311   1.479  0.00  0.00    +0.145 HD
ENDBRANCH   5   7
BRANCH   2  16
ATOM     16  O   UNL     1     -36.010  20.334   2.985  0.00  0.00    -0.379 OA
ATOM     17  H   UNL     1     -35.518  20.221   3.813  0.00  0.00    +0.211 HD
ENDBRANCH   2  16
BRANCH   3  18
ATOM     18  O   UNL     1     -36.638  23.168   0.847  0.00  0.00    -0.378 OA
ATOM     19  H   UNL     1     -36.411  22.814  -0.027  0.00  0.00    +0.211 HD
ENDBRANCH   3  18
BRANCH   4  20
ATOM     20  C   UNL     1     -34.769  23.779   3.442  0.00  0.00    +0.241 C 
BRANCH  20  21
ATOM     21  O   UNL     1     -35.148  24.847   4.293  0.00  0.00    -0.443 OA
BRANCH  21  23
ATOM     22  O   UNL     1     -35.350  26.632   2.854  0.00  0.00    -0.245 OA
ATOM     23  C   UNL     1     -34.868  26.104   3.843  0.00  0.00    +0.341 C 
BRANCH  23  24
ATOM     24  C   UNL     1     -33.876  26.773   4.722  0.00  0.00    +0.076 C 
ATOM     25  C   UNL     1     -33.770  26.402   6.062  0.00  0.00    +0.006 C 
ATOM     26  C   UNL     1     -33.052  27.774   4.209  0.00  0.00    +0.006 C 
ATOM     27  C   UNL     1     -32.838  27.030   6.888  0.00  0.00    +0.000 C 
ATOM     28  C   UNL     1     -32.121  28.403   5.035  0.00  0.00    +0.000 C 
ATOM     29  C   UNL     1     -32.013  28.031   6.375  0.00  0.00    +0.000 C 
ENDBRANCH  23  24
ENDBRANCH  21  23
ENDBRANCH  20  21
ENDBRANCH   4  20
TORSDOF 7
ENDMDL
