MODEL 1
REMARK VINA RESULT:      -7.7      0.000      0.000
REMARK  Name = 54671008
REMARK  7 active torsions:
REMARK  status: ('A' for Active; 'I' for Inactive)
REMARK    1  A    between atoms: C_4  and  C_21
REMARK    2  A    between atoms: C_6  and  C_11
REMARK    3  A    between atoms: C_8  and  O_34
REMARK    4  A    between atoms: N_10  and  C_13
REMARK    5  A    between atoms: C_13  and  C_15
REMARK    6  A    between atoms: C_21  and  N_25
REMARK    7  A    between atoms: C_26  and  C_31
REMARK                            x       y       z     vdW  Elec       q    Type
REMARK                         _______ _______ _______ _____ _____    ______ ____
ROOT
ATOM      1  O   UNL     1     -35.301  23.023   6.414  0.00  0.00    -0.271 OA
ATOM      2  N   UNL     1     -36.062  24.179   4.526  0.00  0.00    -0.232 N 
ATOM      3  N   UNL     1     -36.307  23.007   2.471  0.00  0.00    -0.386 NA
ATOM      4  C   UNL     1     -36.388  24.095   3.174  0.00  0.00    +0.182 C 
ATOM      5  C   UNL     1     -35.614  23.055   5.225  0.00  0.00    +0.265 C 
ATOM      6  C   UNL     1     -35.874  21.882   3.117  0.00  0.00    +0.199 C 
ATOM      7  C   UNL     1     -36.192  25.458   5.220  0.00  0.00    +0.122 C 
ATOM      8  C   UNL     1     -35.527  21.812   4.410  0.00  0.00    +0.245 C 
ENDROOT
BRANCH   6  11
ATOM      9  O   UNL     1     -36.812  20.097   1.912  0.00  0.00    -0.268 OA
ATOM     10  N   UNL     1     -34.491  20.269   2.054  0.00  0.00    -0.295 N 
ATOM     11  C   UNL     1     -35.793  20.662   2.301  0.00  0.00    +0.275 C 
ATOM     12  H   UNL     1     -33.759  20.812   2.426  0.00  0.00    +0.150 HD
BRANCH  10  13
ATOM     13  C   UNL     1     -34.152  19.099   1.275  0.00  0.00    +0.117 C 
BRANCH  13  15
ATOM     14  F   UNL     1     -28.782  19.178  -0.415  0.00  0.00    -0.204 F 
ATOM     15  C   UNL     1     -32.719  19.120   0.824  0.00  0.00    -0.002 C 
ATOM     16  C   UNL     1     -31.871  18.061   1.147  0.00  0.00    -0.000 C 
ATOM     17  C   UNL     1     -32.237  20.198   0.083  0.00  0.00    -0.000 C 
ATOM     18  C   UNL     1     -30.541  18.081   0.729  0.00  0.00    +0.029 C 
ATOM     19  C   UNL     1     -30.907  20.219  -0.336  0.00  0.00    +0.029 C 
ATOM     20  C   UNL     1     -30.059  19.159  -0.012  0.00  0.00    +0.140 C 
ENDBRANCH  13  15
ENDBRANCH  10  13
ENDBRANCH   6  11
BRANCH   4  21
ATOM     21  C   UNL     1     -36.865  25.347   2.478  0.00  0.00    +0.117 C 
ATOM     22  C   UNL     1     -36.845  25.137   0.970  0.00  0.00    +0.028 C 
ATOM     23  C   UNL     1     -38.259  25.711   2.971  0.00  0.00    +0.028 C 
BRANCH  21  25
ATOM     24  O   UNL     1     -36.771  28.090   1.637  0.00  0.00    -0.265 OA
ATOM     25  N   UNL     1     -35.897  26.336   2.877  0.00  0.00    -0.293 N 
ATOM     26  C   UNL     1     -35.933  27.645   2.416  0.00  0.00    +0.302 C 
ATOM     27  H   UNL     1     -35.183  26.073   3.503  0.00  0.00    +0.150 HD
BRANCH  26  31
ATOM     28  O   UNL     1     -34.731  29.799   2.408  0.00  0.00    -0.416 OA
ATOM     29  N   UNL     1     -33.938  28.237   3.801  0.00  0.00    -0.102 NA
ATOM     30  N   UNL     1     -33.149  29.365   3.930  0.00  0.00    -0.111 NA
ATOM     31  C   UNL     1     -34.848  28.536   2.903  0.00  0.00    +0.304 A 
ATOM     32  C   UNL     1     -33.648  30.250   3.099  0.00  0.00    +0.227 A 
ATOM     33  C   UNL     1     -33.211  31.623   2.820  0.00  0.00    +0.097 C 
ENDBRANCH  26  31
ENDBRANCH  21  25
ENDBRANCH   4  21
BRANCH   8  34
ATOM     34  O   UNL     1     -35.095  20.658   5.023  0.00  0.00    -0.370 OA
ATOM     35  H   UNL     1     -35.606  20.272   5.707  0.00  0.00    +0.211 HD
ENDBRANCH   8  34
TORSDOF 7
ENDMDL
MODEL 2
REMARK VINA RESULT:      -7.6      1.838      2.188
REMARK  Name = 54671008
REMARK  7 active torsions:
REMARK  status: ('A' for Active; 'I' for Inactive)
REMARK    1  A    between atoms: C_4  and  C_21
REMARK    2  A    between atoms: C_6  and  C_11
REMARK    3  A    between atoms: C_8  and  O_34
REMARK    4  A    between atoms: N_10  and  C_13
REMARK    5  A    between atoms: C_13  and  C_15
REMARK    6  A    between atoms: C_21  and  N_25
REMARK    7  A    between atoms: C_26  and  C_31
REMARK                            x       y       z     vdW  Elec       q    Type
REMARK                         _______ _______ _______ _____ _____    ______ ____
ROOT
ATOM      1  O   UNL     1     -35.954  22.746   5.973  0.00  0.00    -0.271 OA
ATOM      2  N   UNL     1     -35.487  24.312   4.297  0.00  0.00    -0.232 N 
ATOM      3  N   UNL     1     -35.077  23.550   2.083  0.00  0.00    -0.386 NA
ATOM      4  C   UNL     1     -35.189  24.508   2.951  0.00  0.00    +0.182 C 
ATOM      5  C   UNL     1     -35.690  23.026   4.805  0.00  0.00    +0.265 C 
ATOM      6  C   UNL     1     -35.269  22.274   2.538  0.00  0.00    +0.199 C 
ATOM      7  C   UNL     1     -35.591  25.466   5.188  0.00  0.00    +0.122 C 
ATOM      8  C   UNL     1     -35.560  21.935   3.801  0.00  0.00    +0.245 C 
ENDROOT
BRANCH   6  11
ATOM      9  O   UNL     1     -35.799  21.232   0.501  0.00  0.00    -0.268 OA
ATOM     10  N   UNL     1     -34.226  20.235   1.904  0.00  0.00    -0.295 N 
ATOM     11  C   UNL     1     -35.138  21.207   1.536  0.00  0.00    +0.275 C 
ATOM     12  H   UNL     1     -33.760  20.333   2.765  0.00  0.00    +0.150 HD
BRANCH  10  13
ATOM     13  C   UNL     1     -33.923  19.083   1.085  0.00  0.00    +0.117 C 
BRANCH  13  15
ATOM     14  F   UNL     1     -28.465  18.839  -0.275  0.00  0.00    -0.204 F 
ATOM     15  C   UNL     1     -32.468  19.018   0.722  0.00  0.00    -0.002 C 
ATOM     16  C   UNL     1     -31.889  20.044  -0.024  0.00  0.00    -0.000 C 
ATOM     17  C   UNL     1     -31.695  17.931   1.131  0.00  0.00    -0.000 C 
ATOM     18  C   UNL     1     -30.537  19.984  -0.361  0.00  0.00    +0.029 C 
ATOM     19  C   UNL     1     -30.343  17.870   0.794  0.00  0.00    +0.029 C 
ATOM     20  C   UNL     1     -29.764  18.897   0.048  0.00  0.00    +0.140 C 
ENDBRANCH  13  15
ENDBRANCH  10  13
ENDBRANCH   6  11
BRANCH   4  21
ATOM     21  C   UNL     1     -34.982  25.923   2.466  0.00  0.00    +0.117 C 
ATOM     22  C   UNL     1     -34.474  25.905   1.031  0.00  0.00    +0.028 C 
ATOM     23  C   UNL     1     -36.282  26.704   2.588  0.00  0.00    +0.028 C 
BRANCH  21  25
ATOM     24  O   UNL     1     -33.675  28.474   2.300  0.00  0.00    -0.265 OA
ATOM     25  N   UNL     1     -33.980  26.436   3.365  0.00  0.00    -0.293 N 
ATOM     26  C   UNL     1     -33.403  27.688   3.204  0.00  0.00    +0.302 C 
ATOM     27  H   UNL     1     -33.695  25.877   4.124  0.00  0.00    +0.150 HD
BRANCH  26  31
ATOM     28  O   UNL     1     -32.700  28.830   5.274  0.00  0.00    -0.416 OA
ATOM     29  N   UNL     1     -31.100  27.719   4.174  0.00  0.00    -0.102 NA
ATOM     30  N   UNL     1     -30.529  28.289   5.296  0.00  0.00    -0.111 NA
ATOM     31  C   UNL     1     -32.367  28.060   4.202  0.00  0.00    +0.304 A 
ATOM     32  C   UNL     1     -31.499  28.928   5.908  0.00  0.00    +0.227 A 
ATOM     33  C   UNL     1     -31.468  29.712   7.149  0.00  0.00    +0.097 C 
ENDBRANCH  26  31
ENDBRANCH  21  25
ENDBRANCH   4  21
BRANCH   8  34
ATOM     34  O   UNL     1     -35.746  20.637   4.220  0.00  0.00    -0.370 OA
ATOM     35  H   UNL     1     -36.565  20.378   4.593  0.00  0.00    +0.211 HD
ENDBRANCH   8  34
TORSDOF 7
ENDMDL
MODEL 3
REMARK VINA RESULT:      -7.4      2.151      3.967
REMARK  Name = 54671008
REMARK  7 active torsions:
REMARK  status: ('A' for Active; 'I' for Inactive)
REMARK    1  A    between atoms: C_4  and  C_21
REMARK    2  A    between atoms: C_6  and  C_11
REMARK    3  A    between atoms: C_8  and  O_34
REMARK    4  A    between atoms: N_10  and  C_13
REMARK    5  A    between atoms: C_13  and  C_15
REMARK    6  A    between atoms: C_21  and  N_25
REMARK    7  A    between atoms: C_26  and  C_31
REMARK                            x       y       z     vdW  Elec       q    Type
REMARK                         _______ _______ _______ _____ _____    ______ ____
ROOT
ATOM      1  O   UNL     1     -35.340  23.053   6.473  0.00  0.00    -0.271 OA
ATOM      2  N   UNL     1     -35.896  24.199   4.509  0.00  0.00    -0.232 N 
ATOM      3  N   UNL     1     -36.036  22.992   2.465  0.00  0.00    -0.386 NA
ATOM      4  C   UNL     1     -36.118  24.099   3.138  0.00  0.00    +0.182 C 
ATOM      5  C   UNL     1     -35.558  23.072   5.263  0.00  0.00    +0.265 C 
ATOM      6  C   UNL     1     -35.709  21.863   3.165  0.00  0.00    +0.199 C 
ATOM      7  C   UNL     1     -36.018  25.499   5.166  0.00  0.00    +0.122 C 
ATOM      8  C   UNL     1     -35.467  21.808   4.482  0.00  0.00    +0.245 C 
ENDROOT
BRANCH   6  11
ATOM      9  O   UNL     1     -36.639  20.043   2.010  0.00  0.00    -0.268 OA
ATOM     10  N   UNL     1     -34.320  20.229   2.144  0.00  0.00    -0.295 N 
ATOM     11  C   UNL     1     -35.623  20.622   2.382  0.00  0.00    +0.275 C 
ATOM     12  H   UNL     1     -33.590  20.785   2.500  0.00  0.00    +0.150 HD
BRANCH  10  13
ATOM     13  C   UNL     1     -33.976  19.040   1.396  0.00  0.00    +0.117 C 
BRANCH  13  15
ATOM     14  F   UNL     1     -28.723  19.264  -0.620  0.00  0.00    -0.204 F 
ATOM     15  C   UNL     1     -32.575  19.100   0.859  0.00  0.00    -0.002 C 
ATOM     16  C   UNL     1     -32.175  20.181   0.074  0.00  0.00    -0.000 C 
ATOM     17  C   UNL     1     -31.674  18.074   1.144  0.00  0.00    -0.000 C 
ATOM     18  C   UNL     1     -30.874  20.236  -0.426  0.00  0.00    +0.029 C 
ATOM     19  C   UNL     1     -30.373  18.129   0.645  0.00  0.00    +0.029 C 
ATOM     20  C   UNL     1     -29.973  19.211  -0.140  0.00  0.00    +0.140 C 
ENDBRANCH  13  15
ENDBRANCH  10  13
ENDBRANCH   6  11
BRANCH   4  21
ATOM     21  C   UNL     1     -36.480  25.355   2.382  0.00  0.00    +0.117 C 
ATOM     22  C   UNL     1     -35.864  26.565   3.071  0.00  0.00    +0.028 C 
ATOM     23  C   UNL     1     -36.012  25.239   0.937  0.00  0.00    +0.028 C 
BRANCH  21  25
ATOM     24  O   UNL     1     -38.222  27.286   1.167  0.00  0.00    -0.265 OA
ATOM     25  N   UNL     1     -37.917  25.386   2.462  0.00  0.00    -0.293 N 
ATOM     26  C   UNL     1     -38.679  26.364   1.838  0.00  0.00    +0.302 C 
ATOM     27  H   UNL     1     -38.377  24.686   2.980  0.00  0.00    +0.150 HD
BRANCH  26  31
ATOM     28  O   UNL     1     -40.717  26.795   3.160  0.00  0.00    -0.416 OA
ATOM     29  N   UNL     1     -41.013  25.715   1.223  0.00  0.00    -0.102 NA
ATOM     30  N   UNL     1     -42.250  25.867   1.821  0.00  0.00    -0.111 NA
ATOM     31  C   UNL     1     -40.149  26.271   2.038  0.00  0.00    +0.304 A 
ATOM     32  C   UNL     1     -42.029  26.501   2.948  0.00  0.00    +0.227 A 
ATOM     33  C   UNL     1     -42.977  26.928   3.984  0.00  0.00    +0.097 C 
ENDBRANCH  26  31
ENDBRANCH  21  25
ENDBRANCH   4  21
BRANCH   8  34
ATOM     34  O   UNL     1     -35.141  20.650   5.150  0.00  0.00    -0.370 OA
ATOM     35  H   UNL     1     -34.902  19.882   4.669  0.00  0.00    +0.211 HD
ENDBRANCH   8  34
TORSDOF 7
ENDMDL
MODEL 4
REMARK VINA RESULT:      -7.2      1.979      2.825
REMARK  Name = 54671008
REMARK  7 active torsions:
REMARK  status: ('A' for Active; 'I' for Inactive)
REMARK    1  A    between atoms: C_4  and  C_21
REMARK    2  A    between atoms: C_6  and  C_11
REMARK    3  A    between atoms: C_8  and  O_34
REMARK    4  A    between atoms: N_10  and  C_13
REMARK    5  A    between atoms: C_13  and  C_15
REMARK    6  A    between atoms: C_21  and  N_25
REMARK    7  A    between atoms: C_26  and  C_31
REMARK                            x       y       z     vdW  Elec       q    Type
REMARK                         _______ _______ _______ _____ _____    ______ ____
ROOT
ATOM      1  O   UNL     1     -39.710  23.530   2.424  0.00  0.00    -0.271 OA
ATOM      2  N   UNL     1     -37.688  24.504   3.091  0.00  0.00    -0.232 N 
ATOM      3  N   UNL     1     -35.730  23.160   3.181  0.00  0.00    -0.386 NA
ATOM      4  C   UNL     1     -36.332  24.299   3.331  0.00  0.00    +0.182 C 
ATOM      5  C   UNL     1     -38.505  23.456   2.660  0.00  0.00    +0.265 C 
ATOM      6  C   UNL     1     -36.492  22.105   2.758  0.00  0.00    +0.199 C 
ATOM      7  C   UNL     1     -38.263  25.833   3.292  0.00  0.00    +0.122 C 
ATOM      8  C   UNL     1     -37.805  22.153   2.490  0.00  0.00    +0.245 C 
ENDROOT
BRANCH   6  11
ATOM      9  O   UNL     1     -35.187  20.314   3.536  0.00  0.00    -0.268 OA
ATOM     10  N   UNL     1     -35.890  20.318   1.313  0.00  0.00    -0.295 N 
ATOM     11  C   UNL     1     -35.788  20.826   2.594  0.00  0.00    +0.275 C 
ATOM     12  H   UNL     1     -36.404  20.829   0.646  0.00  0.00    +0.150 HD
BRANCH  10  13
ATOM     13  C   UNL     1     -35.282  19.072   0.904  0.00  0.00    +0.117 C 
BRANCH  13  15
ATOM     14  F   UNL     1     -29.750  19.620   0.012  0.00  0.00    -0.204 F 
ATOM     15  C   UNL     1     -33.807  19.218   0.666  0.00  0.00    -0.002 C 
ATOM     16  C   UNL     1     -32.922  18.262   1.164  0.00  0.00    -0.000 C 
ATOM     17  C   UNL     1     -33.321  20.310  -0.053  0.00  0.00    -0.000 C 
ATOM     18  C   UNL     1     -31.552  18.398   0.943  0.00  0.00    +0.029 C 
ATOM     19  C   UNL     1     -31.951  20.446  -0.274  0.00  0.00    +0.029 C 
ATOM     20  C   UNL     1     -31.066  19.490   0.225  0.00  0.00    +0.140 C 
ENDBRANCH  13  15
ENDBRANCH  10  13
ENDBRANCH   6  11
BRANCH   4  21
ATOM     21  C   UNL     1     -35.505  25.475   3.795  0.00  0.00    +0.117 C 
ATOM     22  C   UNL     1     -36.003  25.949   5.153  0.00  0.00    +0.028 C 
ATOM     23  C   UNL     1     -34.035  25.082   3.846  0.00  0.00    +0.028 C 
BRANCH  21  25
ATOM     24  O   UNL     1     -34.436  28.138   3.715  0.00  0.00    -0.265 OA
ATOM     25  N   UNL     1     -35.744  26.467   2.778  0.00  0.00    -0.293 N 
ATOM     26  C   UNL     1     -35.180  27.734   2.825  0.00  0.00    +0.302 C 
ATOM     27  H   UNL     1     -36.329  26.236   2.020  0.00  0.00    +0.150 HD
BRANCH  26  31
ATOM     28  O   UNL     1     -36.854  28.859   1.405  0.00  0.00    -0.416 OA
ATOM     29  N   UNL     1     -34.713  29.318   0.948  0.00  0.00    -0.102 NA
ATOM     30  N   UNL     1     -35.500  30.029   0.063  0.00  0.00    -0.111 NA
ATOM     31  C   UNL     1     -35.544  28.650   1.713  0.00  0.00    +0.304 A 
ATOM     32  C   UNL     1     -36.741  29.731   0.366  0.00  0.00    +0.227 A 
ATOM     33  C   UNL     1     -37.993  30.196  -0.245  0.00  0.00    +0.097 C 
ENDBRANCH  26  31
ENDBRANCH  21  25
ENDBRANCH   4  21
BRANCH   8  34
ATOM     34  O   UNL     1     -38.537  21.068   2.067  0.00  0.00    -0.370 OA
ATOM     35  H   UNL     1     -38.345  20.214   2.401  0.00  0.00    +0.211 HD
ENDBRANCH   8  34
TORSDOF 7
ENDMDL
MODEL 5
REMARK VINA RESULT:      -7.1      1.915      2.959
REMARK  Name = 54671008
REMARK  7 active torsions:
REMARK  status: ('A' for Active; 'I' for Inactive)
REMARK    1  A    between atoms: C_4  and  C_21
REMARK    2  A    between atoms: C_6  and  C_11
REMARK    3  A    between atoms: C_8  and  O_34
REMARK    4  A    between atoms: N_10  and  C_13
REMARK    5  A    between atoms: C_13  and  C_15
REMARK    6  A    between atoms: C_21  and  N_25
REMARK    7  A    between atoms: C_26  and  C_31
REMARK                            x       y       z     vdW  Elec       q    Type
REMARK                         _______ _______ _______ _____ _____    ______ ____
ROOT
ATOM      1  O   UNL     1     -36.735  24.932  -0.015  0.00  0.00    -0.271 OA
ATOM      2  N   UNL     1     -36.065  24.951   2.228  0.00  0.00    -0.232 N 
ATOM      3  N   UNL     1     -35.415  22.910   3.260  0.00  0.00    -0.386 NA
ATOM      4  C   UNL     1     -35.616  24.191   3.305  0.00  0.00    +0.182 C 
ATOM      5  C   UNL     1     -36.334  24.353   0.994  0.00  0.00    +0.265 C 
ATOM      6  C   UNL     1     -35.665  22.284   2.069  0.00  0.00    +0.199 C 
ATOM      7  C   UNL     1     -36.256  26.391   2.391  0.00  0.00    +0.122 C 
ATOM      8  C   UNL     1     -36.099  22.884   0.952  0.00  0.00    +0.245 C 
ENDROOT
BRANCH   6  11
ATOM      9  O   UNL     1     -36.191  20.062   2.617  0.00  0.00    -0.268 OA
ATOM     10  N   UNL     1     -34.299  20.488   1.325  0.00  0.00    -0.295 N 
ATOM     11  C   UNL     1     -35.429  20.834   2.042  0.00  0.00    +0.275 C 
ATOM     12  H   UNL     1     -33.770  21.207   0.909  0.00  0.00    +0.150 HD
BRANCH  10  13
ATOM     13  C   UNL     1     -33.856  19.123   1.154  0.00  0.00    +0.117 C 
BRANCH  13  15
ATOM     14  F   UNL     1     -28.441  18.836  -0.361  0.00  0.00    -0.204 F 
ATOM     15  C   UNL     1     -32.412  19.046   0.750  0.00  0.00    -0.002 C 
ATOM     16  C   UNL     1     -31.640  17.946   1.125  0.00  0.00    -0.000 C 
ATOM     17  C   UNL     1     -31.842  20.075  -0.000  0.00  0.00    -0.000 C 
ATOM     18  C   UNL     1     -30.299  17.876   0.750  0.00  0.00    +0.029 C 
ATOM     19  C   UNL     1     -30.500  20.004  -0.375  0.00  0.00    +0.029 C 
ATOM     20  C   UNL     1     -29.729  18.904  -0.000  0.00  0.00    +0.140 C 
ENDBRANCH  13  15
ENDBRANCH  10  13
ENDBRANCH   6  11
BRANCH   4  21
ATOM     21  C   UNL     1     -35.344  24.899   4.611  0.00  0.00    +0.117 C 
ATOM     22  C   UNL     1     -36.610  25.593   5.093  0.00  0.00    +0.028 C 
ATOM     23  C   UNL     1     -34.830  23.901   5.640  0.00  0.00    +0.028 C 
BRANCH  21  25
ATOM     24  O   UNL     1     -33.887  26.588   6.418  0.00  0.00    -0.265 OA
ATOM     25  N   UNL     1     -34.327  25.856   4.261  0.00  0.00    -0.293 N 
ATOM     26  C   UNL     1     -33.673  26.632   5.209  0.00  0.00    +0.302 C 
ATOM     27  H   UNL     1     -34.085  25.964   3.313  0.00  0.00    +0.150 HD
BRANCH  26  31
ATOM     28  O   UNL     1     -32.563  28.834   5.230  0.00  0.00    -0.416 OA
ATOM     29  N   UNL     1     -31.822  27.375   3.704  0.00  0.00    -0.102 NA
ATOM     30  N   UNL     1     -31.092  28.541   3.570  0.00  0.00    -0.111 NA
ATOM     31  C   UNL     1     -32.667  27.591   4.684  0.00  0.00    +0.304 A 
ATOM     32  C   UNL     1     -31.558  29.364   4.480  0.00  0.00    +0.227 A 
ATOM     33  C   UNL     1     -31.155  30.741   4.792  0.00  0.00    +0.097 C 
ENDBRANCH  26  31
ENDBRANCH  21  25
ENDBRANCH   4  21
BRANCH   8  34
ATOM     34  O   UNL     1     -36.339  22.218  -0.228  0.00  0.00    -0.370 OA
ATOM     35  H   UNL     1     -37.194  22.238  -0.612  0.00  0.00    +0.211 HD
ENDBRANCH   8  34
TORSDOF 7
ENDMDL
MODEL 6
REMARK VINA RESULT:      -7.1      4.075      6.806
REMARK  Name = 54671008
REMARK  7 active torsions:
REMARK  status: ('A' for Active; 'I' for Inactive)
REMARK    1  A    between atoms: C_4  and  C_21
REMARK    2  A    between atoms: C_6  and  C_11
REMARK    3  A    between atoms: C_8  and  O_34
REMARK    4  A    between atoms: N_10  and  C_13
REMARK    5  A    between atoms: C_13  and  C_15
REMARK    6  A    between atoms: C_21  and  N_25
REMARK    7  A    between atoms: C_26  and  C_31
REMARK                            x       y       z     vdW  Elec       q    Type
REMARK                         _______ _______ _______ _____ _____    ______ ____
ROOT
ATOM      1  O   UNL     1     -29.367  29.510   4.734  0.00  0.00    -0.271 OA
ATOM      2  N   UNL     1     -31.319  29.691   3.454  0.00  0.00    -0.232 N 
ATOM      3  N   UNL     1     -33.243  28.452   4.095  0.00  0.00    -0.386 NA
ATOM      4  C   UNL     1     -32.641  29.282   3.300  0.00  0.00    +0.182 C 
ATOM      5  C   UNL     1     -30.540  29.214   4.511  0.00  0.00    +0.265 C 
ATOM      6  C   UNL     1     -32.518  27.961   5.145  0.00  0.00    +0.199 C 
ATOM      7  C   UNL     1     -30.740  30.633   2.498  0.00  0.00    +0.122 C 
ATOM      8  C   UNL     1     -31.241  28.264   5.418  0.00  0.00    +0.245 C 
ENDROOT
BRANCH   6  11
ATOM      9  O   UNL     1     -32.870  26.879   7.200  0.00  0.00    -0.268 OA
ATOM     10  N   UNL     1     -34.267  26.373   5.404  0.00  0.00    -0.295 N 
ATOM     11  C   UNL     1     -33.222  27.024   6.033  0.00  0.00    +0.275 C 
ATOM     12  H   UNL     1     -34.447  26.581   4.458  0.00  0.00    +0.150 HD
BRANCH  10  13
ATOM     13  C   UNL     1     -35.110  25.403   6.066  0.00  0.00    +0.117 C 
BRANCH  13  15
ATOM     14  F   UNL     1     -35.374  20.549   3.226  0.00  0.00    -0.204 F 
ATOM     15  C   UNL     1     -35.180  24.109   5.309  0.00  0.00    -0.002 C 
ATOM     16  C   UNL     1     -35.241  22.899   6.000  0.00  0.00    -0.000 C 
ATOM     17  C   UNL     1     -35.184  24.116   3.914  0.00  0.00    -0.000 C 
ATOM     18  C   UNL     1     -35.306  21.697   5.297  0.00  0.00    +0.029 C 
ATOM     19  C   UNL     1     -35.249  22.914   3.210  0.00  0.00    +0.029 C 
ATOM     20  C   UNL     1     -35.310  21.704   3.902  0.00  0.00    +0.140 C 
ENDBRANCH  13  15
ENDBRANCH  10  13
ENDBRANCH   6  11
BRANCH   4  21
ATOM     21  C   UNL     1     -33.427  29.835   2.136  0.00  0.00    +0.117 C 
ATOM     22  C   UNL     1     -33.729  31.308   2.374  0.00  0.00    +0.028 C 
ATOM     23  C   UNL     1     -32.648  29.629   0.844  0.00  0.00    +0.028 C 
BRANCH  21  25
ATOM     24  O   UNL     1     -35.324  29.573  -0.003  0.00  0.00    -0.265 OA
ATOM     25  N   UNL     1     -34.633  29.049   2.148  0.00  0.00    -0.293 N 
ATOM     26  C   UNL     1     -35.493  28.982   1.061  0.00  0.00    +0.302 C 
ATOM     27  H   UNL     1     -34.855  28.537   2.960  0.00  0.00    +0.150 HD
BRANCH  26  31
ATOM     28  O   UNL     1     -36.667  27.054   2.053  0.00  0.00    -0.416 OA
ATOM     29  N   UNL     1     -37.880  28.343   0.684  0.00  0.00    -0.102 NA
ATOM     30  N   UNL     1     -38.692  27.324   1.141  0.00  0.00    -0.111 NA
ATOM     31  C   UNL     1     -36.708  28.147   1.242  0.00  0.00    +0.304 A 
ATOM     32  C   UNL     1     -37.944  26.596   1.936  0.00  0.00    +0.227 A 
ATOM     33  C   UNL     1     -38.285  25.387   2.697  0.00  0.00    +0.097 C 
ENDBRANCH  26  31
ENDBRANCH  21  25
ENDBRANCH   4  21
BRANCH   8  34
ATOM     34  O   UNL     1     -30.545  27.747   6.486  0.00  0.00    -0.370 OA
ATOM     35  H   UNL     1     -30.071  28.318   7.058  0.00  0.00    +0.211 HD
ENDBRANCH   8  34
TORSDOF 7
ENDMDL
MODEL 7
REMARK VINA RESULT:      -7.1      5.293      8.919
REMARK  Name = 54671008
REMARK  7 active torsions:
REMARK  status: ('A' for Active; 'I' for Inactive)
REMARK    1  A    between atoms: C_4  and  C_21
REMARK    2  A    between atoms: C_6  and  C_11
REMARK    3  A    between atoms: C_8  and  O_34
REMARK    4  A    between atoms: N_10  and  C_13
REMARK    5  A    between atoms: C_13  and  C_15
REMARK    6  A    between atoms: C_21  and  N_25
REMARK    7  A    between atoms: C_26  and  C_31
REMARK                            x       y       z     vdW  Elec       q    Type
REMARK                         _______ _______ _______ _____ _____    ______ ____
ROOT
ATOM      1  O   UNL     1     -38.646  21.677   2.040  0.00  0.00    -0.271 OA
ATOM      2  N   UNL     1     -37.273  23.152   3.231  0.00  0.00    -0.232 N 
ATOM      3  N   UNL     1     -37.999  25.391   3.570  0.00  0.00    -0.386 NA
ATOM      4  C   UNL     1     -37.123  24.446   3.724  0.00  0.00    +0.182 C 
ATOM      5  C   UNL     1     -38.418  22.787   2.517  0.00  0.00    +0.265 C 
ATOM      6  C   UNL     1     -39.136  25.076   2.879  0.00  0.00    +0.199 C 
ATOM      7  C   UNL     1     -36.221  22.165   3.464  0.00  0.00    +0.122 C 
ATOM      8  C   UNL     1     -39.417  23.878   2.348  0.00  0.00    +0.245 C 
ENDROOT
BRANCH   6  11
ATOM      9  O   UNL     1     -40.085  26.894   1.733  0.00  0.00    -0.268 OA
ATOM     10  N   UNL     1     -41.009  26.236   3.770  0.00  0.00    -0.295 N 
ATOM     11  C   UNL     1     -40.114  26.162   2.719  0.00  0.00    +0.275 C 
ATOM     12  H   UNL     1     -40.924  25.585   4.504  0.00  0.00    +0.150 HD
BRANCH  10  13
ATOM     13  C   UNL     1     -42.065  27.220   3.843  0.00  0.00    +0.117 C 
BRANCH  13  15
ATOM     14  F   UNL     1     -47.122  24.969   2.814  0.00  0.00    -0.204 F 
ATOM     15  C   UNL     1     -43.414  26.620   3.569  0.00  0.00    -0.002 C 
ATOM     16  C   UNL     1     -43.657  25.977   2.355  0.00  0.00    -0.000 C 
ATOM     17  C   UNL     1     -44.423  26.704   4.527  0.00  0.00    -0.000 C 
ATOM     18  C   UNL     1     -44.910  25.420   2.100  0.00  0.00    +0.029 C 
ATOM     19  C   UNL     1     -45.676  26.147   4.273  0.00  0.00    +0.029 C 
ATOM     20  C   UNL     1     -45.919  25.505   3.058  0.00  0.00    +0.140 C 
ENDBRANCH  13  15
ENDBRANCH  10  13
ENDBRANCH   6  11
BRANCH   4  21
ATOM     21  C   UNL     1     -35.861  24.775   4.486  0.00  0.00    +0.117 C 
ATOM     22  C   UNL     1     -36.054  26.069   5.264  0.00  0.00    +0.028 C 
ATOM     23  C   UNL     1     -35.501  23.619   5.409  0.00  0.00    +0.028 C 
BRANCH  21  25
ATOM     24  O   UNL     1     -33.238  25.908   4.765  0.00  0.00    -0.265 OA
ATOM     25  N   UNL     1     -34.879  24.936   3.445  0.00  0.00    -0.293 N 
ATOM     26  C   UNL     1     -33.631  25.497   3.676  0.00  0.00    +0.302 C 
ATOM     27  H   UNL     1     -35.102  24.634   2.534  0.00  0.00    +0.150 HD
BRANCH  26  31
ATOM     28  O   UNL     1     -33.235  25.382   1.244  0.00  0.00    -0.416 OA
ATOM     29  N   UNL     1     -31.469  25.935   2.501  0.00  0.00    -0.102 NA
ATOM     30  N   UNL     1     -31.064  25.920   1.180  0.00  0.00    -0.111 NA
ATOM     31  C   UNL     1     -32.742  25.616   2.491  0.00  0.00    +0.304 A 
ATOM     32  C   UNL     1     -32.127  25.593   0.482  0.00  0.00    +0.227 A 
ATOM     33  C   UNL     1     -32.280  25.427  -0.968  0.00  0.00    +0.097 C 
ENDBRANCH  26  31
ENDBRANCH  21  25
ENDBRANCH   4  21
BRANCH   8  34
ATOM     34  O   UNL     1     -40.575  23.601   1.657  0.00  0.00    -0.370 OA
ATOM     35  H   UNL     1     -40.534  23.161   0.831  0.00  0.00    +0.211 HD
ENDBRANCH   8  34
TORSDOF 7
ENDMDL
MODEL 8
REMARK VINA RESULT:      -7.1      4.305      9.201
REMARK  Name = 54671008
REMARK  7 active torsions:
REMARK  status: ('A' for Active; 'I' for Inactive)
REMARK    1  A    between atoms: C_4  and  C_21
REMARK    2  A    between atoms: C_6  and  C_11
REMARK    3  A    between atoms: C_8  and  O_34
REMARK    4  A    between atoms: N_10  and  C_13
REMARK    5  A    between atoms: C_13  and  C_15
REMARK    6  A    between atoms: C_21  and  N_25
REMARK    7  A    between atoms: C_26  and  C_31
REMARK                            x       y       z     vdW  Elec       q    Type
REMARK                         _______ _______ _______ _____ _____    ______ ____
ROOT
ATOM      1  O   UNL     1     -40.872  22.358   0.711  0.00  0.00    -0.271 OA
ATOM      2  N   UNL     1     -38.817  21.250   0.534  0.00  0.00    -0.232 N 
ATOM      3  N   UNL     1     -37.052  21.840   2.014  0.00  0.00    -0.386 NA
ATOM      4  C   UNL     1     -37.522  21.131   1.034  0.00  0.00    +0.182 C 
ATOM      5  C   UNL     1     -39.713  22.173   1.080  0.00  0.00    +0.265 C 
ATOM      6  C   UNL     1     -37.897  22.755   2.580  0.00  0.00    +0.199 C 
ATOM      7  C   UNL     1     -39.242  20.399  -0.575  0.00  0.00    +0.122 C 
ATOM      8  C   UNL     1     -39.164  22.979   2.205  0.00  0.00    +0.245 C 
ENDROOT
BRANCH   6  11
ATOM      9  O   UNL     1     -37.843  24.620   4.007  0.00  0.00    -0.268 OA
ATOM     10  N   UNL     1     -36.249  22.941   4.282  0.00  0.00    -0.295 N 
ATOM     11  C   UNL     1     -37.342  23.544   3.689  0.00  0.00    +0.275 C 
ATOM     12  H   UNL     1     -35.946  22.073   3.930  0.00  0.00    +0.150 HD
BRANCH  10  13
ATOM     13  C   UNL     1     -35.530  23.521   5.393  0.00  0.00    +0.117 C 
BRANCH  13  15
ATOM     14  F   UNL     1     -32.350  27.885   3.796  0.00  0.00    -0.204 F 
ATOM     15  C   UNL     1     -34.681  24.685   4.967  0.00  0.00    -0.002 C 
ATOM     16  C   UNL     1     -34.402  25.711   5.870  0.00  0.00    -0.000 C 
ATOM     17  C   UNL     1     -34.174  24.740   3.669  0.00  0.00    -0.000 C 
ATOM     18  C   UNL     1     -33.614  26.792   5.474  0.00  0.00    +0.029 C 
ATOM     19  C   UNL     1     -33.386  25.821   3.273  0.00  0.00    +0.029 C 
ATOM     20  C   UNL     1     -33.107  26.847   4.176  0.00  0.00    +0.140 C 
ENDBRANCH  13  15
ENDBRANCH  10  13
ENDBRANCH   6  11
BRANCH   4  21
ATOM     21  C   UNL     1     -36.604  20.115   0.399  0.00  0.00    +0.117 C 
ATOM     22  C   UNL     1     -36.159  20.609  -0.971  0.00  0.00    +0.028 C 
ATOM     23  C   UNL     1     -35.413  19.855   1.311  0.00  0.00    +0.028 C 
BRANCH  21  25
ATOM     24  O   UNL     1     -35.819  17.545  -0.612  0.00  0.00    -0.265 OA
ATOM     25  N   UNL     1     -37.437  18.945   0.284  0.00  0.00    -0.293 N 
ATOM     26  C   UNL     1     -36.966  17.740  -0.219  0.00  0.00    +0.302 C 
ATOM     27  H   UNL     1     -38.376  19.003   0.575  0.00  0.00    +0.150 HD
BRANCH  26  31
ATOM     28  O   UNL     1     -39.200  16.871  -0.802  0.00  0.00    -0.416 OA
ATOM     29  N   UNL     1     -37.773  15.394   0.086  0.00  0.00    -0.102 NA
ATOM     30  N   UNL     1     -38.960  14.737  -0.175  0.00  0.00    -0.111 NA
ATOM     31  C   UNL     1     -37.958  16.636  -0.296  0.00  0.00    +0.304 A 
ATOM     32  C   UNL     1     -39.763  15.636  -0.692  0.00  0.00    +0.227 A 
ATOM     33  C   UNL     1     -41.150  15.499  -1.156  0.00  0.00    +0.097 C 
ENDBRANCH  26  31
ENDBRANCH  21  25
ENDBRANCH   4  21
BRANCH   8  34
ATOM     34  O   UNL     1     -39.983  23.912   2.800  0.00  0.00    -0.370 OA
ATOM     35  H   UNL     1     -40.424  24.551   2.276  0.00  0.00    +0.211 HD
ENDBRANCH   8  34
TORSDOF 7
ENDMDL
MODEL 9
REMARK VINA RESULT:      -7.0      5.485     11.146
REMARK  Name = 54671008
REMARK  7 active torsions:
REMARK  status: ('A' for Active; 'I' for Inactive)
REMARK    1  A    between atoms: C_4  and  C_21
REMARK    2  A    between atoms: C_6  and  C_11
REMARK    3  A    between atoms: C_8  and  O_34
REMARK    4  A    between atoms: N_10  and  C_13
REMARK    5  A    between atoms: C_13  and  C_15
REMARK    6  A    between atoms: C_21  and  N_25
REMARK    7  A    between atoms: C_26  and  C_31
REMARK                            x       y       z     vdW  Elec       q    Type
REMARK                         _______ _______ _______ _____ _____    ______ ____
ROOT
ATOM      1  O   UNL     1     -30.484  33.101   3.085  0.00  0.00    -0.271 OA
ATOM      2  N   UNL     1     -31.007  31.113   4.206  0.00  0.00    -0.232 N 
ATOM      3  N   UNL     1     -33.214  30.242   4.050  0.00  0.00    -0.386 NA
ATOM      4  C   UNL     1     -31.996  30.175   4.493  0.00  0.00    +0.182 C 
ATOM      5  C   UNL     1     -31.282  32.218   3.396  0.00  0.00    +0.265 C 
ATOM      6  C   UNL     1     -33.526  31.307   3.250  0.00  0.00    +0.199 C 
ATOM      7  C   UNL     1     -29.665  30.938   4.759  0.00  0.00    +0.122 C 
ATOM      8  C   UNL     1     -32.681  32.284   2.891  0.00  0.00    +0.245 C 
ENDROOT
BRANCH   6  11
ATOM      9  O   UNL     1     -35.852  31.118   3.509  0.00  0.00    -0.268 OA
ATOM     10  N   UNL     1     -34.992  31.697   1.421  0.00  0.00    -0.295 N 
ATOM     11  C   UNL     1     -34.910  31.360   2.759  0.00  0.00    +0.275 C 
ATOM     12  H   UNL     1     -34.156  31.867   0.930  0.00  0.00    +0.150 HD
BRANCH  10  13
ATOM     13  C   UNL     1     -36.244  31.812   0.709  0.00  0.00    +0.117 C 
BRANCH  13  15
ATOM     14  F   UNL     1     -39.065  36.468   2.147  0.00  0.00    -0.204 F 
ATOM     15  C   UNL     1     -36.997  33.054   1.092  0.00  0.00    -0.002 C 
ATOM     16  C   UNL     1     -36.419  34.308   0.896  0.00  0.00    -0.000 C 
ATOM     17  C   UNL     1     -38.273  32.954   1.645  0.00  0.00    -0.000 C 
ATOM     18  C   UNL     1     -37.117  35.461   1.252  0.00  0.00    +0.029 C 
ATOM     19  C   UNL     1     -38.972  34.106   2.002  0.00  0.00    +0.029 C 
ATOM     20  C   UNL     1     -38.394  35.361   1.805  0.00  0.00    +0.140 C 
ENDBRANCH  13  15
ENDBRANCH  10  13
ENDBRANCH   6  11
BRANCH   4  21
ATOM     21  C   UNL     1     -31.633  29.005   5.375  0.00  0.00    +0.117 C 
ATOM     22  C   UNL     1     -30.289  28.434   4.944  0.00  0.00    +0.028 C 
ATOM     23  C   UNL     1     -31.609  29.446   6.832  0.00  0.00    +0.028 C 
BRANCH  21  25
ATOM     24  O   UNL     1     -32.346  26.761   7.018  0.00  0.00    -0.265 OA
ATOM     25  N   UNL     1     -32.698  28.067   5.133  0.00  0.00    -0.293 N 
ATOM     26  C   UNL     1     -32.970  27.008   5.989  0.00  0.00    +0.302 C 
ATOM     27  H   UNL     1     -33.257  28.182   4.330  0.00  0.00    +0.150 HD
BRANCH  26  31
ATOM     28  O   UNL     1     -33.826  24.843   5.174  0.00  0.00    -0.416 OA
ATOM     29  N   UNL     1     -35.363  26.419   5.574  0.00  0.00    -0.102 NA
ATOM     30  N   UNL     1     -36.018  25.286   5.129  0.00  0.00    -0.111 NA
ATOM     31  C   UNL     1     -34.086  26.114   5.585  0.00  0.00    +0.304 A 
ATOM     32  C   UNL     1     -35.082  24.393   4.908  0.00  0.00    +0.227 A 
ATOM     33  C   UNL     1     -35.202  23.011   4.426  0.00  0.00    +0.097 C 
ENDBRANCH  26  31
ENDBRANCH  21  25
ENDBRANCH   4  21
BRANCH   8  34
ATOM     34  O   UNL     1     -33.035  33.341   2.085  0.00  0.00    -0.370 OA
ATOM     35  H   UNL     1     -33.473  34.084   2.451  0.00  0.00    +0.211 HD
ENDBRANCH   8  34
TORSDOF 7
ENDMDL
