MODEL 1
REMARK VINA RESULT:      -6.5      0.000      0.000
REMARK  Name = 51693667
REMARK  2 active torsions:
REMARK  status: ('A' for Active; 'I' for Inactive)
REMARK    1  A    between atoms: C_20  and  O_23
REMARK    2  A    between atoms: C_21  and  O_25
REMARK                            x       y       z     vdW  Elec       q    Type
REMARK                         _______ _______ _______ _____ _____    ______ ____
ROOT
ATOM      1  O   UNL     1     -36.534  23.094   3.482  0.00  0.00    -0.449 OA
ATOM      2  O   UNL     1     -34.262  28.036   4.160  0.00  0.00    -0.296 OA
ATOM      3  O   UNL     1     -37.959  26.268   2.773  0.00  0.00    -0.296 OA
ATOM      4  O   UNL     1     -35.473  22.777   1.441  0.00  0.00    -0.245 OA
ATOM      5  C   UNL     1     -35.411  23.692   5.540  0.00  0.00    +0.044 C 
ATOM      6  C   UNL     1     -35.429  25.208   5.312  0.00  0.00    +0.011 C 
ATOM      7  C   UNL     1     -35.320  22.881   4.237  0.00  0.00    +0.169 C 
ATOM      8  C   UNL     1     -34.062  25.774   4.926  0.00  0.00    +0.065 C 
ATOM      9  C   UNL     1     -34.230  26.358   2.421  0.00  0.00    +0.065 C 
ATOM     10  C   UNL     1     -34.861  27.335   1.433  0.00  0.00    +0.016 C 
ATOM     11  C   UNL     1     -34.199  26.844   3.859  0.00  0.00    +0.151 C 
ATOM     12  C   UNL     1     -36.338  27.637   1.682  0.00  0.00    +0.065 C 
ATOM     13  C   UNL     1     -37.249  25.447   0.617  0.00  0.00    +0.091 C 
ATOM     14  C   UNL     1     -35.202  21.391   4.540  0.00  0.00    +0.047 C 
ATOM     15  C   UNL     1     -38.174  24.275   0.841  0.00  0.00    -0.003 C 
ATOM     16  C   UNL     1     -37.234  26.416   1.788  0.00  0.00    +0.155 C 
ATOM     17  C   UNL     1     -37.809  23.141   1.588  0.00  0.00    +0.106 C 
ATOM     18  C   UNL     1     -36.454  22.983   2.133  0.00  0.00    +0.344 C 
ATOM     19  C   UNL     1     -39.485  24.340   0.341  0.00  0.00    +0.033 C 
ATOM     20  C   UNL     1     -38.716  22.099   1.815  0.00  0.00    +0.143 C 
ATOM     21  C   UNL     1     -40.393  23.303   0.567  0.00  0.00    +0.136 C 
ATOM     22  C   UNL     1     -40.009  22.184   1.303  0.00  0.00    +0.073 C 
ENDROOT
BRANCH  20  23
ATOM     23  O   UNL     1     -38.375  20.999   2.541  0.00  0.00    -0.505 OA
ATOM     24  H   UNL     1     -37.472  20.790   2.680  0.00  0.00    +0.292 HD
ENDBRANCH  20  23
BRANCH  21  25
ATOM     25  O   UNL     1     -41.655  23.384   0.063  0.00  0.00    -0.505 OA
ATOM     26  H   UNL     1     -42.171  24.153   0.212  0.00  0.00    +0.292 HD
ENDBRANCH  21  25
TORSDOF 2
ENDMDL
MODEL 2
REMARK VINA RESULT:      -6.4      2.143      7.291
REMARK  Name = 51693667
REMARK  2 active torsions:
REMARK  status: ('A' for Active; 'I' for Inactive)
REMARK    1  A    between atoms: C_20  and  O_23
REMARK    2  A    between atoms: C_21  and  O_25
REMARK                            x       y       z     vdW  Elec       q    Type
REMARK                         _______ _______ _______ _____ _____    ______ ____
ROOT
ATOM      1  O   UNL     1     -34.580  27.678   2.424  0.00  0.00    -0.449 OA
ATOM      2  O   UNL     1     -38.255  23.704   3.287  0.00  0.00    -0.296 OA
ATOM      3  O   UNL     1     -35.807  26.477   5.531  0.00  0.00    -0.296 OA
ATOM      4  O   UNL     1     -32.844  26.154   2.175  0.00  0.00    -0.245 OA
ATOM      5  C   UNL     1     -36.664  27.603   1.197  0.00  0.00    +0.044 C 
ATOM      6  C   UNL     1     -37.390  26.643   2.149  0.00  0.00    +0.011 C 
ATOM      7  C   UNL     1     -35.148  27.363   1.131  0.00  0.00    +0.169 C 
ATOM      8  C   UNL     1     -37.526  25.228   1.588  0.00  0.00    +0.065 C 
ATOM      9  C   UNL     1     -35.867  23.782   2.929  0.00  0.00    +0.065 C 
ATOM     10  C   UNL     1     -35.616  23.163   4.302  0.00  0.00    +0.016 C 
ATOM     11  C   UNL     1     -37.307  24.190   2.672  0.00  0.00    +0.151 C 
ATOM     12  C   UNL     1     -35.882  24.093   5.484  0.00  0.00    +0.065 C 
ATOM     13  C   UNL     1     -33.651  25.416   5.300  0.00  0.00    +0.091 C 
ATOM     14  C   UNL     1     -34.505  28.278   0.094  0.00  0.00    +0.047 C 
ATOM     15  C   UNL     1     -33.057  26.803   5.247  0.00  0.00    -0.003 C 
ATOM     16  C   UNL     1     -35.166  25.430   5.423  0.00  0.00    +0.155 C 
ATOM     17  C   UNL     1     -33.001  27.569   4.070  0.00  0.00    +0.106 C 
ATOM     18  C   UNL     1     -33.444  27.027   2.778  0.00  0.00    +0.344 C 
ATOM     19  C   UNL     1     -32.597  27.390   6.437  0.00  0.00    +0.033 C 
ATOM     20  C   UNL     1     -32.488  28.871   4.075  0.00  0.00    +0.143 C 
ATOM     21  C   UNL     1     -32.086  28.690   6.447  0.00  0.00    +0.136 C 
ATOM     22  C   UNL     1     -32.031  29.429   5.267  0.00  0.00    +0.073 C 
ENDROOT
BRANCH  20  23
ATOM     23  O   UNL     1     -32.434  29.624   2.942  0.00  0.00    -0.505 OA
ATOM     24  H   UNL     1     -31.701  30.187   2.787  0.00  0.00    +0.292 HD
ENDBRANCH  20  23
BRANCH  21  25
ATOM     25  O   UNL     1     -31.636  29.233   7.610  0.00  0.00    -0.505 OA
ATOM     26  H   UNL     1     -30.799  28.984   7.953  0.00  0.00    +0.292 HD
ENDBRANCH  21  25
TORSDOF 2
ENDMDL
MODEL 3
REMARK VINA RESULT:      -6.2      3.248      5.684
REMARK  Name = 51693667
REMARK  2 active torsions:
REMARK  status: ('A' for Active; 'I' for Inactive)
REMARK    1  A    between atoms: C_20  and  O_23
REMARK    2  A    between atoms: C_21  and  O_25
REMARK                            x       y       z     vdW  Elec       q    Type
REMARK                         _______ _______ _______ _____ _____    ______ ____
ROOT
ATOM      1  O   UNL     1     -33.082  28.380   4.674  0.00  0.00    -0.449 OA
ATOM      2  O   UNL     1     -32.722  31.980   0.557  0.00  0.00    -0.296 OA
ATOM      3  O   UNL     1     -35.596  29.279   2.335  0.00  0.00    -0.296 OA
ATOM      4  O   UNL     1     -32.090  26.696   3.420  0.00  0.00    -0.245 OA
ATOM      5  C   UNL     1     -32.141  30.584   5.008  0.00  0.00    +0.044 C 
ATOM      6  C   UNL     1     -32.720  31.213   3.734  0.00  0.00    +0.011 C 
ATOM      7  C   UNL     1     -31.833  29.086   4.861  0.00  0.00    +0.169 C 
ATOM      8  C   UNL     1     -31.675  31.422   2.639  0.00  0.00    +0.065 C 
ATOM      9  C   UNL     1     -32.179  29.643   0.844  0.00  0.00    +0.065 C 
ATOM     10  C   UNL     1     -33.174  29.253  -0.246  0.00  0.00    +0.016 C 
ATOM     11  C   UNL     1     -32.248  31.098   1.272  0.00  0.00    +0.151 C 
ATOM     12  C   UNL     1     -34.644  29.382   0.150  0.00  0.00    +0.065 C 
ATOM     13  C   UNL     1     -34.755  27.171   1.514  0.00  0.00    +0.091 C 
ATOM     14  C   UNL     1     -31.167  28.549   6.124  0.00  0.00    +0.047 C 
ATOM     15  C   UNL     1     -35.179  26.572   2.834  0.00  0.00    -0.003 C 
ATOM     16  C   UNL     1     -35.029  28.663   1.431  0.00  0.00    +0.155 C 
ATOM     17  C   UNL     1     -34.388  26.635   3.994  0.00  0.00    +0.106 C 
ATOM     18  C   UNL     1     -33.040  27.220   3.975  0.00  0.00    +0.344 C 
ATOM     19  C   UNL     1     -36.449  25.982   2.934  0.00  0.00    +0.033 C 
ATOM     20  C   UNL     1     -34.841  26.112   5.211  0.00  0.00    +0.143 C 
ATOM     21  C   UNL     1     -36.906  25.460   4.147  0.00  0.00    +0.136 C 
ATOM     22  C   UNL     1     -36.103  25.525   5.283  0.00  0.00    +0.073 C 
ENDROOT
BRANCH  20  23
ATOM     23  O   UNL     1     -34.085  26.172   6.342  0.00  0.00    -0.505 OA
ATOM     24  H   UNL     1     -34.469  26.455   7.148  0.00  0.00    +0.292 HD
ENDBRANCH  20  23
BRANCH  21  25
ATOM     25  O   UNL     1     -38.136  24.883   4.217  0.00  0.00    -0.505 OA
ATOM     26  H   UNL     1     -38.898  25.416   4.346  0.00  0.00    +0.292 HD
ENDBRANCH  21  25
TORSDOF 2
ENDMDL
MODEL 4
REMARK VINA RESULT:      -6.1      1.729      5.644
REMARK  Name = 51693667
REMARK  2 active torsions:
REMARK  status: ('A' for Active; 'I' for Inactive)
REMARK    1  A    between atoms: C_20  and  O_23
REMARK    2  A    between atoms: C_21  and  O_25
REMARK                            x       y       z     vdW  Elec       q    Type
REMARK                         _______ _______ _______ _____ _____    ______ ____
ROOT
ATOM      1  O   UNL     1     -35.211  23.648   4.090  0.00  0.00    -0.449 OA
ATOM      2  O   UNL     1     -37.940  21.745  -0.267  0.00  0.00    -0.296 OA
ATOM      3  O   UNL     1     -35.226  24.946   0.786  0.00  0.00    -0.296 OA
ATOM      4  O   UNL     1     -37.070  24.798   4.875  0.00  0.00    -0.245 OA
ATOM      5  C   UNL     1     -35.188  21.297   3.518  0.00  0.00    +0.044 C 
ATOM      6  C   UNL     1     -35.675  21.466   2.074  0.00  0.00    +0.011 C 
ATOM      7  C   UNL     1     -35.745  22.360   4.477  0.00  0.00    +0.169 C 
ATOM      8  C   UNL     1     -37.129  21.041   1.876  0.00  0.00    +0.065 C 
ATOM      9  C   UNL     1     -38.461  23.226   1.571  0.00  0.00    +0.065 C 
ATOM     10  C   UNL     1     -38.715  24.377   0.601  0.00  0.00    +0.016 C 
ATOM     11  C   UNL     1     -37.849  21.989   0.936  0.00  0.00    +0.151 C 
ATOM     12  C   UNL     1     -37.461  24.960  -0.049  0.00  0.00    +0.065 C 
ATOM     13  C   UNL     1     -36.733  26.394   1.994  0.00  0.00    +0.091 C 
ATOM     14  C   UNL     1     -35.307  22.074   5.909  0.00  0.00    +0.047 C 
ATOM     15  C   UNL     1     -35.570  26.730   2.896  0.00  0.00    -0.003 C 
ATOM     16  C   UNL     1     -36.371  25.381   0.921  0.00  0.00    +0.155 C 
ATOM     17  C   UNL     1     -35.187  25.929   3.985  0.00  0.00    +0.106 C 
ATOM     18  C   UNL     1     -35.960  24.742   4.375  0.00  0.00    +0.344 C 
ATOM     19  C   UNL     1     -34.787  27.857   2.600  0.00  0.00    +0.033 C 
ATOM     20  C   UNL     1     -34.070  26.250   4.765  0.00  0.00    +0.143 C 
ATOM     21  C   UNL     1     -33.670  28.180   3.375  0.00  0.00    +0.136 C 
ATOM     22  C   UNL     1     -33.312  27.377   4.456  0.00  0.00    +0.073 C 
ENDROOT
BRANCH  20  23
ATOM     23  O   UNL     1     -33.688  25.478   5.820  0.00  0.00    -0.505 OA
ATOM     24  H   UNL     1     -32.925  25.705   6.315  0.00  0.00    +0.292 HD
ENDBRANCH  20  23
BRANCH  21  25
ATOM     25  O   UNL     1     -32.932  29.283   3.075  0.00  0.00    -0.505 OA
ATOM     26  H   UNL     1     -33.271  30.139   3.256  0.00  0.00    +0.292 HD
ENDBRANCH  21  25
TORSDOF 2
ENDMDL
MODEL 5
REMARK VINA RESULT:      -6.0      1.622      4.166
REMARK  Name = 51693667
REMARK  2 active torsions:
REMARK  status: ('A' for Active; 'I' for Inactive)
REMARK    1  A    between atoms: C_20  and  O_23
REMARK    2  A    between atoms: C_21  and  O_25
REMARK                            x       y       z     vdW  Elec       q    Type
REMARK                         _______ _______ _______ _____ _____    ______ ____
ROOT
ATOM      1  O   UNL     1     -37.615  24.959   1.457  0.00  0.00    -0.449 OA
ATOM      2  O   UNL     1     -33.662  27.464   4.310  0.00  0.00    -0.296 OA
ATOM      3  O   UNL     1     -34.484  23.632   2.477  0.00  0.00    -0.296 OA
ATOM      4  O   UNL     1     -38.807  24.434   3.379  0.00  0.00    -0.245 OA
ATOM      5  C   UNL     1     -36.854  27.180   0.871  0.00  0.00    +0.044 C 
ATOM      6  C   UNL     1     -35.537  27.123   1.654  0.00  0.00    +0.011 C 
ATOM      7  C   UNL     1     -37.981  26.357   1.515  0.00  0.00    +0.169 C 
ATOM      8  C   UNL     1     -35.563  27.955   2.936  0.00  0.00    +0.065 C 
ATOM      9  C   UNL     1     -35.679  26.256   4.870  0.00  0.00    +0.065 C 
ATOM     10  C   UNL     1     -34.868  25.205   5.625  0.00  0.00    +0.016 C 
ATOM     11  C   UNL     1     -34.846  27.238   4.064  0.00  0.00    +0.151 C 
ATOM     12  C   UNL     1     -34.058  24.259   4.740  0.00  0.00    +0.065 C 
ATOM     13  C   UNL     1     -36.054  22.731   4.074  0.00  0.00    +0.091 C 
ATOM     14  C   UNL     1     -39.285  26.539   0.746  0.00  0.00    +0.047 C 
ATOM     15  C   UNL     1     -36.762  22.090   2.905  0.00  0.00    -0.003 C 
ATOM     16  C   UNL     1     -34.854  23.561   3.651  0.00  0.00    +0.155 C 
ATOM     17  C   UNL     1     -37.697  22.771   2.107  0.00  0.00    +0.106 C 
ATOM     18  C   UNL     1     -38.117  24.144   2.417  0.00  0.00    +0.344 C 
ATOM     19  C   UNL     1     -36.429  20.773   2.549  0.00  0.00    +0.033 C 
ATOM     20  C   UNL     1     -38.293  22.155   1.000  0.00  0.00    +0.143 C 
ATOM     21  C   UNL     1     -37.019  20.155   1.444  0.00  0.00    +0.136 C 
ATOM     22  C   UNL     1     -37.950  20.845   0.671  0.00  0.00    +0.073 C 
ENDROOT
BRANCH  20  23
ATOM     23  O   UNL     1     -39.196  22.807   0.217  0.00  0.00    -0.505 OA
ATOM     24  H   UNL     1     -38.903  23.315  -0.514  0.00  0.00    +0.292 HD
ENDBRANCH  20  23
BRANCH  21  25
ATOM     25  O   UNL     1     -36.687  18.874   1.125  0.00  0.00    -0.505 OA
ATOM     26  H   UNL     1     -37.229  18.164   1.411  0.00  0.00    +0.292 HD
ENDBRANCH  21  25
TORSDOF 2
ENDMDL
MODEL 6
REMARK VINA RESULT:      -5.9      9.532     11.374
REMARK  Name = 51693667
REMARK  2 active torsions:
REMARK  status: ('A' for Active; 'I' for Inactive)
REMARK    1  A    between atoms: C_20  and  O_23
REMARK    2  A    between atoms: C_21  and  O_25
REMARK                            x       y       z     vdW  Elec       q    Type
REMARK                         _______ _______ _______ _____ _____    ______ ____
ROOT
ATOM      1  O   UNL     1     -44.692  28.693   4.217  0.00  0.00    -0.449 OA
ATOM      2  O   UNL     1     -47.260  27.937   9.000  0.00  0.00    -0.296 OA
ATOM      3  O   UNL     1     -47.141  30.770   5.732  0.00  0.00    -0.296 OA
ATOM      4  O   UNL     1     -42.830  29.619   5.250  0.00  0.00    -0.245 OA
ATOM      5  C   UNL     1     -45.670  26.558   4.797  0.00  0.00    +0.044 C 
ATOM      6  C   UNL     1     -46.572  27.081   5.921  0.00  0.00    +0.011 C 
ATOM      7  C   UNL     1     -44.363  27.352   4.645  0.00  0.00    +0.169 C 
ATOM      8  C   UNL     1     -46.063  26.722   7.317  0.00  0.00    +0.065 C 
ATOM      9  C   UNL     1     -45.159  28.918   8.317  0.00  0.00    +0.065 C 
ATOM     10  C   UNL     1     -45.586  30.275   8.873  0.00  0.00    +0.016 C 
ATOM     11  C   UNL     1     -46.263  27.875   8.281  0.00  0.00    +0.151 C 
ATOM     12  C   UNL     1     -46.657  30.997   8.057  0.00  0.00    +0.065 C 
ATOM     13  C   UNL     1     -45.050  31.878   6.212  0.00  0.00    +0.091 C 
ATOM     14  C   UNL     1     -43.470  26.718   3.584  0.00  0.00    +0.047 C 
ATOM     15  C   UNL     1     -44.845  31.976   4.720  0.00  0.00    -0.003 C 
ATOM     16  C   UNL     1     -46.338  31.161   6.582  0.00  0.00    +0.155 C 
ATOM     17  C   UNL     1     -44.314  30.929   3.948  0.00  0.00    +0.106 C 
ATOM     18  C   UNL     1     -43.836  29.685   4.565  0.00  0.00    +0.344 C 
ATOM     19  C   UNL     1     -45.263  33.139   4.053  0.00  0.00    +0.033 C 
ATOM     20  C   UNL     1     -44.187  31.044   2.558  0.00  0.00    +0.143 C 
ATOM     21  C   UNL     1     -45.140  33.257   2.666  0.00  0.00    +0.136 C 
ATOM     22  C   UNL     1     -44.603  32.210   1.920  0.00  0.00    +0.073 C 
ENDROOT
BRANCH  20  23
ATOM     23  O   UNL     1     -43.678  30.033   1.800  0.00  0.00    -0.505 OA
ATOM     24  H   UNL     1     -42.861  30.146   1.356  0.00  0.00    +0.292 HD
ENDBRANCH  20  23
BRANCH  21  25
ATOM     25  O   UNL     1     -45.543  34.398   2.044  0.00  0.00    -0.505 OA
ATOM     26  H   UNL     1     -45.080  34.710   1.291  0.00  0.00    +0.292 HD
ENDBRANCH  21  25
TORSDOF 2
ENDMDL
MODEL 7
REMARK VINA RESULT:      -5.9      1.677      2.074
REMARK  Name = 51693667
REMARK  2 active torsions:
REMARK  status: ('A' for Active; 'I' for Inactive)
REMARK    1  A    between atoms: C_20  and  O_23
REMARK    2  A    between atoms: C_21  and  O_25
REMARK                            x       y       z     vdW  Elec       q    Type
REMARK                         _______ _______ _______ _____ _____    ______ ____
ROOT
ATOM      1  O   UNL     1     -36.638  21.545   2.170  0.00  0.00    -0.449 OA
ATOM      2  O   UNL     1     -35.665  25.990   5.226  0.00  0.00    -0.296 OA
ATOM      3  O   UNL     1     -38.953  24.023   3.217  0.00  0.00    -0.296 OA
ATOM      4  O   UNL     1     -35.921  22.601   0.230  0.00  0.00    -0.245 OA
ATOM      5  C   UNL     1     -35.355  21.409   4.218  0.00  0.00    +0.044 C 
ATOM      6  C   UNL     1     -35.814  22.752   4.797  0.00  0.00    +0.011 C 
ATOM      7  C   UNL     1     -35.293  21.398   2.682  0.00  0.00    +0.169 C 
ATOM      8  C   UNL     1     -34.740  23.837   4.724  0.00  0.00    +0.065 C 
ATOM      9  C   UNL     1     -35.510  25.458   2.874  0.00  0.00    +0.065 C 
ATOM     10  C   UNL     1     -36.546  26.528   2.540  0.00  0.00    +0.016 C 
ATOM     11  C   UNL     1     -35.346  25.178   4.358  0.00  0.00    +0.151 C 
ATOM     12  C   UNL     1     -37.979  26.183   2.942  0.00  0.00    +0.065 C 
ATOM     13  C   UNL     1     -38.458  24.609   0.929  0.00  0.00    +0.091 C 
ATOM     14  C   UNL     1     -34.733  20.072   2.177  0.00  0.00    +0.047 C 
ATOM     15  C   UNL     1     -38.984  23.247   0.543  0.00  0.00    -0.003 C 
ATOM     16  C   UNL     1     -38.486  24.847   2.429  0.00  0.00    +0.155 C 
ATOM     17  C   UNL     1     -38.203  22.080   0.597  0.00  0.00    +0.106 C 
ATOM     18  C   UNL     1     -36.779  22.124   0.953  0.00  0.00    +0.344 C 
ATOM     19  C   UNL     1     -40.334  23.120   0.178  0.00  0.00    +0.033 C 
ATOM     20  C   UNL     1     -38.746  20.829   0.280  0.00  0.00    +0.143 C 
ATOM     21  C   UNL     1     -40.880  21.873  -0.138  0.00  0.00    +0.136 C 
ATOM     22  C   UNL     1     -40.086  20.730  -0.087  0.00  0.00    +0.073 C 
ENDROOT
BRANCH  20  23
ATOM     23  O   UNL     1     -37.999  19.691   0.333  0.00  0.00    -0.505 OA
ATOM     24  H   UNL     1     -37.376  19.571   1.023  0.00  0.00    +0.292 HD
ENDBRANCH  20  23
BRANCH  21  25
ATOM     25  O   UNL     1     -42.188  21.777  -0.499  0.00  0.00    -0.505 OA
ATOM     26  H   UNL     1     -42.432  21.261  -1.243  0.00  0.00    +0.292 HD
ENDBRANCH  21  25
TORSDOF 2
ENDMDL
MODEL 8
REMARK VINA RESULT:      -5.8      1.772      6.479
REMARK  Name = 51693667
REMARK  2 active torsions:
REMARK  status: ('A' for Active; 'I' for Inactive)
REMARK    1  A    between atoms: C_20  and  O_23
REMARK    2  A    between atoms: C_21  and  O_25
REMARK                            x       y       z     vdW  Elec       q    Type
REMARK                         _______ _______ _______ _____ _____    ______ ____
ROOT
ATOM      1  O   UNL     1     -38.103  25.999   1.473  0.00  0.00    -0.449 OA
ATOM      2  O   UNL     1     -40.323  21.000   1.126  0.00  0.00    -0.296 OA
ATOM      3  O   UNL     1     -37.528  23.204   3.584  0.00  0.00    -0.296 OA
ATOM      4  O   UNL     1     -36.495  25.504  -0.128  0.00  0.00    -0.245 OA
ATOM      5  C   UNL     1     -40.484  25.698   1.172  0.00  0.00    +0.044 C 
ATOM      6  C   UNL     1     -40.528  24.227   1.604  0.00  0.00    +0.011 C 
ATOM      7  C   UNL     1     -39.163  26.094   0.494  0.00  0.00    +0.169 C 
ATOM      8  C   UNL     1     -40.711  23.261   0.434  0.00  0.00    +0.065 C 
ATOM      9  C   UNL     1     -38.428  22.108   0.117  0.00  0.00    +0.065 C 
ATOM     10  C   UNL     1     -37.472  21.095   0.742  0.00  0.00    +0.016 C 
ATOM     11  C   UNL     1     -39.859  22.019   0.616  0.00  0.00    +0.151 C 
ATOM     12  C   UNL     1     -37.276  21.242   2.250  0.00  0.00    +0.065 C 
ATOM     13  C   UNL     1     -35.612  23.236   2.116  0.00  0.00    +0.091 C 
ATOM     14  C   UNL     1     -39.226  27.535  -0.002  0.00  0.00    +0.047 C 
ATOM     15  C   UNL     1     -35.318  24.617   2.652  0.00  0.00    -0.003 C 
ATOM     16  C   UNL     1     -36.873  22.632   2.712  0.00  0.00    +0.155 C 
ATOM     17  C   UNL     1     -35.936  25.779   2.158  0.00  0.00    +0.106 C 
ATOM     18  C   UNL     1     -36.855  25.733   1.013  0.00  0.00    +0.344 C 
ATOM     19  C   UNL     1     -34.438  24.750   3.738  0.00  0.00    +0.033 C 
ATOM     20  C   UNL     1     -35.672  27.035   2.718  0.00  0.00    +0.143 C 
ATOM     21  C   UNL     1     -34.174  26.001   4.301  0.00  0.00    +0.136 C 
ATOM     22  C   UNL     1     -34.790  27.142   3.791  0.00  0.00    +0.073 C 
ENDROOT
BRANCH  20  23
ATOM     23  O   UNL     1     -36.269  28.166   2.250  0.00  0.00    -0.505 OA
ATOM     24  H   UNL     1     -36.932  28.591   2.758  0.00  0.00    +0.292 HD
ENDBRANCH  20  23
BRANCH  21  25
ATOM     25  O   UNL     1     -33.310  26.106   5.347  0.00  0.00    -0.505 OA
ATOM     26  H   UNL     1     -33.519  26.659   6.075  0.00  0.00    +0.292 HD
ENDBRANCH  21  25
TORSDOF 2
ENDMDL
MODEL 9
REMARK VINA RESULT:      -5.8      3.037      5.921
REMARK  Name = 51693667
REMARK  2 active torsions:
REMARK  status: ('A' for Active; 'I' for Inactive)
REMARK    1  A    between atoms: C_20  and  O_23
REMARK    2  A    between atoms: C_21  and  O_25
REMARK                            x       y       z     vdW  Elec       q    Type
REMARK                         _______ _______ _______ _____ _____    ______ ____
ROOT
ATOM      1  O   UNL     1     -34.212  28.793   3.632  0.00  0.00    -0.449 OA
ATOM      2  O   UNL     1     -36.610  30.536  -0.978  0.00  0.00    -0.296 OA
ATOM      3  O   UNL     1     -37.075  27.451   2.019  0.00  0.00    -0.296 OA
ATOM      4  O   UNL     1     -32.611  27.585   2.460  0.00  0.00    -0.245 OA
ATOM      5  C   UNL     1     -34.703  31.135   3.277  0.00  0.00    +0.044 C 
ATOM      6  C   UNL     1     -35.712  30.929   2.141  0.00  0.00    +0.011 C 
ATOM      7  C   UNL     1     -33.601  30.065   3.314  0.00  0.00    +0.169 C 
ATOM      8  C   UNL     1     -35.154  31.298   0.767  0.00  0.00    +0.065 C 
ATOM      9  C   UNL     1     -34.768  29.062  -0.455  0.00  0.00    +0.065 C 
ATOM     10  C   UNL     1     -35.489  27.889  -1.115  0.00  0.00    +0.016 C 
ATOM     11  C   UNL     1     -35.615  30.312  -0.290  0.00  0.00    +0.151 C 
ATOM     12  C   UNL     1     -36.682  27.344  -0.332  0.00  0.00    +0.065 C 
ATOM     13  C   UNL     1     -35.286  25.965   1.374  0.00  0.00    +0.091 C 
ATOM     14  C   UNL     1     -32.577  30.386   4.398  0.00  0.00    +0.047 C 
ATOM     15  C   UNL     1     -35.089  25.684   2.844  0.00  0.00    -0.003 C 
ATOM     16  C   UNL     1     -36.389  26.977   1.112  0.00  0.00    +0.155 C 
ATOM     17  C   UNL     1     -34.330  26.513   3.689  0.00  0.00    +0.106 C 
ATOM     18  C   UNL     1     -33.598  27.676   3.169  0.00  0.00    +0.344 C 
ATOM     19  C   UNL     1     -35.744  24.583   3.418  0.00  0.00    +0.033 C 
ATOM     20  C   UNL     1     -34.215  26.244   5.058  0.00  0.00    +0.143 C 
ATOM     21  C   UNL     1     -35.633  24.311   4.784  0.00  0.00    +0.136 C 
ATOM     22  C   UNL     1     -34.869  25.141   5.602  0.00  0.00    +0.073 C 
ENDROOT
BRANCH  20  23
ATOM     23  O   UNL     1     -33.487  27.043   5.886  0.00  0.00    -0.505 OA
ATOM     24  H   UNL     1     -33.679  27.959   5.942  0.00  0.00    +0.292 HD
ENDBRANCH  20  23
BRANCH  21  25
ATOM     25  O   UNL     1     -36.268  23.232   5.316  0.00  0.00    -0.505 OA
ATOM     26  H   UNL     1     -35.811  22.658   5.900  0.00  0.00    +0.292 HD
ENDBRANCH  21  25
TORSDOF 2
ENDMDL
