MODEL 1
REMARK VINA RESULT:      -7.5      0.000      0.000
REMARK  Name = 196308
REMARK  7 active torsions:
REMARK  status: ('A' for Active; 'I' for Inactive)
REMARK    1  A    between atoms: C_3  and  C_11
REMARK    2  A    between atoms: C_7  and  C_21
REMARK    3  A    between atoms: C_12  and  C_16
REMARK    4  A    between atoms: C_21  and  N_22
REMARK    5  A    between atoms: C_21  and  C_26
REMARK    6  A    between atoms: C_26  and  C_29
REMARK    7  A    between atoms: C_31  and  C_37
REMARK                            x       y       z     vdW  Elec       q    Type
REMARK                         _______ _______ _______ _____ _____    ______ ____
ROOT
ATOM      1  O   UNL     1     -34.685  25.273   2.032  0.00  0.00    -0.277 OA
ATOM      2  N   UNL     1     -34.786  27.561   2.363  0.00  0.00    -0.275 N 
ATOM      3  C   UNL     1     -33.351  27.773   2.506  0.00  0.00    +0.152 C 
ATOM      4  C   UNL     1     -33.166  29.279   2.364  0.00  0.00    +0.031 C 
ATOM      5  C   UNL     1     -34.487  29.849   2.877  0.00  0.00    +0.024 C 
ATOM      6  C   UNL     1     -35.513  28.827   2.411  0.00  0.00    +0.094 C 
ATOM      7  C   UNL     1     -35.330  26.322   2.063  0.00  0.00    +0.206 C 
ENDROOT
BRANCH   3  11
ATOM      8  O   UNL     1     -33.032  26.105   4.187  0.00  0.00    -0.273 OA
ATOM      9  O   UNL     1     -32.083  27.130   6.642  0.00  0.00    -0.273 OA
ATOM     10  N   UNL     1     -32.552  28.334   4.695  0.00  0.00    -0.253 N 
ATOM     11  C   UNL     1     -32.968  27.290   3.873  0.00  0.00    +0.246 C 
ATOM     12  C   UNL     1     -32.139  28.186   6.018  0.00  0.00    +0.246 C 
ATOM     13  H   UNL     1     -32.550  29.243   4.315  0.00  0.00    +0.158 HD
BRANCH  12  16
ATOM     14  O   UNL     1     -28.288  29.425   7.390  0.00  0.00    -0.275 OA
ATOM     15  N   UNL     1     -30.617  29.219   7.484  0.00  0.00    -0.298 N 
ATOM     16  C   UNL     1     -31.739  29.490   6.629  0.00  0.00    +0.149 C 
ATOM     17  C   UNL     1     -31.190  30.472   5.613  0.00  0.00    +0.039 C 
ATOM     18  C   UNL     1     -29.695  30.155   5.550  0.00  0.00    +0.087 C 
ATOM     19  C   UNL     1     -29.401  29.577   6.912  0.00  0.00    +0.223 C 
ATOM     20  H   UNL     1     -30.702  28.822   8.381  0.00  0.00    +0.150 HD
ENDBRANCH  12  16
ENDBRANCH   3  11
BRANCH   7  21
ATOM     21  C   UNL     1     -36.811  26.314   1.777  0.00  0.00    +0.019 C 
BRANCH  21  22
ATOM     22  N   UNL     1     -36.977  25.426   0.634  0.00  0.00    +0.388 N 
ATOM     23  H   UNL     1     -36.466  24.559   0.799  0.00  0.00    -0.089 HD
ATOM     24  H   UNL     1     -36.616  25.879  -0.205  0.00  0.00    -0.089 HD
ATOM     25  H   UNL     1     -37.969  25.217   0.507  0.00  0.00    -0.089 HD
ENDBRANCH  21  22
BRANCH  21  26
ATOM     26  C   UNL     1     -37.607  25.816   2.983  0.00  0.00    +0.029 C 
BRANCH  26  29
ATOM     27  N   UNL     1     -36.358  24.180   4.449  0.00  0.00    -0.315 N 
ATOM     28  N   UNL     1     -36.902  22.186   3.635  0.00  0.00    -0.310 N 
ATOM     29  C   UNL     1     -37.202  24.420   3.402  0.00  0.00    +0.036 C 
ATOM     30  C   UNL     1     -37.524  23.175   2.915  0.00  0.00    +0.069 C 
ATOM     31  C   UNL     1     -36.207  22.825   4.551  0.00  0.00    +0.241 C 
ATOM     32  H   UNL     1     -35.935  24.858   5.024  0.00  0.00    +0.148 HD
ATOM     33  H   UNL     1     -36.962  21.213   3.497  0.00  0.00    +0.149 HD
BRANCH  31  37
ATOM     34  F   UNL     1     -34.235  22.959   5.863  0.00  0.00    -0.167 F 
ATOM     35  F   UNL     1     -35.987  22.066   6.790  0.00  0.00    -0.167 F 
ATOM     36  F   UNL     1     -34.906  20.983   5.237  0.00  0.00    -0.167 F 
ATOM     37  C   UNL     1     -35.352  22.223   5.590  0.00  0.00    +0.431 C 
ENDBRANCH  31  37
ENDBRANCH  26  29
ENDBRANCH  21  26
ENDBRANCH   7  21
TORSDOF 7
ENDMDL
MODEL 2
REMARK VINA RESULT:      -7.5      6.118      9.522
REMARK  Name = 196308
REMARK  7 active torsions:
REMARK  status: ('A' for Active; 'I' for Inactive)
REMARK    1  A    between atoms: C_3  and  C_11
REMARK    2  A    between atoms: C_7  and  C_21
REMARK    3  A    between atoms: C_12  and  C_16
REMARK    4  A    between atoms: C_21  and  N_22
REMARK    5  A    between atoms: C_21  and  C_26
REMARK    6  A    between atoms: C_26  and  C_29
REMARK    7  A    between atoms: C_31  and  C_37
REMARK                            x       y       z     vdW  Elec       q    Type
REMARK                         _______ _______ _______ _____ _____    ______ ____
ROOT
ATOM      1  O   UNL     1     -36.106  19.465   1.382  0.00  0.00    -0.277 OA
ATOM      2  N   UNL     1     -37.728  18.781  -0.121  0.00  0.00    -0.275 N 
ATOM      3  C   UNL     1     -37.327  17.381  -0.174  0.00  0.00    +0.152 C 
ATOM      4  C   UNL     1     -38.502  16.666  -0.831  0.00  0.00    +0.031 C 
ATOM      5  C   UNL     1     -39.115  17.740  -1.726  0.00  0.00    +0.024 C 
ATOM      6  C   UNL     1     -38.926  19.017  -0.921  0.00  0.00    +0.094 C 
ATOM      7  C   UNL     1     -37.118  19.699   0.720  0.00  0.00    +0.206 C 
ENDROOT
BRANCH   3  11
ATOM      8  O   UNL     1     -36.137  17.311  -2.245  0.00  0.00    -0.273 OA
ATOM      9  O   UNL     1     -33.334  17.143  -1.942  0.00  0.00    -0.273 OA
ATOM     10  N   UNL     1     -34.935  17.240  -0.243  0.00  0.00    -0.253 N 
ATOM     11  C   UNL     1     -36.089  17.309  -1.018  0.00  0.00    +0.246 C 
ATOM     12  C   UNL     1     -33.640  17.162  -0.753  0.00  0.00    +0.246 C 
ATOM     13  H   UNL     1     -35.040  17.246   0.736  0.00  0.00    +0.158 HD
BRANCH  12  16
ATOM     14  O   UNL     1     -29.941  19.282  -0.486  0.00  0.00    -0.275 OA
ATOM     15  N   UNL     1     -31.351  17.425  -0.282  0.00  0.00    -0.298 N 
ATOM     16  C   UNL     1     -32.613  17.117   0.331  0.00  0.00    +0.149 C 
ATOM     17  C   UNL     1     -32.794  18.217   1.359  0.00  0.00    +0.039 C 
ATOM     18  C   UNL     1     -32.002  19.396   0.793  0.00  0.00    +0.087 C 
ATOM     19  C   UNL     1     -30.945  18.736  -0.056  0.00  0.00    +0.223 C 
ATOM     20  H   UNL     1     -30.829  16.776  -0.806  0.00  0.00    +0.150 HD
ENDBRANCH  12  16
ENDBRANCH   3  11
BRANCH   7  21
ATOM     21  C   UNL     1     -37.770  21.058   0.781  0.00  0.00    +0.019 C 
BRANCH  21  22
ATOM     22  N   UNL     1     -38.678  20.999   1.919  0.00  0.00    +0.388 N 
ATOM     23  H   UNL     1     -39.191  21.877   1.991  0.00  0.00    -0.089 HD
ATOM     24  H   UNL     1     -38.143  20.847   2.774  0.00  0.00    -0.089 HD
ATOM     25  H   UNL     1     -39.337  20.230   1.789  0.00  0.00    -0.089 HD
ENDBRANCH  21  22
BRANCH  21  26
ATOM     26  C   UNL     1     -36.730  22.164   0.962  0.00  0.00    +0.029 C 
BRANCH  26  29
ATOM     27  N   UNL     1     -35.919  21.969   3.347  0.00  0.00    -0.315 N 
ATOM     28  N   UNL     1     -36.801  23.729   4.374  0.00  0.00    -0.310 N 
ATOM     29  C   UNL     1     -36.636  22.637   2.395  0.00  0.00    +0.036 C 
ATOM     30  C   UNL     1     -37.172  23.719   3.053  0.00  0.00    +0.069 C 
ATOM     31  C   UNL     1     -36.047  22.662   4.518  0.00  0.00    +0.241 C 
ATOM     32  H   UNL     1     -35.404  21.140   3.213  0.00  0.00    +0.148 HD
ATOM     33  H   UNL     1     -37.045  24.389   5.062  0.00  0.00    +0.149 HD
BRANCH  31  37
ATOM     34  F   UNL     1     -36.268  21.838   6.733  0.00  0.00    -0.167 F 
ATOM     35  F   UNL     1     -34.577  21.123   5.570  0.00  0.00    -0.167 F 
ATOM     36  F   UNL     1     -34.600  23.175   6.307  0.00  0.00    -0.167 F 
ATOM     37  C   UNL     1     -35.388  22.206   5.756  0.00  0.00    +0.431 C 
ENDBRANCH  31  37
ENDBRANCH  26  29
ENDBRANCH  21  26
ENDBRANCH   7  21
TORSDOF 7
ENDMDL
MODEL 3
REMARK VINA RESULT:      -7.4      2.774      6.634
REMARK  Name = 196308
REMARK  7 active torsions:
REMARK  status: ('A' for Active; 'I' for Inactive)
REMARK    1  A    between atoms: C_3  and  C_11
REMARK    2  A    between atoms: C_7  and  C_21
REMARK    3  A    between atoms: C_12  and  C_16
REMARK    4  A    between atoms: C_21  and  N_22
REMARK    5  A    between atoms: C_21  and  C_26
REMARK    6  A    between atoms: C_26  and  C_29
REMARK    7  A    between atoms: C_31  and  C_37
REMARK                            x       y       z     vdW  Elec       q    Type
REMARK                         _______ _______ _______ _____ _____    ______ ____
ROOT
ATOM      1  O   UNL     1     -34.373  28.828   3.344  0.00  0.00    -0.277 OA
ATOM      2  N   UNL     1     -34.296  26.881   2.095  0.00  0.00    -0.275 N 
ATOM      3  C   UNL     1     -35.122  27.356   0.993  0.00  0.00    +0.152 C 
ATOM      4  C   UNL     1     -34.895  26.346  -0.125  0.00  0.00    +0.031 C 
ATOM      5  C   UNL     1     -34.578  25.053   0.623  0.00  0.00    +0.024 C 
ATOM      6  C   UNL     1     -33.795  25.534   1.835  0.00  0.00    +0.094 C 
ATOM      7  C   UNL     1     -33.929  27.694   3.156  0.00  0.00    +0.206 C 
ENDROOT
BRANCH   3  11
ATOM      8  O   UNL     1     -37.257  28.345   1.411  0.00  0.00    -0.273 OA
ATOM      9  O   UNL     1     -39.124  26.573   2.574  0.00  0.00    -0.273 OA
ATOM     10  N   UNL     1     -36.915  26.102   1.973  0.00  0.00    -0.253 N 
ATOM     11  C   UNL     1     -36.543  27.347   1.472  0.00  0.00    +0.246 C 
ATOM     12  C   UNL     1     -38.174  25.799   2.488  0.00  0.00    +0.246 C 
ATOM     13  H   UNL     1     -36.241  25.385   1.963  0.00  0.00    +0.158 HD
BRANCH  12  16
ATOM     14  O   UNL     1     -40.784  22.726   1.075  0.00  0.00    -0.275 OA
ATOM     15  N   UNL     1     -39.621  23.956   2.691  0.00  0.00    -0.298 N 
ATOM     16  C   UNL     1     -38.269  24.375   2.932  0.00  0.00    +0.149 C 
ATOM     17  C   UNL     1     -37.442  23.436   2.076  0.00  0.00    +0.039 C 
ATOM     18  C   UNL     1     -38.379  23.040   0.935  0.00  0.00    +0.087 C 
ATOM     19  C   UNL     1     -39.753  23.183   1.543  0.00  0.00    +0.223 C 
ATOM     20  H   UNL     1     -40.375  24.192   3.279  0.00  0.00    +0.150 HD
ENDBRANCH  12  16
ENDBRANCH   3  11
BRANCH   7  21
ATOM     21  C   UNL     1     -32.929  27.099   4.116  0.00  0.00    +0.019 C 
BRANCH  21  22
ATOM     22  N   UNL     1     -31.822  28.045   4.155  0.00  0.00    +0.388 N 
ATOM     23  H   UNL     1     -32.186  28.989   4.280  0.00  0.00    -0.089 HD
ATOM     24  H   UNL     1     -31.300  27.995   3.281  0.00  0.00    -0.089 HD
ATOM     25  H   UNL     1     -31.204  27.813   4.934  0.00  0.00    -0.089 HD
ENDBRANCH  21  22
BRANCH  21  26
ATOM     26  C   UNL     1     -33.540  26.907   5.505  0.00  0.00    +0.029 C 
BRANCH  26  29
ATOM     27  N   UNL     1     -34.191  24.468   5.606  0.00  0.00    -0.315 N 
ATOM     28  N   UNL     1     -36.411  24.489   5.563  0.00  0.00    -0.310 N 
ATOM     29  C   UNL     1     -34.552  25.783   5.538  0.00  0.00    +0.036 C 
ATOM     30  C   UNL     1     -35.927  25.771   5.512  0.00  0.00    +0.069 C 
ATOM     31  C   UNL     1     -35.341  23.728   5.619  0.00  0.00    +0.241 C 
ATOM     32  H   UNL     1     -33.272  24.117   5.640  0.00  0.00    +0.148 HD
ATOM     33  H   UNL     1     -37.353  24.201   5.558  0.00  0.00    +0.149 HD
BRANCH  31  37
ATOM     34  F   UNL     1     -35.648  21.650   4.515  0.00  0.00    -0.167 F 
ATOM     35  F   UNL     1     -34.074  21.758   6.009  0.00  0.00    -0.167 F 
ATOM     36  F   UNL     1     -36.164  21.764   6.629  0.00  0.00    -0.167 F 
ATOM     37  C   UNL     1     -35.306  22.255   5.689  0.00  0.00    +0.431 C 
ENDBRANCH  31  37
ENDBRANCH  26  29
ENDBRANCH  21  26
ENDBRANCH   7  21
TORSDOF 7
ENDMDL
MODEL 4
REMARK VINA RESULT:      -7.4      4.704      7.684
REMARK  Name = 196308
REMARK  7 active torsions:
REMARK  status: ('A' for Active; 'I' for Inactive)
REMARK    1  A    between atoms: C_3  and  C_11
REMARK    2  A    between atoms: C_7  and  C_21
REMARK    3  A    between atoms: C_12  and  C_16
REMARK    4  A    between atoms: C_21  and  N_22
REMARK    5  A    between atoms: C_21  and  C_26
REMARK    6  A    between atoms: C_26  and  C_29
REMARK    7  A    between atoms: C_31  and  C_37
REMARK                            x       y       z     vdW  Elec       q    Type
REMARK                         _______ _______ _______ _____ _____    ______ ____
ROOT
ATOM      1  O   UNL     1     -37.523  22.715   3.791  0.00  0.00    -0.277 OA
ATOM      2  N   UNL     1     -35.776  24.190   4.154  0.00  0.00    -0.275 N 
ATOM      3  C   UNL     1     -36.590  25.293   4.649  0.00  0.00    +0.152 C 
ATOM      4  C   UNL     1     -35.594  26.247   5.298  0.00  0.00    +0.031 C 
ATOM      5  C   UNL     1     -34.307  26.007   4.512  0.00  0.00    +0.024 C 
ATOM      6  C   UNL     1     -34.354  24.516   4.213  0.00  0.00    +0.094 C 
ATOM      7  C   UNL     1     -36.315  22.954   3.831  0.00  0.00    +0.206 C 
ENDROOT
BRANCH   3  11
ATOM      8  O   UNL     1     -36.624  26.446   2.556  0.00  0.00    -0.273 OA
ATOM      9  O   UNL     1     -39.223  26.879   1.538  0.00  0.00    -0.273 OA
ATOM     10  N   UNL     1     -38.648  25.805   3.532  0.00  0.00    -0.253 N 
ATOM     11  C   UNL     1     -37.262  25.914   3.461  0.00  0.00    +0.246 C 
ATOM     12  C   UNL     1     -39.532  26.292   2.571  0.00  0.00    +0.246 C 
ATOM     13  H   UNL     1     -39.032  25.352   4.318  0.00  0.00    +0.158 HD
BRANCH  12  16
ATOM     14  O   UNL     1     -42.317  28.774   4.653  0.00  0.00    -0.275 OA
ATOM     15  N   UNL     1     -41.247  26.765   4.110  0.00  0.00    -0.298 N 
ATOM     16  C   UNL     1     -40.957  26.007   2.926  0.00  0.00    +0.149 C 
ATOM     17  C   UNL     1     -41.936  26.547   1.902  0.00  0.00    +0.039 C 
ATOM     18  C   UNL     1     -42.211  27.980   2.361  0.00  0.00    +0.087 C 
ATOM     19  C   UNL     1     -41.968  27.925   3.849  0.00  0.00    +0.223 C 
ATOM     20  H   UNL     1     -40.966  26.490   5.013  0.00  0.00    +0.150 HD
ENDBRANCH  12  16
ENDBRANCH   3  11
BRANCH   7  21
ATOM     21  C   UNL     1     -35.314  21.874   3.505  0.00  0.00    +0.019 C 
BRANCH  21  22
ATOM     22  N   UNL     1     -35.235  21.048   4.702  0.00  0.00    +0.388 N 
ATOM     23  H   UNL     1     -35.637  20.130   4.509  0.00  0.00    -0.089 HD
ATOM     24  H   UNL     1     -35.754  21.493   5.458  0.00  0.00    -0.089 HD
ATOM     25  H   UNL     1     -34.258  20.940   4.978  0.00  0.00    -0.089 HD
ENDBRANCH  21  22
BRANCH  21  26
ATOM     26  C   UNL     1     -35.759  21.052   2.295  0.00  0.00    +0.029 C 
BRANCH  26  29
ATOM     27  N   UNL     1     -34.040  19.304   1.681  0.00  0.00    -0.315 N 
ATOM     28  N   UNL     1     -32.870  20.236   0.040  0.00  0.00    -0.310 N 
ATOM     29  C   UNL     1     -34.588  20.540   1.485  0.00  0.00    +0.036 C 
ATOM     30  C   UNL     1     -33.850  21.096   0.468  0.00  0.00    +0.069 C 
ATOM     31  C   UNL     1     -33.012  19.166   0.790  0.00  0.00    +0.241 C 
ATOM     32  H   UNL     1     -34.332  18.635   2.342  0.00  0.00    +0.148 HD
ATOM     33  H   UNL     1     -32.207  20.386  -0.673  0.00  0.00    +0.149 HD
BRANCH  31  37
ATOM     34  F   UNL     1     -31.222  17.890   1.684  0.00  0.00    -0.167 F 
ATOM     35  F   UNL     1     -32.937  16.796   0.918  0.00  0.00    -0.167 F 
ATOM     36  F   UNL     1     -31.572  17.786  -0.465  0.00  0.00    -0.167 F 
ATOM     37  C   UNL     1     -32.203  17.935   0.736  0.00  0.00    +0.431 C 
ENDBRANCH  31  37
ENDBRANCH  26  29
ENDBRANCH  21  26
ENDBRANCH   7  21
TORSDOF 7
ENDMDL
MODEL 5
REMARK VINA RESULT:      -7.4      4.085      8.921
REMARK  Name = 196308
REMARK  7 active torsions:
REMARK  status: ('A' for Active; 'I' for Inactive)
REMARK    1  A    between atoms: C_3  and  C_11
REMARK    2  A    between atoms: C_7  and  C_21
REMARK    3  A    between atoms: C_12  and  C_16
REMARK    4  A    between atoms: C_21  and  N_22
REMARK    5  A    between atoms: C_21  and  C_26
REMARK    6  A    between atoms: C_26  and  C_29
REMARK    7  A    between atoms: C_31  and  C_37
REMARK                            x       y       z     vdW  Elec       q    Type
REMARK                         _______ _______ _______ _____ _____    ______ ____
ROOT
ATOM      1  O   UNL     1     -34.777  24.398   1.637  0.00  0.00    -0.277 OA
ATOM      2  N   UNL     1     -34.860  23.597   3.807  0.00  0.00    -0.275 N 
ATOM      3  C   UNL     1     -35.719  22.453   3.531  0.00  0.00    +0.152 C 
ATOM      4  C   UNL     1     -35.599  21.572   4.769  0.00  0.00    +0.031 C 
ATOM      5  C   UNL     1     -35.307  22.569   5.888  0.00  0.00    +0.024 C 
ATOM      6  C   UNL     1     -34.439  23.615   5.206  0.00  0.00    +0.094 C 
ATOM      7  C   UNL     1     -34.399  24.442   2.809  0.00  0.00    +0.206 C 
ENDROOT
BRANCH   3  11
ATOM      8  O   UNL     1     -37.496  24.005   3.910  0.00  0.00    -0.273 OA
ATOM      9  O   UNL     1     -39.883  23.356   2.547  0.00  0.00    -0.273 OA
ATOM     10  N   UNL     1     -37.869  22.172   2.509  0.00  0.00    -0.253 N 
ATOM     11  C   UNL     1     -37.111  22.980   3.354  0.00  0.00    +0.246 C 
ATOM     12  C   UNL     1     -39.197  22.413   2.163  0.00  0.00    +0.246 C 
ATOM     13  H   UNL     1     -37.435  21.374   2.128  0.00  0.00    +0.158 HD
BRANCH  12  16
ATOM     14  O   UNL     1     -41.151  22.955  -1.597  0.00  0.00    -0.275 OA
ATOM     15  N   UNL     1     -40.810  21.985   0.506  0.00  0.00    -0.298 N 
ATOM     16  C   UNL     1     -39.729  21.375   1.227  0.00  0.00    +0.149 C 
ATOM     17  C   UNL     1     -38.738  20.999   0.143  0.00  0.00    +0.039 C 
ATOM     18  C   UNL     1     -39.003  22.005  -0.977  0.00  0.00    +0.087 C 
ATOM     19  C   UNL     1     -40.451  22.379  -0.779  0.00  0.00    +0.223 C 
ATOM     20  H   UNL     1     -41.711  22.110   0.882  0.00  0.00    +0.150 HD
ENDBRANCH  12  16
ENDBRANCH   3  11
BRANCH   7  21
ATOM     21  C   UNL     1     -33.381  25.466   3.242  0.00  0.00    +0.019 C 
BRANCH  21  22
ATOM     22  N   UNL     1     -32.654  25.823   2.031  0.00  0.00    +0.388 N 
ATOM     23  H   UNL     1     -32.884  26.781   1.766  0.00  0.00    -0.089 HD
ATOM     24  H   UNL     1     -32.916  25.189   1.277  0.00  0.00    -0.089 HD
ATOM     25  H   UNL     1     -31.650  25.750   2.203  0.00  0.00    -0.089 HD
ENDBRANCH  21  22
BRANCH  21  26
ATOM     26  C   UNL     1     -34.055  26.691   3.862  0.00  0.00    +0.029 C 
BRANCH  26  29
ATOM     27  N   UNL     1     -32.662  28.298   5.227  0.00  0.00    -0.315 N 
ATOM     28  N   UNL     1     -32.558  27.364   7.238  0.00  0.00    -0.310 N 
ATOM     29  C   UNL     1     -33.376  27.137   5.138  0.00  0.00    +0.036 C 
ATOM     30  C   UNL     1     -33.297  26.577   6.392  0.00  0.00    +0.069 C 
ATOM     31  C   UNL     1     -32.189  28.391   6.506  0.00  0.00    +0.241 C 
ATOM     32  H   UNL     1     -32.514  28.948   4.502  0.00  0.00    +0.148 HD
ATOM     33  H   UNL     1     -32.348  27.195   8.186  0.00  0.00    +0.149 HD
BRANCH  31  37
ATOM     34  F   UNL     1     -30.032  29.276   6.946  0.00  0.00    -0.167 F 
ATOM     35  F   UNL     1     -31.524  30.642   6.150  0.00  0.00    -0.167 F 
ATOM     36  F   UNL     1     -31.681  29.940   8.208  0.00  0.00    -0.167 F 
ATOM     37  C   UNL     1     -31.372  29.539   6.942  0.00  0.00    +0.431 C 
ENDBRANCH  31  37
ENDBRANCH  26  29
ENDBRANCH  21  26
ENDBRANCH   7  21
TORSDOF 7
ENDMDL
MODEL 6
REMARK VINA RESULT:      -7.3      4.840      8.714
REMARK  Name = 196308
REMARK  7 active torsions:
REMARK  status: ('A' for Active; 'I' for Inactive)
REMARK    1  A    between atoms: C_3  and  C_11
REMARK    2  A    between atoms: C_7  and  C_21
REMARK    3  A    between atoms: C_12  and  C_16
REMARK    4  A    between atoms: C_21  and  N_22
REMARK    5  A    between atoms: C_21  and  C_26
REMARK    6  A    between atoms: C_26  and  C_29
REMARK    7  A    between atoms: C_31  and  C_37
REMARK                            x       y       z     vdW  Elec       q    Type
REMARK                         _______ _______ _______ _____ _____    ______ ____
ROOT
ATOM      1  O   UNL     1     -34.935  20.654   4.211  0.00  0.00    -0.277 OA
ATOM      2  N   UNL     1     -36.246  21.991   2.850  0.00  0.00    -0.275 N 
ATOM      3  C   UNL     1     -36.283  21.084   1.711  0.00  0.00    +0.152 C 
ATOM      4  C   UNL     1     -37.410  21.614   0.831  0.00  0.00    +0.031 C 
ATOM      5  C   UNL     1     -37.423  23.110   1.133  0.00  0.00    +0.024 C 
ATOM      6  C   UNL     1     -37.072  23.172   2.612  0.00  0.00    +0.094 C 
ATOM      7  C   UNL     1     -35.626  21.661   4.046  0.00  0.00    +0.206 C 
ENDROOT
BRANCH   3  11
ATOM      8  O   UNL     1     -34.623  22.168   0.377  0.00  0.00    -0.273 OA
ATOM      9  O   UNL     1     -32.277  20.637   0.015  0.00  0.00    -0.273 OA
ATOM     10  N   UNL     1     -34.182  20.037   1.228  0.00  0.00    -0.253 N 
ATOM     11  C   UNL     1     -34.952  21.179   1.028  0.00  0.00    +0.246 C 
ATOM     12  C   UNL     1     -32.902  19.842   0.712  0.00  0.00    +0.246 C 
ATOM     13  H   UNL     1     -34.569  19.314   1.774  0.00  0.00    +0.158 HD
BRANCH  12  16
ATOM     14  O   UNL     1     -34.254  15.920  -0.310  0.00  0.00    -0.275 OA
ATOM     15  N   UNL     1     -33.417  17.582   1.110  0.00  0.00    -0.298 N 
ATOM     16  C   UNL     1     -32.331  18.521   1.115  0.00  0.00    +0.149 C 
ATOM     17  C   UNL     1     -31.364  17.961   0.090  0.00  0.00    +0.039 C 
ATOM     18  C   UNL     1     -32.251  17.172  -0.874  0.00  0.00    +0.087 C 
ATOM     19  C   UNL     1     -33.430  16.774  -0.021  0.00  0.00    +0.223 C 
ATOM     20  H   UNL     1     -34.082  17.517   1.833  0.00  0.00    +0.150 HD
ENDBRANCH  12  16
ENDBRANCH   3  11
BRANCH   7  21
ATOM     21  C   UNL     1     -35.833  22.637   5.177  0.00  0.00    +0.019 C 
BRANCH  21  22
ATOM     22  N   UNL     1     -36.038  21.814   6.362  0.00  0.00    +0.388 N 
ATOM     23  H   UNL     1     -35.402  22.117   7.100  0.00  0.00    -0.089 HD
ATOM     24  H   UNL     1     -35.854  20.837   6.135  0.00  0.00    -0.089 HD
ATOM     25  H   UNL     1     -37.002  21.914   6.682  0.00  0.00    -0.089 HD
ENDBRANCH  21  22
BRANCH  21  26
ATOM     26  C   UNL     1     -34.622  23.556   5.346  0.00  0.00    +0.029 C 
BRANCH  26  29
ATOM     27  N   UNL     1     -34.173  25.700   4.086  0.00  0.00    -0.315 N 
ATOM     28  N   UNL     1     -35.792  27.072   4.741  0.00  0.00    -0.310 N 
ATOM     29  C   UNL     1     -34.932  24.988   4.972  0.00  0.00    +0.036 C 
ATOM     30  C   UNL     1     -35.924  25.856   5.363  0.00  0.00    +0.069 C 
ATOM     31  C   UNL     1     -34.728  26.945   3.979  0.00  0.00    +0.241 C 
ATOM     32  H   UNL     1     -33.374  25.375   3.611  0.00  0.00    +0.148 HD
ATOM     33  H   UNL     1     -36.366  27.865   4.843  0.00  0.00    +0.149 HD
BRANCH  31  37
ATOM     34  F   UNL     1     -33.794  27.488   1.867  0.00  0.00    -0.167 F 
ATOM     35  F   UNL     1     -34.995  29.013   2.845  0.00  0.00    -0.167 F 
ATOM     36  F   UNL     1     -33.017  28.525   3.620  0.00  0.00    -0.167 F 
ATOM     37  C   UNL     1     -34.148  27.971   3.094  0.00  0.00    +0.431 C 
ENDBRANCH  31  37
ENDBRANCH  26  29
ENDBRANCH  21  26
ENDBRANCH   7  21
TORSDOF 7
ENDMDL
MODEL 7
REMARK VINA RESULT:      -7.3      6.468     10.792
REMARK  Name = 196308
REMARK  7 active torsions:
REMARK  status: ('A' for Active; 'I' for Inactive)
REMARK    1  A    between atoms: C_3  and  C_11
REMARK    2  A    between atoms: C_7  and  C_21
REMARK    3  A    between atoms: C_12  and  C_16
REMARK    4  A    between atoms: C_21  and  N_22
REMARK    5  A    between atoms: C_21  and  C_26
REMARK    6  A    between atoms: C_26  and  C_29
REMARK    7  A    between atoms: C_31  and  C_37
REMARK                            x       y       z     vdW  Elec       q    Type
REMARK                         _______ _______ _______ _____ _____    ______ ____
ROOT
ATOM      1  O   UNL     1     -36.655  19.692  -1.259  0.00  0.00    -0.277 OA
ATOM      2  N   UNL     1     -34.557  19.954  -0.317  0.00  0.00    -0.275 N 
ATOM      3  C   UNL     1     -33.896  18.911  -1.090  0.00  0.00    +0.152 C 
ATOM      4  C   UNL     1     -32.407  19.164  -0.887  0.00  0.00    +0.031 C 
ATOM      5  C   UNL     1     -32.342  19.813   0.494  0.00  0.00    +0.024 C 
ATOM      6  C   UNL     1     -33.609  20.653   0.545  0.00  0.00    +0.094 C 
ATOM      7  C   UNL     1     -35.882  20.307  -0.523  0.00  0.00    +0.206 C 
ENDROOT
BRANCH   3  11
ATOM      8  O   UNL     1     -33.783  17.117   0.485  0.00  0.00    -0.273 OA
ATOM      9  O   UNL     1     -35.660  15.062   0.007  0.00  0.00    -0.273 OA
ATOM     10  N   UNL     1     -35.364  17.021  -1.233  0.00  0.00    -0.253 N 
ATOM     11  C   UNL     1     -34.321  17.595  -0.510  0.00  0.00    +0.246 C 
ATOM     12  C   UNL     1     -35.961  15.799  -0.928  0.00  0.00    +0.246 C 
ATOM     13  H   UNL     1     -35.704  17.513  -2.015  0.00  0.00    +0.158 HD
BRANCH  12  16
ATOM     14  O   UNL     1     -39.828  14.191  -0.083  0.00  0.00    -0.275 OA
ATOM     15  N   UNL     1     -37.825  14.407  -1.274  0.00  0.00    -0.298 N 
ATOM     16  C   UNL     1     -37.063  15.462  -1.881  0.00  0.00    +0.149 C 
ATOM     17  C   UNL     1     -38.066  16.587  -2.041  0.00  0.00    +0.039 C 
ATOM     18  C   UNL     1     -39.087  16.344  -0.928  0.00  0.00    +0.087 C 
ATOM     19  C   UNL     1     -39.008  14.855  -0.698  0.00  0.00    +0.223 C 
ATOM     20  H   UNL     1     -37.539  13.465  -1.268  0.00  0.00    +0.150 HD
ENDBRANCH  12  16
ENDBRANCH   3  11
BRANCH   7  21
ATOM     21  C   UNL     1     -36.357  21.521   0.235  0.00  0.00    +0.019 C 
BRANCH  21  22
ATOM     22  N   UNL     1     -37.160  22.279  -0.715  0.00  0.00    +0.388 N 
ATOM     23  H   UNL     1     -37.977  22.663  -0.240  0.00  0.00    -0.089 HD
ATOM     24  H   UNL     1     -37.464  21.665  -1.470  0.00  0.00    -0.089 HD
ATOM     25  H   UNL     1     -36.601  23.042  -1.101  0.00  0.00    -0.089 HD
ENDBRANCH  21  22
BRANCH  21  26
ATOM     26  C   UNL     1     -37.181  21.123   1.460  0.00  0.00    +0.029 C 
BRANCH  26  29
ATOM     27  N   UNL     1     -36.110  21.590   3.701  0.00  0.00    -0.315 N 
ATOM     28  N   UNL     1     -36.755  23.655   4.199  0.00  0.00    -0.310 N 
ATOM     29  C   UNL     1     -36.891  22.000   2.658  0.00  0.00    +0.036 C 
ATOM     30  C   UNL     1     -37.279  23.277   2.988  0.00  0.00    +0.069 C 
ATOM     31  C   UNL     1     -36.057  22.617   4.602  0.00  0.00    +0.241 C 
ATOM     32  H   UNL     1     -35.666  20.715   3.787  0.00  0.00    +0.148 HD
ATOM     33  H   UNL     1     -36.876  24.514   4.664  0.00  0.00    +0.149 HD
BRANCH  31  37
ATOM     34  F   UNL     1     -36.027  22.037   6.902  0.00  0.00    -0.167 F 
ATOM     35  F   UNL     1     -34.220  21.653   5.757  0.00  0.00    -0.167 F 
ATOM     36  F   UNL     1     -34.776  23.701   6.257  0.00  0.00    -0.167 F 
ATOM     37  C   UNL     1     -35.287  22.501   5.854  0.00  0.00    +0.431 C 
ENDBRANCH  31  37
ENDBRANCH  26  29
ENDBRANCH  21  26
ENDBRANCH   7  21
TORSDOF 7
ENDMDL
MODEL 8
REMARK VINA RESULT:      -7.3      1.664      2.171
REMARK  Name = 196308
REMARK  7 active torsions:
REMARK  status: ('A' for Active; 'I' for Inactive)
REMARK    1  A    between atoms: C_3  and  C_11
REMARK    2  A    between atoms: C_7  and  C_21
REMARK    3  A    between atoms: C_12  and  C_16
REMARK    4  A    between atoms: C_21  and  N_22
REMARK    5  A    between atoms: C_21  and  C_26
REMARK    6  A    between atoms: C_26  and  C_29
REMARK    7  A    between atoms: C_31  and  C_37
REMARK                            x       y       z     vdW  Elec       q    Type
REMARK                         _______ _______ _______ _____ _____    ______ ____
ROOT
ATOM      1  O   UNL     1     -32.982  24.752   1.107  0.00  0.00    -0.277 OA
ATOM      2  N   UNL     1     -34.927  25.970   1.413  0.00  0.00    -0.275 N 
ATOM      3  C   UNL     1     -34.303  27.126   2.042  0.00  0.00    +0.152 C 
ATOM      4  C   UNL     1     -35.368  28.216   1.993  0.00  0.00    +0.031 C 
ATOM      5  C   UNL     1     -36.678  27.433   2.029  0.00  0.00    +0.024 C 
ATOM      6  C   UNL     1     -36.359  26.181   1.225  0.00  0.00    +0.094 C 
ATOM      7  C   UNL     1     -34.192  24.898   0.928  0.00  0.00    +0.206 C 
ENDROOT
BRANCH   3  11
ATOM      8  O   UNL     1     -34.351  25.676   3.941  0.00  0.00    -0.273 OA
ATOM      9  O   UNL     1     -32.954  26.685   6.179  0.00  0.00    -0.273 OA
ATOM     10  N   UNL     1     -33.204  27.707   4.093  0.00  0.00    -0.253 N 
ATOM     11  C   UNL     1     -33.970  26.736   3.451  0.00  0.00    +0.246 C 
ATOM     12  C   UNL     1     -32.749  27.617   5.407  0.00  0.00    +0.246 C 
ATOM     13  H   UNL     1     -32.967  28.514   3.581  0.00  0.00    +0.158 HD
BRANCH  12  16
ATOM     14  O   UNL     1     -28.726  27.763   6.837  0.00  0.00    -0.275 OA
ATOM     15  N   UNL     1     -30.989  28.359   6.778  0.00  0.00    -0.298 N 
ATOM     16  C   UNL     1     -31.940  28.810   5.801  0.00  0.00    +0.149 C 
ATOM     17  C   UNL     1     -31.075  29.334   4.671  0.00  0.00    +0.039 C 
ATOM     18  C   UNL     1     -29.776  28.536   4.788  0.00  0.00    +0.087 C 
ATOM     19  C   UNL     1     -29.715  28.175   6.251  0.00  0.00    +0.223 C 
ATOM     20  H   UNL     1     -31.216  28.198   7.723  0.00  0.00    +0.150 HD
ENDBRANCH  12  16
ENDBRANCH   3  11
BRANCH   7  21
ATOM     21  C   UNL     1     -34.977  23.871   0.151  0.00  0.00    +0.019 C 
BRANCH  21  22
ATOM     22  N   UNL     1     -34.320  23.786  -1.147  0.00  0.00    +0.388 N 
ATOM     23  H   UNL     1     -35.009  23.925  -1.886  0.00  0.00    -0.089 HD
ATOM     24  H   UNL     1     -33.889  22.868  -1.251  0.00  0.00    -0.089 HD
ATOM     25  H   UNL     1     -33.601  24.509  -1.213  0.00  0.00    -0.089 HD
ENDBRANCH  21  22
BRANCH  21  26
ATOM     26  C   UNL     1     -34.973  22.517   0.861  0.00  0.00    +0.029 C 
BRANCH  26  29
ATOM     27  N   UNL     1     -34.889  22.460   3.385  0.00  0.00    -0.315 N 
ATOM     28  N   UNL     1     -36.999  22.754   4.012  0.00  0.00    -0.310 N 
ATOM     29  C   UNL     1     -35.609  22.584   2.231  0.00  0.00    +0.036 C 
ATOM     30  C   UNL     1     -36.909  22.764   2.643  0.00  0.00    +0.069 C 
ATOM     31  C   UNL     1     -35.766  22.568   4.429  0.00  0.00    +0.241 C 
ATOM     32  H   UNL     1     -33.918  22.318   3.454  0.00  0.00    +0.148 HD
ATOM     33  H   UNL     1     -37.809  22.861   4.562  0.00  0.00    +0.149 HD
BRANCH  31  37
ATOM     34  F   UNL     1     -36.240  21.934   6.665  0.00  0.00    -0.167 F 
ATOM     35  F   UNL     1     -34.188  21.715   5.984  0.00  0.00    -0.167 F 
ATOM     36  F   UNL     1     -35.006  23.703   6.350  0.00  0.00    -0.167 F 
ATOM     37  C   UNL     1     -35.310  22.479   5.828  0.00  0.00    +0.431 C 
ENDBRANCH  31  37
ENDBRANCH  26  29
ENDBRANCH  21  26
ENDBRANCH   7  21
TORSDOF 7
ENDMDL
MODEL 9
REMARK VINA RESULT:      -7.3      3.973      8.259
REMARK  Name = 196308
REMARK  7 active torsions:
REMARK  status: ('A' for Active; 'I' for Inactive)
REMARK    1  A    between atoms: C_3  and  C_11
REMARK    2  A    between atoms: C_7  and  C_21
REMARK    3  A    between atoms: C_12  and  C_16
REMARK    4  A    between atoms: C_21  and  N_22
REMARK    5  A    between atoms: C_21  and  C_26
REMARK    6  A    between atoms: C_26  and  C_29
REMARK    7  A    between atoms: C_31  and  C_37
REMARK                            x       y       z     vdW  Elec       q    Type
REMARK                         _______ _______ _______ _____ _____    ______ ____
ROOT
ATOM      1  O   UNL     1     -36.707  23.458   4.175  0.00  0.00    -0.277 OA
ATOM      2  N   UNL     1     -38.124  24.913   3.066  0.00  0.00    -0.275 N 
ATOM      3  C   UNL     1     -39.161  23.936   2.760  0.00  0.00    +0.152 C 
ATOM      4  C   UNL     1     -40.369  24.770   2.348  0.00  0.00    +0.031 C 
ATOM      5  C   UNL     1     -39.745  26.032   1.759  0.00  0.00    +0.024 C 
ATOM      6  C   UNL     1     -38.513  26.250   2.625  0.00  0.00    +0.094 C 
ATOM      7  C   UNL     1     -37.004  24.600   3.820  0.00  0.00    +0.206 C 
ENDROOT
BRANCH   3  11
ATOM      8  O   UNL     1     -38.916  23.351   0.456  0.00  0.00    -0.273 OA
ATOM      9  O   UNL     1     -37.342  21.044   0.029  0.00  0.00    -0.273 OA
ATOM     10  N   UNL     1     -37.879  22.028   2.080  0.00  0.00    -0.253 N 
ATOM     11  C   UNL     1     -38.653  23.094   1.628  0.00  0.00    +0.246 C 
ATOM     12  C   UNL     1     -37.278  21.079   1.255  0.00  0.00    +0.246 C 
ATOM     13  H   UNL     1     -37.747  21.938   3.051  0.00  0.00    +0.158 HD
BRANCH  12  16
ATOM     14  O   UNL     1     -34.178  18.466  -0.091  0.00  0.00    -0.275 OA
ATOM     15  N   UNL     1     -36.101  19.048   1.110  0.00  0.00    -0.298 N 
ATOM     16  C   UNL     1     -36.501  20.069   2.037  0.00  0.00    +0.149 C 
ATOM     17  C   UNL     1     -35.188  20.617   2.561  0.00  0.00    +0.039 C 
ATOM     18  C   UNL     1     -34.193  20.361   1.428  0.00  0.00    +0.087 C 
ATOM     19  C   UNL     1     -34.773  19.166   0.714  0.00  0.00    +0.223 C 
ATOM     20  H   UNL     1     -36.704  18.339   0.790  0.00  0.00    +0.150 HD
ENDBRANCH  12  16
ENDBRANCH   3  11
BRANCH   7  21
ATOM     21  C   UNL     1     -36.123  25.766   4.192  0.00  0.00    +0.019 C 
BRANCH  21  22
ATOM     22  N   UNL     1     -36.684  26.294   5.429  0.00  0.00    +0.388 N 
ATOM     23  H   UNL     1     -37.500  25.743   5.694  0.00  0.00    -0.089 HD
ATOM     24  H   UNL     1     -36.960  27.265   5.291  0.00  0.00    -0.089 HD
ATOM     25  H   UNL     1     -35.983  26.241   6.169  0.00  0.00    -0.089 HD
ENDBRANCH  21  22
BRANCH  21  26
ATOM     26  C   UNL     1     -34.672  25.325   4.387  0.00  0.00    +0.029 C 
BRANCH  26  29
ATOM     27  N   UNL     1     -33.310  27.107   5.553  0.00  0.00    -0.315 N 
ATOM     28  N   UNL     1     -32.284  28.182   3.903  0.00  0.00    -0.310 N 
ATOM     29  C   UNL     1     -33.713  26.495   4.400  0.00  0.00    +0.036 C 
ATOM     30  C   UNL     1     -33.067  27.176   3.395  0.00  0.00    +0.069 C 
ATOM     31  C   UNL     1     -32.453  28.114   5.205  0.00  0.00    +0.241 C 
ATOM     32  H   UNL     1     -33.587  26.867   6.467  0.00  0.00    +0.148 HD
ATOM     33  H   UNL     1     -31.720  28.815   3.403  0.00  0.00    +0.149 HD
BRANCH  31  37
ATOM     34  F   UNL     1     -32.188  28.653   7.500  0.00  0.00    -0.167 F 
ATOM     35  F   UNL     1     -30.464  28.937   6.206  0.00  0.00    -0.167 F 
ATOM     36  F   UNL     1     -32.167  30.290   6.061  0.00  0.00    -0.167 F 
ATOM     37  C   UNL     1     -31.830  28.978   6.223  0.00  0.00    +0.431 C 
ENDBRANCH  31  37
ENDBRANCH  26  29
ENDBRANCH  21  26
ENDBRANCH   7  21
TORSDOF 7
ENDMDL
