MODEL 1
REMARK VINA RESULT:      -5.2      0.000      0.000
REMARK  Name = 197080
REMARK  1 active torsions:
REMARK  status: ('A' for Active; 'I' for Inactive)
REMARK    1  A    between atoms: C_11  and  N_16
REMARK                            x       y       z     vdW  Elec       q    Type
REMARK                         _______ _______ _______ _____ _____    ______ ____
ROOT
ATOM      1  S   UNL     1     -33.700  25.739   3.350  0.00  0.00    -0.027 S 
ATOM      2  O   UNL     1     -36.107  22.586   5.756  0.00  0.00    -0.252 OA
ATOM      3  O   UNL     1     -35.931  21.279   1.360  0.00  0.00    -0.273 OA
ATOM      4  N   UNL     1     -35.100  23.581   3.853  0.00  0.00    -0.213 N 
ATOM      5  N   UNL     1     -36.211  21.640   3.635  0.00  0.00    -0.238 N 
ATOM      6  N   UNL     1     -34.606  25.075   5.678  0.00  0.00    -0.220 NA
ATOM      7  C   UNL     1     -35.001  23.232   2.444  0.00  0.00    +0.187 C 
ATOM      8  C   UNL     1     -34.556  24.700   4.417  0.00  0.00    +0.172 C 
ATOM      9  C   UNL     1     -35.840  22.600   4.561  0.00  0.00    +0.315 C 
ATOM     10  C   UNL     1     -35.762  21.934   2.378  0.00  0.00    +0.250 C 
ATOM     11  C   UNL     1     -33.365  26.783   4.668  0.00  0.00    +0.194 C 
ATOM     12  C   UNL     1     -33.923  26.268   5.819  0.00  0.00    +0.132 C 
ATOM     13  H   UNL     1     -36.738  20.838   3.856  0.00  0.00    +0.159 HD
ENDROOT
BRANCH  11  16
ATOM     14  O   UNL     1     -31.362  27.918   4.552  0.00  0.00    -0.126 OA
ATOM     15  O   UNL     1     -33.219  29.040   4.215  0.00  0.00    -0.126 OA
ATOM     16  N   UNL     1     -32.624  27.954   4.472  0.00  0.00    +0.065 N 
ENDBRANCH  11  16
TORSDOF 1
ENDMDL
MODEL 2
REMARK VINA RESULT:      -5.1      2.028      2.189
REMARK  Name = 197080
REMARK  1 active torsions:
REMARK  status: ('A' for Active; 'I' for Inactive)
REMARK    1  A    between atoms: C_11  and  N_16
REMARK                            x       y       z     vdW  Elec       q    Type
REMARK                         _______ _______ _______ _____ _____    ______ ____
ROOT
ATOM      1  S   UNL     1     -34.319  24.422   4.353  0.00  0.00    -0.027 S 
ATOM      2  O   UNL     1     -38.669  23.449   3.065  0.00  0.00    -0.252 OA
ATOM      3  O   UNL     1     -35.955  19.941   1.889  0.00  0.00    -0.273 OA
ATOM      4  N   UNL     1     -36.339  23.099   3.335  0.00  0.00    -0.213 N 
ATOM      5  N   UNL     1     -37.593  21.521   2.339  0.00  0.00    -0.238 N 
ATOM      6  N   UNL     1     -36.762  25.267   4.296  0.00  0.00    -0.220 NA
ATOM      7  C   UNL     1     -35.417  22.026   2.993  0.00  0.00    +0.187 C 
ATOM      8  C   UNL     1     -35.983  24.260   3.959  0.00  0.00    +0.172 C 
ATOM      9  C   UNL     1     -37.658  22.772   2.929  0.00  0.00    +0.315 C 
ATOM     10  C   UNL     1     -36.323  21.017   2.337  0.00  0.00    +0.250 C 
ATOM     11  C   UNL     1     -34.651  25.962   5.030  0.00  0.00    +0.194 C 
ATOM     12  C   UNL     1     -35.996  26.240   4.910  0.00  0.00    +0.132 C 
ATOM     13  H   UNL     1     -38.372  21.049   1.965  0.00  0.00    +0.159 HD
ENDROOT
BRANCH  11  16
ATOM     14  O   UNL     1     -33.231  27.779   5.010  0.00  0.00    -0.126 OA
ATOM     15  O   UNL     1     -33.084  26.356   6.676  0.00  0.00    -0.126 OA
ATOM     16  N   UNL     1     -33.620  26.725   5.591  0.00  0.00    +0.065 N 
ENDBRANCH  11  16
TORSDOF 1
ENDMDL
MODEL 3
REMARK VINA RESULT:      -5.1      2.438      3.119
REMARK  Name = 197080
REMARK  1 active torsions:
REMARK  status: ('A' for Active; 'I' for Inactive)
REMARK    1  A    between atoms: C_11  and  N_16
REMARK                            x       y       z     vdW  Elec       q    Type
REMARK                         _______ _______ _______ _____ _____    ______ ____
ROOT
ATOM      1  S   UNL     1     -36.721  24.913   3.690  0.00  0.00    -0.027 S 
ATOM      2  O   UNL     1     -36.132  20.426   2.673  0.00  0.00    -0.252 OA
ATOM      3  O   UNL     1     -40.355  21.692   1.400  0.00  0.00    -0.273 OA
ATOM      4  N   UNL     1     -37.265  22.504   2.814  0.00  0.00    -0.213 N 
ATOM      5  N   UNL     1     -38.310  20.727   1.919  0.00  0.00    -0.238 N 
ATOM      6  N   UNL     1     -35.089  22.910   3.765  0.00  0.00    -0.220 NA
ATOM      7  C   UNL     1     -38.587  22.979   2.437  0.00  0.00    +0.187 C 
ATOM      8  C   UNL     1     -36.301  23.274   3.400  0.00  0.00    +0.172 C 
ATOM      9  C   UNL     1     -37.116  21.131   2.491  0.00  0.00    +0.315 C 
ATOM     10  C   UNL     1     -39.220  21.744   1.851  0.00  0.00    +0.250 C 
ATOM     11  C   UNL     1     -35.165  25.172   4.362  0.00  0.00    +0.194 C 
ATOM     12  C   UNL     1     -34.440  24.000   4.316  0.00  0.00    +0.132 C 
ATOM     13  H   UNL     1     -38.484  19.812   1.599  0.00  0.00    +0.159 HD
ENDROOT
BRANCH  11  16
ATOM     14  O   UNL     1     -34.265  26.536   5.989  0.00  0.00    -0.126 OA
ATOM     15  O   UNL     1     -35.025  27.464   4.149  0.00  0.00    -0.126 OA
ATOM     16  N   UNL     1     -34.806  26.434   4.850  0.00  0.00    +0.065 N 
ENDBRANCH  11  16
TORSDOF 1
ENDMDL
MODEL 4
REMARK VINA RESULT:      -5.0      2.971      6.284
REMARK  Name = 197080
REMARK  1 active torsions:
REMARK  status: ('A' for Active; 'I' for Inactive)
REMARK    1  A    between atoms: C_11  and  N_16
REMARK                            x       y       z     vdW  Elec       q    Type
REMARK                         _______ _______ _______ _____ _____    ______ ____
ROOT
ATOM      1  S   UNL     1     -35.298  22.050   2.562  0.00  0.00    -0.027 S 
ATOM      2  O   UNL     1     -38.984  24.671   3.599  0.00  0.00    -0.252 OA
ATOM      3  O   UNL     1     -35.202  26.748   5.161  0.00  0.00    -0.273 OA
ATOM      4  N   UNL     1     -36.696  24.054   3.512  0.00  0.00    -0.213 N 
ATOM      5  N   UNL     1     -37.291  25.979   4.507  0.00  0.00    -0.238 N 
ATOM      6  N   UNL     1     -37.869  22.267   2.400  0.00  0.00    -0.220 NA
ATOM      7  C   UNL     1     -35.454  24.651   3.979  0.00  0.00    +0.187 C 
ATOM      8  C   UNL     1     -36.784  22.863   2.848  0.00  0.00    +0.172 C 
ATOM      9  C   UNL     1     -37.802  24.877   3.844  0.00  0.00    +0.315 C 
ATOM     10  C   UNL     1     -35.931  25.924   4.627  0.00  0.00    +0.250 C 
ATOM     11  C   UNL     1     -36.162  20.794   1.776  0.00  0.00    +0.194 C 
ATOM     12  C   UNL     1     -37.509  21.083   1.786  0.00  0.00    +0.132 C 
ATOM     13  H   UNL     1     -37.843  26.718   4.853  0.00  0.00    +0.159 HD
ENDROOT
BRANCH  11  16
ATOM     14  O   UNL     1     -36.050  18.953   0.392  0.00  0.00    -0.126 OA
ATOM     15  O   UNL     1     -34.297  19.445   1.620  0.00  0.00    -0.126 OA
ATOM     16  N   UNL     1     -35.479  19.693   1.245  0.00  0.00    +0.065 N 
ENDBRANCH  11  16
TORSDOF 1
ENDMDL
MODEL 5
REMARK VINA RESULT:      -4.9      2.072      2.922
REMARK  Name = 197080
REMARK  1 active torsions:
REMARK  status: ('A' for Active; 'I' for Inactive)
REMARK    1  A    between atoms: C_11  and  N_16
REMARK                            x       y       z     vdW  Elec       q    Type
REMARK                         _______ _______ _______ _____ _____    ______ ____
ROOT
ATOM      1  S   UNL     1     -34.312  26.646   4.123  0.00  0.00    -0.027 S 
ATOM      2  O   UNL     1     -37.442  23.419   2.979  0.00  0.00    -0.252 OA
ATOM      3  O   UNL     1     -34.815  21.797   6.374  0.00  0.00    -0.273 OA
ATOM      4  N   UNL     1     -35.622  24.377   4.159  0.00  0.00    -0.213 N 
ATOM      5  N   UNL     1     -36.313  22.301   4.674  0.00  0.00    -0.238 N 
ATOM      6  N   UNL     1     -36.296  26.060   2.573  0.00  0.00    -0.220 NA
ATOM      7  C   UNL     1     -34.749  23.932   5.235  0.00  0.00    +0.187 C 
ATOM      8  C   UNL     1     -35.542  25.595   3.548  0.00  0.00    +0.172 C 
ATOM      9  C   UNL     1     -36.566  23.370   3.832  0.00  0.00    +0.315 C 
ATOM     10  C   UNL     1     -35.269  22.548   5.522  0.00  0.00    +0.250 C 
ATOM     11  C   UNL     1     -34.814  27.824   2.983  0.00  0.00    +0.194 C 
ATOM     12  C   UNL     1     -35.876  27.338   2.252  0.00  0.00    +0.132 C 
ATOM     13  H   UNL     1     -36.824  21.459   4.664  0.00  0.00    +0.159 HD
ENDROOT
BRANCH  11  16
ATOM     14  O   UNL     1     -34.693  30.085   3.420  0.00  0.00    -0.126 OA
ATOM     15  O   UNL     1     -33.037  29.142   2.330  0.00  0.00    -0.126 OA
ATOM     16  N   UNL     1     -34.159  29.059   2.908  0.00  0.00    +0.065 N 
ENDBRANCH  11  16
TORSDOF 1
ENDMDL
MODEL 6
REMARK VINA RESULT:      -4.9      3.916      4.477
REMARK  Name = 197080
REMARK  1 active torsions:
REMARK  status: ('A' for Active; 'I' for Inactive)
REMARK    1  A    between atoms: C_11  and  N_16
REMARK                            x       y       z     vdW  Elec       q    Type
REMARK                         _______ _______ _______ _____ _____    ______ ____
ROOT
ATOM      1  S   UNL     1     -37.037  25.467   3.583  0.00  0.00    -0.027 S 
ATOM      2  O   UNL     1     -39.358  21.683   2.234  0.00  0.00    -0.252 OA
ATOM      3  O   UNL     1     -41.685  25.404   0.895  0.00  0.00    -0.273 OA
ATOM      4  N   UNL     1     -38.915  23.998   2.495  0.00  0.00    -0.213 N 
ATOM      5  N   UNL     1     -40.774  23.335   1.419  0.00  0.00    -0.238 N 
ATOM      6  N   UNL     1     -37.066  22.882   3.564  0.00  0.00    -0.220 NA
ATOM      7  C   UNL     1     -39.596  25.222   2.104  0.00  0.00    +0.187 C 
ATOM      8  C   UNL     1     -37.734  23.950   3.180  0.00  0.00    +0.172 C 
ATOM      9  C   UNL     1     -39.648  22.860   2.069  0.00  0.00    +0.315 C 
ATOM     10  C   UNL     1     -40.819  24.701   1.395  0.00  0.00    +0.250 C 
ATOM     11  C   UNL     1     -35.735  24.644   4.337  0.00  0.00    +0.194 C 
ATOM     12  C   UNL     1     -35.922  23.283   4.226  0.00  0.00    +0.132 C 
ATOM     13  H   UNL     1     -41.463  22.756   1.019  0.00  0.00    +0.159 HD
ENDROOT
BRANCH  11  16
ATOM     14  O   UNL     1     -33.496  25.023   4.738  0.00  0.00    -0.126 OA
ATOM     15  O   UNL     1     -34.966  26.356   5.678  0.00  0.00    -0.126 OA
ATOM     16  N   UNL     1     -34.697  25.366   4.938  0.00  0.00    +0.065 N 
ENDBRANCH  11  16
TORSDOF 1
ENDMDL
MODEL 7
REMARK VINA RESULT:      -4.8      2.730      5.761
REMARK  Name = 197080
REMARK  1 active torsions:
REMARK  status: ('A' for Active; 'I' for Inactive)
REMARK    1  A    between atoms: C_11  and  N_16
REMARK                            x       y       z     vdW  Elec       q    Type
REMARK                         _______ _______ _______ _____ _____    ______ ____
ROOT
ATOM      1  S   UNL     1     -34.937  24.338   4.523  0.00  0.00    -0.027 S 
ATOM      2  O   UNL     1     -37.444  26.684   1.403  0.00  0.00    -0.252 OA
ATOM      3  O   UNL     1     -34.285  29.497   3.185  0.00  0.00    -0.273 OA
ATOM      4  N   UNL     1     -35.764  26.334   3.040  0.00  0.00    -0.213 N 
ATOM      5  N   UNL     1     -35.984  28.358   2.088  0.00  0.00    -0.238 N 
ATOM      6  N   UNL     1     -36.885  24.212   2.828  0.00  0.00    -0.220 NA
ATOM      7  C   UNL     1     -34.737  27.165   3.650  0.00  0.00    +0.187 C 
ATOM      8  C   UNL     1     -35.978  25.019   3.340  0.00  0.00    +0.172 C 
ATOM      9  C   UNL     1     -36.512  27.078   2.092  0.00  0.00    +0.315 C 
ATOM     10  C   UNL     1     -34.946  28.491   2.968  0.00  0.00    +0.250 C 
ATOM     11  C   UNL     1     -35.754  22.841   4.351  0.00  0.00    +0.194 C 
ATOM     12  C   UNL     1     -36.754  22.965   3.409  0.00  0.00    +0.132 C 
ATOM     13  H   UNL     1     -36.317  29.088   1.517  0.00  0.00    +0.159 HD
ENDROOT
BRANCH  11  16
ATOM     14  O   UNL     1     -35.087  20.641   4.535  0.00  0.00    -0.126 OA
ATOM     15  O   UNL     1     -35.297  21.827   6.371  0.00  0.00    -0.126 OA
ATOM     16  N   UNL     1     -35.366  21.732   5.112  0.00  0.00    +0.065 N 
ENDBRANCH  11  16
TORSDOF 1
ENDMDL
MODEL 8
REMARK VINA RESULT:      -4.8      3.204      6.140
REMARK  Name = 197080
REMARK  1 active torsions:
REMARK  status: ('A' for Active; 'I' for Inactive)
REMARK    1  A    between atoms: C_11  and  N_16
REMARK                            x       y       z     vdW  Elec       q    Type
REMARK                         _______ _______ _______ _____ _____    ______ ____
ROOT
ATOM      1  S   UNL     1     -35.901  22.367   1.261  0.00  0.00    -0.027 S 
ATOM      2  O   UNL     1     -35.188  21.003   5.638  0.00  0.00    -0.252 OA
ATOM      3  O   UNL     1     -36.141  25.491   5.622  0.00  0.00    -0.273 OA
ATOM      4  N   UNL     1     -35.677  22.504   3.869  0.00  0.00    -0.213 N 
ATOM      5  N   UNL     1     -35.632  23.257   5.986  0.00  0.00    -0.238 N 
ATOM      6  N   UNL     1     -35.327  20.372   2.802  0.00  0.00    -0.220 NA
ATOM      7  C   UNL     1     -35.986  23.923   3.784  0.00  0.00    +0.187 C 
ATOM      8  C   UNL     1     -35.600  21.660   2.798  0.00  0.00    +0.172 C 
ATOM      9  C   UNL     1     -35.464  22.118   5.217  0.00  0.00    +0.315 C 
ATOM     10  C   UNL     1     -35.937  24.352   5.227  0.00  0.00    +0.250 C 
ATOM     11  C   UNL     1     -35.646  20.836   0.531  0.00  0.00    +0.194 C 
ATOM     12  C   UNL     1     -35.354  19.903   1.503  0.00  0.00    +0.132 C 
ATOM     13  H   UNL     1     -35.541  23.276   6.967  0.00  0.00    +0.159 HD
ENDROOT
BRANCH  11  16
ATOM     14  O   UNL     1     -35.787  21.716  -1.596  0.00  0.00    -0.126 OA
ATOM     15  O   UNL     1     -35.802  19.533  -1.365  0.00  0.00    -0.126 OA
ATOM     16  N   UNL     1     -35.749  20.690  -0.857  0.00  0.00    +0.065 N 
ENDBRANCH  11  16
TORSDOF 1
ENDMDL
MODEL 9
REMARK VINA RESULT:      -4.7      3.787      5.858
REMARK  Name = 197080
REMARK  1 active torsions:
REMARK  status: ('A' for Active; 'I' for Inactive)
REMARK    1  A    between atoms: C_11  and  N_16
REMARK                            x       y       z     vdW  Elec       q    Type
REMARK                         _______ _______ _______ _____ _____    ______ ____
ROOT
ATOM      1  S   UNL     1     -37.970  26.086   2.522  0.00  0.00    -0.027 S 
ATOM      2  O   UNL     1     -36.150  22.907   5.368  0.00  0.00    -0.252 OA
ATOM      3  O   UNL     1     -33.785  26.815   5.806  0.00  0.00    -0.273 OA
ATOM      4  N   UNL     1     -36.383  25.017   4.312  0.00  0.00    -0.213 N 
ATOM      5  N   UNL     1     -34.755  24.707   5.831  0.00  0.00    -0.238 N 
ATOM      6  N   UNL     1     -38.129  23.650   3.371  0.00  0.00    -0.220 NA
ATOM      7  C   UNL     1     -35.681  26.289   4.396  0.00  0.00    +0.187 C 
ATOM      8  C   UNL     1     -37.451  24.771   3.497  0.00  0.00    +0.172 C 
ATOM      9  C   UNL     1     -35.804  24.067   5.193  0.00  0.00    +0.315 C 
ATOM     10  C   UNL     1     -34.617  26.004   5.423  0.00  0.00    +0.250 C 
ATOM     11  C   UNL     1     -39.203  25.088   1.870  0.00  0.00    +0.194 C 
ATOM     12  C   UNL     1     -39.133  23.835   2.439  0.00  0.00    +0.132 C 
ATOM     13  H   UNL     1     -34.175  24.277   6.501  0.00  0.00    +0.159 HD
ENDROOT
BRANCH  11  16
ATOM     14  O   UNL     1     -41.232  25.071   0.773  0.00  0.00    -0.126 OA
ATOM     15  O   UNL     1     -39.737  26.568   0.184  0.00  0.00    -0.126 OA
ATOM     16  N   UNL     1     -40.087  25.593   0.910  0.00  0.00    +0.065 N 
ENDBRANCH  11  16
TORSDOF 1
ENDMDL
