MODEL 1
REMARK VINA RESULT:      -8.1      0.000      0.000
REMARK  Name = 53297396
REMARK  6 active torsions:
REMARK  status: ('A' for Active; 'I' for Inactive)
REMARK    1  A    between atoms: C_3  and  O_22
REMARK    2  A    between atoms: C_11  and  O_26
REMARK    3  A    between atoms: C_15  and  O_24
REMARK    4  A    between atoms: O_26  and  C_32
REMARK    5  A    between atoms: C_28  and  O_34
REMARK    6  A    between atoms: C_29  and  O_36
REMARK                            x       y       z     vdW  Elec       q    Type
REMARK                         _______ _______ _______ _____ _____    ______ ____
ROOT
ATOM      1  O   UNL     1     -34.617  24.663   1.302  0.00  0.00    -0.287 OA
ATOM      2  O   UNL     1     -34.189  26.306   6.328  0.00  0.00    -0.287 OA
ATOM      3  C   UNL     1     -33.270  27.113   1.611  0.00  0.00    +0.140 C 
ATOM      4  C   UNL     1     -33.702  26.275   2.793  0.00  0.00    +0.047 C 
ATOM      5  C   UNL     1     -33.512  26.673   4.067  0.00  0.00    +0.043 C 
ATOM      6  C   UNL     1     -33.243  28.610   1.929  0.00  0.00    +0.060 C 
ATOM      7  C   UNL     1     -32.738  27.926   4.308  0.00  0.00    +0.033 C 
ATOM      8  C   UNL     1     -32.610  28.874   3.271  0.00  0.00    -0.017 C 
ATOM      9  C   UNL     1     -34.767  24.103   3.570  0.00  0.00    +0.076 C 
ATOM     10  C   UNL     1     -34.389  24.992   2.461  0.00  0.00    +0.197 C 
ATOM     11  C   UNL     1     -35.284  22.831   3.296  0.00  0.00    +0.144 C 
ATOM     12  C   UNL     1     -34.620  24.526   4.887  0.00  0.00    +0.045 C 
ATOM     13  C   UNL     1     -34.098  25.871   5.186  0.00  0.00    +0.196 C 
ATOM     14  C   UNL     1     -31.918  30.076   3.486  0.00  0.00    -0.008 C 
ATOM     15  C   UNL     1     -32.093  28.191   5.525  0.00  0.00    +0.133 C 
ATOM     16  C   UNL     1     -35.649  21.986   4.344  0.00  0.00    +0.037 C 
ATOM     17  C   UNL     1     -34.993  23.677   5.937  0.00  0.00    +0.003 C 
ATOM     18  C   UNL     1     -31.311  30.328   4.712  0.00  0.00    -0.019 C 
ATOM     19  C   UNL     1     -31.390  29.382   5.727  0.00  0.00    +0.032 C 
ATOM     20  C   UNL     1     -35.503  22.408   5.663  0.00  0.00    +0.003 C 
ATOM     21  C   UNL     1     -30.565  31.601   4.930  0.00  0.00    +0.031 C 
ENDROOT
BRANCH   3  22
ATOM     22  O   UNL     1     -31.973  26.700   1.183  0.00  0.00    -0.380 OA
ATOM     23  H   UNL     1     -31.655  27.300   0.490  0.00  0.00    +0.211 HD
ENDBRANCH   3  22
BRANCH  15  24
ATOM     24  O   UNL     1     -31.978  27.272   6.529  0.00  0.00    -0.506 OA
ATOM     25  H   UNL     1     -32.722  27.059   7.057  0.00  0.00    +0.292 HD
ENDBRANCH  15  24
BRANCH  11  26
ATOM     26  O   UNL     1     -35.445  22.356   2.028  0.00  0.00    -0.452 OA
BRANCH  26  32
ATOM     27  O   UNL     1     -34.057  20.565   1.439  0.00  0.00    -0.320 OA
ATOM     28  C   UNL     1     -36.313  19.056   0.490  0.00  0.00    +0.146 C 
ATOM     29  C   UNL     1     -34.871  18.633   0.200  0.00  0.00    +0.164 C 
ATOM     30  C   UNL     1     -36.383  20.551   0.785  0.00  0.00    +0.108 C 
ATOM     31  C   UNL     1     -33.920  19.149   1.288  0.00  0.00    +0.148 C 
ATOM     32  C   UNL     1     -35.369  20.946   1.852  0.00  0.00    +0.290 C 
ATOM     33  C   UNL     1     -32.463  18.860   0.943  0.00  0.00    +0.035 C 
BRANCH  28  34
ATOM     34  O   UNL     1     -37.120  18.758  -0.646  0.00  0.00    -0.382 OA
ATOM     35  H   UNL     1     -37.175  17.796  -0.760  0.00  0.00    +0.210 HD
ENDBRANCH  28  34
BRANCH  29  36
ATOM     36  O   UNL     1     -34.801  17.212   0.120  0.00  0.00    -0.380 OA
ATOM     37  H   UNL     1     -34.069  16.893   0.672  0.00  0.00    +0.211 HD
ENDBRANCH  29  36
ENDBRANCH  26  32
ENDBRANCH  11  26
TORSDOF 6
ENDMDL
MODEL 2
REMARK VINA RESULT:      -8.1      1.853      2.649
REMARK  Name = 53297396
REMARK  6 active torsions:
REMARK  status: ('A' for Active; 'I' for Inactive)
REMARK    1  A    between atoms: C_3  and  O_22
REMARK    2  A    between atoms: C_11  and  O_26
REMARK    3  A    between atoms: C_15  and  O_24
REMARK    4  A    between atoms: O_26  and  C_32
REMARK    5  A    between atoms: C_28  and  O_34
REMARK    6  A    between atoms: C_29  and  O_36
REMARK                            x       y       z     vdW  Elec       q    Type
REMARK                         _______ _______ _______ _____ _____    ______ ____
ROOT
ATOM      1  O   UNL     1     -35.205  24.638   1.362  0.00  0.00    -0.287 OA
ATOM      2  O   UNL     1     -34.119  26.047   6.360  0.00  0.00    -0.287 OA
ATOM      3  C   UNL     1     -33.965  27.149   1.616  0.00  0.00    +0.140 C 
ATOM      4  C   UNL     1     -34.168  26.227   2.796  0.00  0.00    +0.047 C 
ATOM      5  C   UNL     1     -33.810  26.571   4.050  0.00  0.00    +0.043 C 
ATOM      6  C   UNL     1     -33.973  28.627   2.015  0.00  0.00    +0.060 C 
ATOM      7  C   UNL     1     -33.080  27.856   4.248  0.00  0.00    +0.033 C 
ATOM      8  C   UNL     1     -33.161  28.862   3.262  0.00  0.00    -0.017 C 
ATOM      9  C   UNL     1     -34.982  23.955   3.590  0.00  0.00    +0.076 C 
ATOM     10  C   UNL     1     -34.825  24.921   2.493  0.00  0.00    +0.197 C 
ATOM     11  C   UNL     1     -35.463  22.668   3.320  0.00  0.00    +0.144 C 
ATOM     12  C   UNL     1     -34.662  24.319   4.895  0.00  0.00    +0.045 C 
ATOM     13  C   UNL     1     -34.177  25.677   5.193  0.00  0.00    +0.196 C 
ATOM     14  C   UNL     1     -32.513  30.093   3.444  0.00  0.00    -0.008 C 
ATOM     15  C   UNL     1     -32.274  28.100   5.372  0.00  0.00    +0.133 C 
ATOM     16  C   UNL     1     -35.619  21.749   4.358  0.00  0.00    +0.037 C 
ATOM     17  C   UNL     1     -34.826  23.396   5.935  0.00  0.00    +0.003 C 
ATOM     18  C   UNL     1     -31.743  30.321   4.581  0.00  0.00    -0.019 C 
ATOM     19  C   UNL     1     -31.616  29.322   5.539  0.00  0.00    +0.032 C 
ATOM     20  C   UNL     1     -35.301  22.113   5.664  0.00  0.00    +0.003 C 
ATOM     21  C   UNL     1     -31.044  31.626   4.762  0.00  0.00    +0.031 C 
ENDROOT
BRANCH   3  22
ATOM     22  O   UNL     1     -32.726  26.842   0.978  0.00  0.00    -0.380 OA
ATOM     23  H   UNL     1     -32.859  26.795   0.018  0.00  0.00    +0.211 HD
ENDBRANCH   3  22
BRANCH  15  24
ATOM     24  O   UNL     1     -31.960  27.140   6.291  0.00  0.00    -0.506 OA
ATOM     25  H   UNL     1     -31.101  26.768   6.305  0.00  0.00    +0.292 HD
ENDBRANCH  15  24
BRANCH  11  26
ATOM     26  O   UNL     1     -35.786  22.249   2.063  0.00  0.00    -0.452 OA
BRANCH  26  32
ATOM     27  O   UNL     1     -37.195  21.123   0.569  0.00  0.00    -0.320 OA
ATOM     28  C   UNL     1     -39.524  22.137   1.914  0.00  0.00    +0.146 C 
ATOM     29  C   UNL     1     -39.608  21.450   0.550  0.00  0.00    +0.164 C 
ATOM     30  C   UNL     1     -38.126  22.700   2.146  0.00  0.00    +0.108 C 
ATOM     31  C   UNL     1     -38.447  20.463   0.362  0.00  0.00    +0.148 C 
ATOM     32  C   UNL     1     -37.061  21.639   1.893  0.00  0.00    +0.290 C 
ATOM     33  C   UNL     1     -38.432  19.875  -1.045  0.00  0.00    +0.035 C 
BRANCH  28  34
ATOM     34  O   UNL     1     -40.476  23.198   1.958  0.00  0.00    -0.382 OA
ATOM     35  H   UNL     1     -41.218  22.990   1.368  0.00  0.00    +0.210 HD
ENDBRANCH  28  34
BRANCH  29  36
ATOM     36  O   UNL     1     -40.854  20.768   0.439  0.00  0.00    -0.380 OA
ATOM     37  H   UNL     1     -40.694  19.833   0.233  0.00  0.00    +0.211 HD
ENDBRANCH  29  36
ENDBRANCH  26  32
ENDBRANCH  11  26
TORSDOF 6
ENDMDL
MODEL 3
REMARK VINA RESULT:      -7.4      2.098      2.640
REMARK  Name = 53297396
REMARK  6 active torsions:
REMARK  status: ('A' for Active; 'I' for Inactive)
REMARK    1  A    between atoms: C_3  and  O_22
REMARK    2  A    between atoms: C_11  and  O_26
REMARK    3  A    between atoms: C_15  and  O_24
REMARK    4  A    between atoms: O_26  and  C_32
REMARK    5  A    between atoms: C_28  and  O_34
REMARK    6  A    between atoms: C_29  and  O_36
REMARK                            x       y       z     vdW  Elec       q    Type
REMARK                         _______ _______ _______ _____ _____    ______ ____
ROOT
ATOM      1  O   UNL     1     -37.048  26.338   2.229  0.00  0.00    -0.287 OA
ATOM      2  O   UNL     1     -33.034  26.631   5.686  0.00  0.00    -0.287 OA
ATOM      3  C   UNL     1     -35.539  28.705   2.057  0.00  0.00    +0.140 C 
ATOM      4  C   UNL     1     -35.143  27.560   2.961  0.00  0.00    +0.047 C 
ATOM      5  C   UNL     1     -34.070  27.622   3.775  0.00  0.00    +0.043 C 
ATOM      6  C   UNL     1     -35.091  30.065   2.598  0.00  0.00    +0.060 C 
ATOM      7  C   UNL     1     -33.181  28.816   3.683  0.00  0.00    +0.033 C 
ATOM      8  C   UNL     1     -33.676  30.009   3.115  0.00  0.00    -0.017 C 
ATOM      9  C   UNL     1     -35.661  25.194   3.729  0.00  0.00    +0.076 C 
ATOM     10  C   UNL     1     -36.038  26.366   2.925  0.00  0.00    +0.197 C 
ATOM     11  C   UNL     1     -36.394  24.007   3.614  0.00  0.00    +0.144 C 
ATOM     12  C   UNL     1     -34.585  25.266   4.609  0.00  0.00    +0.045 C 
ATOM     13  C   UNL     1     -33.821  26.517   4.754  0.00  0.00    +0.196 C 
ATOM     14  C   UNL     1     -32.871  31.156   3.051  0.00  0.00    -0.008 C 
ATOM     15  C   UNL     1     -31.844  28.797   4.108  0.00  0.00    +0.133 C 
ATOM     16  C   UNL     1     -36.044  22.894   4.380  0.00  0.00    +0.037 C 
ATOM     17  C   UNL     1     -34.240  24.149   5.380  0.00  0.00    +0.003 C 
ATOM     18  C   UNL     1     -31.556  31.119   3.507  0.00  0.00    -0.019 C 
ATOM     19  C   UNL     1     -31.041  29.937   4.025  0.00  0.00    +0.032 C 
ATOM     20  C   UNL     1     -34.968  22.965   5.261  0.00  0.00    +0.003 C 
ATOM     21  C   UNL     1     -30.700  32.337   3.422  0.00  0.00    +0.031 C 
ENDROOT
BRANCH   3  22
ATOM     22  O   UNL     1     -34.975  28.506   0.761  0.00  0.00    -0.380 OA
ATOM     23  H   UNL     1     -34.010  28.436   0.836  0.00  0.00    +0.211 HD
ENDBRANCH   3  22
BRANCH  15  24
ATOM     24  O   UNL     1     -31.196  27.656   4.489  0.00  0.00    -0.506 OA
ATOM     25  H   UNL     1     -30.452  27.355   4.006  0.00  0.00    +0.292 HD
ENDBRANCH  15  24
BRANCH  11  26
ATOM     26  O   UNL     1     -37.452  23.871   2.766  0.00  0.00    -0.452 OA
BRANCH  26  32
ATOM     27  O   UNL     1     -36.947  22.229   1.174  0.00  0.00    -0.320 OA
ATOM     28  C   UNL     1     -39.605  21.149   1.364  0.00  0.00    +0.146 C 
ATOM     29  C   UNL     1     -38.639  20.742   0.249  0.00  0.00    +0.164 C 
ATOM     30  C   UNL     1     -39.225  22.513   1.930  0.00  0.00    +0.108 C 
ATOM     31  C   UNL     1     -37.181  20.899   0.703  0.00  0.00    +0.148 C 
ATOM     32  C   UNL     1     -37.750  22.556   2.309  0.00  0.00    +0.290 C 
ATOM     33  C   UNL     1     -36.206  20.635  -0.439  0.00  0.00    +0.035 C 
BRANCH  28  34
ATOM     34  O   UNL     1     -40.926  21.206   0.834  0.00  0.00    -0.382 OA
ATOM     35  H   UNL     1     -41.455  20.481   1.204  0.00  0.00    +0.210 HD
ENDBRANCH  28  34
BRANCH  29  36
ATOM     36  O   UNL     1     -38.893  19.392  -0.128  0.00  0.00    -0.380 OA
ATOM     37  H   UNL     1     -39.301  18.919   0.615  0.00  0.00    +0.211 HD
ENDBRANCH  29  36
ENDBRANCH  26  32
ENDBRANCH  11  26
TORSDOF 6
ENDMDL
MODEL 4
REMARK VINA RESULT:      -7.4      4.943      9.758
REMARK  Name = 53297396
REMARK  6 active torsions:
REMARK  status: ('A' for Active; 'I' for Inactive)
REMARK    1  A    between atoms: C_3  and  O_22
REMARK    2  A    between atoms: C_11  and  O_26
REMARK    3  A    between atoms: C_15  and  O_24
REMARK    4  A    between atoms: O_26  and  C_32
REMARK    5  A    between atoms: C_28  and  O_34
REMARK    6  A    between atoms: C_29  and  O_36
REMARK                            x       y       z     vdW  Elec       q    Type
REMARK                         _______ _______ _______ _____ _____    ______ ____
ROOT
ATOM      1  O   UNL     1     -37.084  28.873   1.057  0.00  0.00    -0.287 OA
ATOM      2  O   UNL     1     -32.863  27.542   3.981  0.00  0.00    -0.287 OA
ATOM      3  C   UNL     1     -37.218  26.299   2.183  0.00  0.00    +0.140 C 
ATOM      4  C   UNL     1     -36.102  27.266   2.509  0.00  0.00    +0.047 C 
ATOM      5  C   UNL     1     -35.077  26.936   3.320  0.00  0.00    +0.043 C 
ATOM      6  C   UNL     1     -36.775  24.837   2.270  0.00  0.00    +0.060 C 
ATOM      7  C   UNL     1     -35.120  25.615   4.012  0.00  0.00    +0.033 C 
ATOM      8  C   UNL     1     -35.941  24.589   3.500  0.00  0.00    -0.017 C 
ATOM      9  C   UNL     1     -35.164  29.604   2.179  0.00  0.00    +0.076 C 
ATOM     10  C   UNL     1     -36.184  28.599   1.843  0.00  0.00    +0.197 C 
ATOM     11  C   UNL     1     -35.286  30.909   1.688  0.00  0.00    +0.144 C 
ATOM     12  C   UNL     1     -34.077  29.258   2.976  0.00  0.00    +0.045 C 
ATOM     13  C   UNL     1     -33.928  27.882   3.480  0.00  0.00    +0.196 C 
ATOM     14  C   UNL     1     -35.970  23.326   4.113  0.00  0.00    -0.008 C 
ATOM     15  C   UNL     1     -34.397  25.355   5.187  0.00  0.00    +0.133 C 
ATOM     16  C   UNL     1     -34.318  31.865   1.998  0.00  0.00    +0.037 C 
ATOM     17  C   UNL     1     -33.105  30.218   3.281  0.00  0.00    +0.003 C 
ATOM     18  C   UNL     1     -35.221  23.084   5.261  0.00  0.00    -0.019 C 
ATOM     19  C   UNL     1     -34.444  24.101   5.802  0.00  0.00    +0.032 C 
ATOM     20  C   UNL     1     -33.229  31.520   2.795  0.00  0.00    +0.003 C 
ATOM     21  C   UNL     1     -35.267  21.746   5.916  0.00  0.00    +0.031 C 
ENDROOT
BRANCH   3  22
ATOM     22  O   UNL     1     -38.309  26.513   3.078  0.00  0.00    -0.380 OA
ATOM     23  H   UNL     1     -38.013  26.364   3.990  0.00  0.00    +0.211 HD
ENDBRANCH   3  22
BRANCH  15  24
ATOM     24  O   UNL     1     -33.727  26.320   5.883  0.00  0.00    -0.506 OA
ATOM     25  H   UNL     1     -33.467  27.112   5.456  0.00  0.00    +0.292 HD
ENDBRANCH  15  24
BRANCH  11  26
ATOM     26  O   UNL     1     -36.330  31.312   0.909  0.00  0.00    -0.452 OA
BRANCH  26  32
ATOM     27  O   UNL     1     -37.579  33.180   1.566  0.00  0.00    -0.320 OA
ATOM     28  C   UNL     1     -37.107  34.455  -0.967  0.00  0.00    +0.146 C 
ATOM     29  C   UNL     1     -38.145  34.980   0.026  0.00  0.00    +0.164 C 
ATOM     30  C   UNL     1     -36.833  32.975  -0.723  0.00  0.00    +0.108 C 
ATOM     31  C   UNL     1     -37.771  34.594   1.464  0.00  0.00    +0.148 C 
ATOM     32  C   UNL     1     -36.510  32.714   0.743  0.00  0.00    +0.290 C 
ATOM     33  C   UNL     1     -38.865  34.984   2.453  0.00  0.00    +0.035 C 
BRANCH  28  34
ATOM     34  O   UNL     1     -37.602  34.634  -2.292  0.00  0.00    -0.382 OA
ATOM     35  H   UNL     1     -38.482  34.232  -2.365  0.00  0.00    +0.210 HD
ENDBRANCH  28  34
BRANCH  29  36
ATOM     36  O   UNL     1     -38.241  36.397  -0.092  0.00  0.00    -0.380 OA
ATOM     37  H   UNL     1     -37.421  36.746  -0.476  0.00  0.00    +0.211 HD
ENDBRANCH  29  36
ENDBRANCH  26  32
ENDBRANCH  11  26
TORSDOF 6
ENDMDL
MODEL 5
REMARK VINA RESULT:      -7.3      1.749      2.154
REMARK  Name = 53297396
REMARK  6 active torsions:
REMARK  status: ('A' for Active; 'I' for Inactive)
REMARK    1  A    between atoms: C_3  and  O_22
REMARK    2  A    between atoms: C_11  and  O_26
REMARK    3  A    between atoms: C_15  and  O_24
REMARK    4  A    between atoms: O_26  and  C_32
REMARK    5  A    between atoms: C_28  and  O_34
REMARK    6  A    between atoms: C_29  and  O_36
REMARK                            x       y       z     vdW  Elec       q    Type
REMARK                         _______ _______ _______ _____ _____    ______ ____
ROOT
ATOM      1  O   UNL     1     -36.911  24.118   1.401  0.00  0.00    -0.287 OA
ATOM      2  O   UNL     1     -34.624  26.645   5.466  0.00  0.00    -0.287 OA
ATOM      3  C   UNL     1     -36.350  26.831   0.913  0.00  0.00    +0.140 C 
ATOM      4  C   UNL     1     -35.902  26.128   2.175  0.00  0.00    +0.047 C 
ATOM      5  C   UNL     1     -35.249  26.770   3.164  0.00  0.00    +0.043 C 
ATOM      6  C   UNL     1     -36.605  28.324   1.129  0.00  0.00    +0.060 C 
ATOM      7  C   UNL     1     -34.851  28.191   2.943  0.00  0.00    +0.033 C 
ATOM      8  C   UNL     1     -35.513  28.952   1.956  0.00  0.00    -0.017 C 
ATOM      9  C   UNL     1     -35.790  23.932   3.448  0.00  0.00    +0.076 C 
ATOM     10  C   UNL     1     -36.263  24.683   2.275  0.00  0.00    +0.197 C 
ATOM     11  C   UNL     1     -35.985  22.547   3.511  0.00  0.00    +0.144 C 
ATOM     12  C   UNL     1     -35.159  24.596   4.496  0.00  0.00    +0.045 C 
ATOM     13  C   UNL     1     -34.970  26.056   4.449  0.00  0.00    +0.196 C 
ATOM     14  C   UNL     1     -35.181  30.301   1.755  0.00  0.00    -0.008 C 
ATOM     15  C   UNL     1     -33.809  28.803   3.657  0.00  0.00    +0.133 C 
ATOM     16  C   UNL     1     -35.544  21.831   4.624  0.00  0.00    +0.037 C 
ATOM     17  C   UNL     1     -34.723  23.874   5.614  0.00  0.00    +0.003 C 
ATOM     18  C   UNL     1     -34.163  30.893   2.497  0.00  0.00    -0.019 C 
ATOM     19  C   UNL     1     -33.472  30.142   3.440  0.00  0.00    +0.032 C 
ATOM     20  C   UNL     1     -34.913  22.494   5.674  0.00  0.00    +0.003 C 
ATOM     21  C   UNL     1     -33.805  32.322   2.269  0.00  0.00    +0.031 C 
ENDROOT
BRANCH   3  22
ATOM     22  O   UNL     1     -35.359  26.665  -0.101  0.00  0.00    -0.380 OA
ATOM     23  H   UNL     1     -34.589  26.207   0.271  0.00  0.00    +0.211 HD
ENDBRANCH   3  22
BRANCH  15  24
ATOM     24  O   UNL     1     -32.970  28.120   4.490  0.00  0.00    -0.506 OA
ATOM     25  H   UNL     1     -32.117  27.871   4.196  0.00  0.00    +0.292 HD
ENDBRANCH  15  24
BRANCH  11  26
ATOM     26  O   UNL     1     -36.589  21.839   2.515  0.00  0.00    -0.452 OA
BRANCH  26  32
ATOM     27  O   UNL     1     -34.686  21.089   1.375  0.00  0.00    -0.320 OA
ATOM     28  C   UNL     1     -36.108  18.787   0.404  0.00  0.00    +0.146 C 
ATOM     29  C   UNL     1     -34.740  19.191  -0.149  0.00  0.00    +0.164 C 
ATOM     30  C   UNL     1     -36.809  19.988   1.029  0.00  0.00    +0.108 C 
ATOM     31  C   UNL     1     -33.933  19.969   0.899  0.00  0.00    +0.148 C 
ATOM     32  C   UNL     1     -35.897  20.697   2.022  0.00  0.00    +0.290 C 
ATOM     33  C   UNL     1     -32.628  20.503   0.320  0.00  0.00    +0.035 C 
BRANCH  28  34
ATOM     34  O   UNL     1     -36.904  18.273  -0.660  0.00  0.00    -0.382 OA
ATOM     35  H   UNL     1     -36.664  17.347  -0.826  0.00  0.00    +0.210 HD
ENDBRANCH  28  34
BRANCH  29  36
ATOM     36  O   UNL     1     -34.027  18.024  -0.550  0.00  0.00    -0.380 OA
ATOM     37  H   UNL     1     -33.100  18.255  -0.724  0.00  0.00    +0.211 HD
ENDBRANCH  29  36
ENDBRANCH  26  32
ENDBRANCH  11  26
TORSDOF 6
ENDMDL
MODEL 6
REMARK VINA RESULT:      -7.1      2.920      5.280
REMARK  Name = 53297396
REMARK  6 active torsions:
REMARK  status: ('A' for Active; 'I' for Inactive)
REMARK    1  A    between atoms: C_3  and  O_22
REMARK    2  A    between atoms: C_11  and  O_26
REMARK    3  A    between atoms: C_15  and  O_24
REMARK    4  A    between atoms: O_26  and  C_32
REMARK    5  A    between atoms: C_28  and  O_34
REMARK    6  A    between atoms: C_29  and  O_36
REMARK                            x       y       z     vdW  Elec       q    Type
REMARK                         _______ _______ _______ _____ _____    ______ ____
ROOT
ATOM      1  O   UNL     1     -33.196  27.745   4.502  0.00  0.00    -0.287 OA
ATOM      2  O   UNL     1     -34.848  31.033   0.679  0.00  0.00    -0.287 OA
ATOM      3  C   UNL     1     -31.959  30.271   4.528  0.00  0.00    +0.140 C 
ATOM      4  C   UNL     1     -33.099  29.941   3.592  0.00  0.00    +0.047 C 
ATOM      5  C   UNL     1     -33.559  30.820   2.679  0.00  0.00    +0.043 C 
ATOM      6  C   UNL     1     -31.001  31.313   3.947  0.00  0.00    +0.060 C 
ATOM      7  C   UNL     1     -33.001  32.203   2.686  0.00  0.00    +0.033 C 
ATOM      8  C   UNL     1     -31.753  32.446   3.298  0.00  0.00    -0.017 C 
ATOM      9  C   UNL     1     -34.816  28.211   2.877  0.00  0.00    +0.076 C 
ATOM     10  C   UNL     1     -33.659  28.563   3.714  0.00  0.00    +0.197 C 
ATOM     11  C   UNL     1     -35.460  26.981   3.062  0.00  0.00    +0.144 C 
ATOM     12  C   UNL     1     -35.267  29.092   1.899  0.00  0.00    +0.045 C 
ATOM     13  C   UNL     1     -34.584  30.379   1.682  0.00  0.00    +0.196 C 
ATOM     14  C   UNL     1     -31.191  33.732   3.284  0.00  0.00    -0.008 C 
ATOM     15  C   UNL     1     -33.688  33.297   2.136  0.00  0.00    +0.133 C 
ATOM     16  C   UNL     1     -36.554  26.639   2.268  0.00  0.00    +0.037 C 
ATOM     17  C   UNL     1     -36.363  28.744   1.100  0.00  0.00    +0.003 C 
ATOM     18  C   UNL     1     -31.879  34.795   2.706  0.00  0.00    -0.019 C 
ATOM     19  C   UNL     1     -33.131  34.578   2.141  0.00  0.00    +0.032 C 
ATOM     20  C   UNL     1     -37.005  27.520   1.288  0.00  0.00    +0.003 C 
ATOM     21  C   UNL     1     -31.284  36.162   2.708  0.00  0.00    +0.031 C 
ENDROOT
BRANCH   3  22
ATOM     22  O   UNL     1     -32.483  30.753   5.765  0.00  0.00    -0.380 OA
ATOM     23  H   UNL     1     -33.303  30.279   5.975  0.00  0.00    +0.211 HD
ENDBRANCH   3  22
BRANCH  15  24
ATOM     24  O   UNL     1     -34.979  33.226   1.696  0.00  0.00    -0.506 OA
ATOM     25  H   UNL     1     -35.642  32.859   2.246  0.00  0.00    +0.292 HD
ENDBRANCH  15  24
BRANCH  11  26
ATOM     26  O   UNL     1     -35.071  26.078   4.007  0.00  0.00    -0.452 OA
BRANCH  26  32
ATOM     27  O   UNL     1     -35.280  23.996   5.058  0.00  0.00    -0.320 OA
ATOM     28  C   UNL     1     -35.389  22.661   2.515  0.00  0.00    +0.146 C 
ATOM     29  C   UNL     1     -35.201  21.897   3.827  0.00  0.00    +0.164 C 
ATOM     30  C   UNL     1     -34.938  24.109   2.669  0.00  0.00    +0.108 C 
ATOM     31  C   UNL     1     -35.813  22.670   5.003  0.00  0.00    +0.148 C 
ATOM     32  C   UNL     1     -35.584  24.756   3.888  0.00  0.00    +0.290 C 
ATOM     33  C   UNL     1     -35.511  21.995   6.337  0.00  0.00    +0.035 C 
BRANCH  28  34
ATOM     34  O   UNL     1     -34.617  22.029   1.497  0.00  0.00    -0.382 OA
ATOM     35  H   UNL     1     -33.705  22.359   1.532  0.00  0.00    +0.210 HD
ENDBRANCH  28  34
BRANCH  29  36
ATOM     36  O   UNL     1     -35.805  20.611   3.718  0.00  0.00    -0.380 OA
ATOM     37  H   UNL     1     -35.113  19.931   3.684  0.00  0.00    +0.211 HD
ENDBRANCH  29  36
ENDBRANCH  26  32
ENDBRANCH  11  26
TORSDOF 6
ENDMDL
MODEL 7
REMARK VINA RESULT:      -7.1      3.489      4.574
REMARK  Name = 53297396
REMARK  6 active torsions:
REMARK  status: ('A' for Active; 'I' for Inactive)
REMARK    1  A    between atoms: C_3  and  O_22
REMARK    2  A    between atoms: C_11  and  O_26
REMARK    3  A    between atoms: C_15  and  O_24
REMARK    4  A    between atoms: O_26  and  C_32
REMARK    5  A    between atoms: C_28  and  O_34
REMARK    6  A    between atoms: C_29  and  O_36
REMARK                            x       y       z     vdW  Elec       q    Type
REMARK                         _______ _______ _______ _____ _____    ______ ____
ROOT
ATOM      1  O   UNL     1     -35.038  27.490   2.040  0.00  0.00    -0.287 OA
ATOM      2  O   UNL     1     -32.751  27.056   6.807  0.00  0.00    -0.287 OA
ATOM      3  C   UNL     1     -33.000  29.367   2.524  0.00  0.00    +0.140 C 
ATOM      4  C   UNL     1     -33.309  28.244   3.489  0.00  0.00    +0.047 C 
ATOM      5  C   UNL     1     -32.660  28.103   4.662  0.00  0.00    +0.043 C 
ATOM      6  C   UNL     1     -32.445  30.610   3.224  0.00  0.00    +0.060 C 
ATOM      7  C   UNL     1     -31.517  29.016   4.951  0.00  0.00    +0.033 C 
ATOM      8  C   UNL     1     -31.412  30.240   4.257  0.00  0.00    -0.017 C 
ATOM      9  C   UNL     1     -34.703  26.169   3.944  0.00  0.00    +0.076 C 
ATOM     10  C   UNL     1     -34.408  27.321   3.078  0.00  0.00    +0.197 C 
ATOM     11  C   UNL     1     -35.626  25.204   3.525  0.00  0.00    +0.144 C 
ATOM     12  C   UNL     1     -34.074  26.043   5.178  0.00  0.00    +0.045 C 
ATOM     13  C   UNL     1     -33.117  27.064   5.637  0.00  0.00    +0.196 C 
ATOM     14  C   UNL     1     -30.366  31.132   4.539  0.00  0.00    -0.008 C 
ATOM     15  C   UNL     1     -30.506  28.693   5.870  0.00  0.00    +0.133 C 
ATOM     16  C   UNL     1     -35.914  24.113   4.345  0.00  0.00    +0.037 C 
ATOM     17  C   UNL     1     -34.369  24.948   6.001  0.00  0.00    +0.003 C 
ATOM     18  C   UNL     1     -29.392  30.800   5.477  0.00  0.00    -0.019 C 
ATOM     19  C   UNL     1     -29.457  29.578   6.134  0.00  0.00    +0.032 C 
ATOM     20  C   UNL     1     -35.286  23.985   5.581  0.00  0.00    +0.003 C 
ATOM     21  C   UNL     1     -28.274  31.745   5.761  0.00  0.00    +0.031 C 
ENDROOT
BRANCH   3  22
ATOM     22  O   UNL     1     -32.057  28.914   1.553  0.00  0.00    -0.380 OA
ATOM     23  H   UNL     1     -31.949  27.953   1.632  0.00  0.00    +0.211 HD
ENDBRANCH   3  22
BRANCH  15  24
ATOM     24  O   UNL     1     -30.391  27.463   6.454  0.00  0.00    -0.506 OA
ATOM     25  H   UNL     1     -30.718  27.323   7.321  0.00  0.00    +0.292 HD
ENDBRANCH  15  24
BRANCH  11  26
ATOM     26  O   UNL     1     -36.270  25.268   2.325  0.00  0.00    -0.452 OA
BRANCH  26  32
ATOM     27  O   UNL     1     -38.109  24.771   0.964  0.00  0.00    -0.320 OA
ATOM     28  C   UNL     1     -39.929  25.680   2.995  0.00  0.00    +0.146 C 
ATOM     29  C   UNL     1     -40.385  25.397   1.562  0.00  0.00    +0.164 C 
ATOM     30  C   UNL     1     -38.434  25.977   3.032  0.00  0.00    +0.108 C 
ATOM     31  C   UNL     1     -39.477  24.356   0.894  0.00  0.00    +0.148 C 
ATOM     32  C   UNL     1     -37.644  24.894   2.308  0.00  0.00    +0.290 C 
ATOM     33  C   UNL     1     -39.827  24.166  -0.578  0.00  0.00    +0.035 C 
BRANCH  28  34
ATOM     34  O   UNL     1     -40.649  26.804   3.496  0.00  0.00    -0.382 OA
ATOM     35  H   UNL     1     -40.277  27.069   4.353  0.00  0.00    +0.210 HD
ENDBRANCH  28  34
BRANCH  29  36
ATOM     36  O   UNL     1     -41.733  24.935   1.577  0.00  0.00    -0.380 OA
ATOM     37  H   UNL     1     -42.239  25.434   2.237  0.00  0.00    +0.211 HD
ENDBRANCH  29  36
ENDBRANCH  26  32
ENDBRANCH  11  26
TORSDOF 6
ENDMDL
MODEL 8
REMARK VINA RESULT:      -6.9      3.189      8.632
REMARK  Name = 53297396
REMARK  6 active torsions:
REMARK  status: ('A' for Active; 'I' for Inactive)
REMARK    1  A    between atoms: C_3  and  O_22
REMARK    2  A    between atoms: C_11  and  O_26
REMARK    3  A    between atoms: C_15  and  O_24
REMARK    4  A    between atoms: O_26  and  C_32
REMARK    5  A    between atoms: C_28  and  O_34
REMARK    6  A    between atoms: C_29  and  O_36
REMARK                            x       y       z     vdW  Elec       q    Type
REMARK                         _______ _______ _______ _____ _____    ______ ____
ROOT
ATOM      1  O   UNL     1     -36.384  26.547   2.870  0.00  0.00    -0.287 OA
ATOM      2  O   UNL     1     -37.170  21.322   2.392  0.00  0.00    -0.287 OA
ATOM      3  C   UNL     1     -38.397  25.839   1.038  0.00  0.00    +0.140 C 
ATOM      4  C   UNL     1     -37.706  24.817   1.912  0.00  0.00    +0.047 C 
ATOM      5  C   UNL     1     -37.978  23.499   1.833  0.00  0.00    +0.043 C 
ATOM      6  C   UNL     1     -38.867  25.253  -0.295  0.00  0.00    +0.060 C 
ATOM      7  C   UNL     1     -39.087  23.059   0.937  0.00  0.00    +0.033 C 
ATOM      8  C   UNL     1     -39.519  23.908  -0.103  0.00  0.00    -0.017 C 
ATOM      9  C   UNL     1     -36.020  24.416   3.769  0.00  0.00    +0.076 C 
ATOM     10  C   UNL     1     -36.673  25.355   2.845  0.00  0.00    +0.197 C 
ATOM     11  C   UNL     1     -35.151  24.901   4.754  0.00  0.00    +0.144 C 
ATOM     12  C   UNL     1     -36.257  23.049   3.662  0.00  0.00    +0.045 C 
ATOM     13  C   UNL     1     -37.152  22.527   2.615  0.00  0.00    +0.196 C 
ATOM     14  C   UNL     1     -40.535  23.501  -0.981  0.00  0.00    -0.008 C 
ATOM     15  C   UNL     1     -39.755  21.837   1.108  0.00  0.00    +0.133 C 
ATOM     16  C   UNL     1     -34.524  24.014   5.630  0.00  0.00    +0.037 C 
ATOM     17  C   UNL     1     -35.622  22.161   4.539  0.00  0.00    +0.003 C 
ATOM     18  C   UNL     1     -41.162  22.270  -0.808  0.00  0.00    -0.019 C 
ATOM     19  C   UNL     1     -40.779  21.444   0.241  0.00  0.00    +0.032 C 
ATOM     20  C   UNL     1     -34.760  22.646   5.522  0.00  0.00    +0.003 C 
ATOM     21  C   UNL     1     -42.251  21.848  -1.735  0.00  0.00    +0.031 C 
ENDROOT
BRANCH   3  22
ATOM     22  O   UNL     1     -39.520  26.380   1.735  0.00  0.00    -0.380 OA
ATOM     23  H   UNL     1     -40.026  25.659   2.141  0.00  0.00    +0.211 HD
ENDBRANCH   3  22
BRANCH  15  24
ATOM     24  O   UNL     1     -39.564  21.023   2.189  0.00  0.00    -0.506 OA
ATOM     25  H   UNL     1     -40.301  20.693   2.663  0.00  0.00    +0.292 HD
ENDBRANCH  15  24
BRANCH  11  26
ATOM     26  O   UNL     1     -34.883  26.228   4.915  0.00  0.00    -0.452 OA
BRANCH  26  32
ATOM     27  O   UNL     1     -33.262  27.710   5.728  0.00  0.00    -0.320 OA
ATOM     28  C   UNL     1     -31.812  27.571   3.250  0.00  0.00    +0.146 C 
ATOM     29  C   UNL     1     -31.501  28.623   4.316  0.00  0.00    +0.164 C 
ATOM     30  C   UNL     1     -33.242  27.063   3.400  0.00  0.00    +0.108 C 
ATOM     31  C   UNL     1     -31.892  28.120   5.713  0.00  0.00    +0.148 C 
ATOM     32  C   UNL     1     -33.519  26.627   4.834  0.00  0.00    +0.290 C 
ATOM     33  C   UNL     1     -31.722  29.206   6.769  0.00  0.00    +0.035 C 
BRANCH  28  34
ATOM     34  O   UNL     1     -31.650  28.156   1.961  0.00  0.00    -0.382 OA
ATOM     35  H   UNL     1     -30.709  28.338   1.805  0.00  0.00    +0.210 HD
ENDBRANCH  28  34
BRANCH  29  36
ATOM     36  O   UNL     1     -30.112  28.939   4.279  0.00  0.00    -0.380 OA
ATOM     37  H   UNL     1     -29.996  29.899   4.366  0.00  0.00    +0.211 HD
ENDBRANCH  29  36
ENDBRANCH  26  32
ENDBRANCH  11  26
TORSDOF 6
ENDMDL
MODEL 9
REMARK VINA RESULT:      -6.9      1.935      8.680
REMARK  Name = 53297396
REMARK  6 active torsions:
REMARK  status: ('A' for Active; 'I' for Inactive)
REMARK    1  A    between atoms: C_3  and  O_22
REMARK    2  A    between atoms: C_11  and  O_26
REMARK    3  A    between atoms: C_15  and  O_24
REMARK    4  A    between atoms: O_26  and  C_32
REMARK    5  A    between atoms: C_28  and  O_34
REMARK    6  A    between atoms: C_29  and  O_36
REMARK                            x       y       z     vdW  Elec       q    Type
REMARK                         _______ _______ _______ _____ _____    ______ ____
ROOT
ATOM      1  O   UNL     1     -34.775  25.481   1.388  0.00  0.00    -0.287 OA
ATOM      2  O   UNL     1     -35.208  20.636   3.506  0.00  0.00    -0.287 OA
ATOM      3  C   UNL     1     -35.225  23.432  -0.485  0.00  0.00    +0.140 C 
ATOM      4  C   UNL     1     -35.251  23.182   1.006  0.00  0.00    +0.047 C 
ATOM      5  C   UNL     1     -35.444  21.954   1.528  0.00  0.00    +0.043 C 
ATOM      6  C   UNL     1     -34.775  22.204  -1.281  0.00  0.00    +0.060 C 
ATOM      7  C   UNL     1     -35.763  20.833   0.597  0.00  0.00    +0.033 C 
ATOM      8  C   UNL     1     -35.434  20.949  -0.770  0.00  0.00    -0.017 C 
ATOM      9  C   UNL     1     -35.097  24.207   3.325  0.00  0.00    +0.076 C 
ATOM     10  C   UNL     1     -35.012  24.377   1.867  0.00  0.00    +0.197 C 
ATOM     11  C   UNL     1     -35.020  25.327   4.162  0.00  0.00    +0.144 C 
ATOM     12  C   UNL     1     -35.246  22.937   3.874  0.00  0.00    +0.045 C 
ATOM     13  C   UNL     1     -35.306  21.750   3.004  0.00  0.00    +0.196 C 
ATOM     14  C   UNL     1     -35.691  19.893  -1.658  0.00  0.00    -0.008 C 
ATOM     15  C   UNL     1     -36.418  19.666   1.018  0.00  0.00    +0.133 C 
ATOM     16  C   UNL     1     -35.095  25.170   5.546  0.00  0.00    +0.037 C 
ATOM     17  C   UNL     1     -35.315  22.782   5.264  0.00  0.00    +0.003 C 
ATOM     18  C   UNL     1     -36.316  18.733  -1.209  0.00  0.00    -0.019 C 
ATOM     19  C   UNL     1     -36.688  18.624   0.126  0.00  0.00    +0.032 C 
ATOM     20  C   UNL     1     -35.242  23.899   6.097  0.00  0.00    +0.003 C 
ATOM     21  C   UNL     1     -36.600  17.620  -2.159  0.00  0.00    +0.031 C 
ENDROOT
BRANCH   3  22
ATOM     22  O   UNL     1     -36.524  23.825  -0.925  0.00  0.00    -0.380 OA
ATOM     23  H   UNL     1     -36.874  24.508  -0.331  0.00  0.00    +0.211 HD
ENDBRANCH   3  22
BRANCH  15  24
ATOM     24  O   UNL     1     -36.960  19.519   2.264  0.00  0.00    -0.506 OA
ATOM     25  H   UNL     1     -37.887  19.427   2.365  0.00  0.00    +0.292 HD
ENDBRANCH  15  24
BRANCH  11  26
ATOM     26  O   UNL     1     -34.882  26.597   3.686  0.00  0.00    -0.452 OA
BRANCH  26  32
ATOM     27  O   UNL     1     -33.375  27.677   5.116  0.00  0.00    -0.320 OA
ATOM     28  C   UNL     1     -32.189  29.074   2.901  0.00  0.00    +0.146 C 
ATOM     29  C   UNL     1     -31.895  29.454   4.354  0.00  0.00    +0.164 C 
ATOM     30  C   UNL     1     -33.523  28.343   2.798  0.00  0.00    +0.108 C 
ATOM     31  C   UNL     1     -32.073  28.246   5.283  0.00  0.00    +0.148 C 
ATOM     32  C   UNL     1     -33.592  27.190   3.792  0.00  0.00    +0.290 C 
ATOM     33  C   UNL     1     -31.924  28.638   6.749  0.00  0.00    +0.035 C 
BRANCH  28  34
ATOM     34  O   UNL     1     -32.235  30.260   2.112  0.00  0.00    -0.382 OA
ATOM     35  H   UNL     1     -32.015  31.026   2.666  0.00  0.00    +0.210 HD
ENDBRANCH  28  34
BRANCH  29  36
ATOM     36  O   UNL     1     -30.566  29.959   4.452  0.00  0.00    -0.380 OA
ATOM     37  H   UNL     1     -29.970  29.404   3.924  0.00  0.00    +0.211 HD
ENDBRANCH  29  36
ENDBRANCH  26  32
ENDBRANCH  11  26
TORSDOF 6
ENDMDL
