MODEL 1
REMARK VINA RESULT:      -6.2      0.000      0.000
REMARK  Name = 53382523
REMARK  4 active torsions:
REMARK  status: ('A' for Active; 'I' for Inactive)
REMARK    1  A    between atoms: C_6  and  N_24
REMARK    2  A    between atoms: C_8  and  C_15
REMARK    3  A    between atoms: N_14  and  C_17
REMARK    4  A    between atoms: C_17  and  C_19
REMARK                            x       y       z     vdW  Elec       q    Type
REMARK                         _______ _______ _______ _____ _____    ______ ____
ROOT
ATOM      1 CL   UNL     1     -34.227  34.709   1.513  0.00  0.00    -0.081 Cl
ATOM      2  S   UNL     1     -31.469  29.854   4.059  0.00  0.00    -0.054 S 
ATOM      3  N   UNL     1     -31.467  32.390   3.252  0.00  0.00    -0.403 NA
ATOM      4  C   UNL     1     -33.483  31.034   2.953  0.00  0.00    +0.114 C 
ATOM      5  C   UNL     1     -34.147  32.129   2.363  0.00  0.00    -0.019 C 
ATOM      6  C   UNL     1     -33.894  29.691   3.232  0.00  0.00    +0.040 C 
ATOM      7  C   UNL     1     -32.170  31.244   3.362  0.00  0.00    +0.147 C 
ATOM      8  C   UNL     1     -32.899  28.947   3.829  0.00  0.00    +0.094 C 
ATOM      9  C   UNL     1     -33.463  33.333   2.227  0.00  0.00    +0.076 C 
ATOM     10  C   UNL     1     -32.158  33.400   2.680  0.00  0.00    +0.120 C 
ATOM     11  C   UNL     1     -35.563  32.021   1.884  0.00  0.00    +0.028 C 
ATOM     12  C   UNL     1     -31.380  34.674   2.555  0.00  0.00    +0.067 C 
ENDROOT
BRANCH   8  15
ATOM     13  O   UNL     1     -32.237  26.703   3.678  0.00  0.00    -0.270 OA
ATOM     14  N   UNL     1     -33.715  27.256   5.377  0.00  0.00    -0.296 N 
ATOM     15  C   UNL     1     -32.919  27.584   4.258  0.00  0.00    +0.253 C 
ATOM     16  H   UNL     1     -34.233  27.978   5.799  0.00  0.00    +0.150 HD
BRANCH  14  17
ATOM     17  C   UNL     1     -33.822  25.930   5.943  0.00  0.00    +0.117 C 
BRANCH  17  19
ATOM     18  N   UNL     1     -36.994  23.661   4.141  0.00  0.00    -0.242 NA
ATOM     19  C   UNL     1     -34.930  25.137   5.314  0.00  0.00    +0.001 C 
ATOM     20  C   UNL     1     -34.817  23.757   5.188  0.00  0.00    +0.018 C 
ATOM     21  C   UNL     1     -36.075  25.779   4.854  0.00  0.00    +0.018 C 
ATOM     22  C   UNL     1     -35.866  23.070   4.599  0.00  0.00    +0.099 C 
ATOM     23  C   UNL     1     -37.068  25.003   4.280  0.00  0.00    +0.099 C 
ENDBRANCH  17  19
ENDBRANCH  14  17
ENDBRANCH   8  15
BRANCH   6  24
ATOM     24  N   UNL     1     -35.121  29.189   2.948  0.00  0.00    -0.359 N 
ATOM     25  H   UNL     1     -35.400  29.073   2.011  0.00  0.00    +0.142 HD
ATOM     26  H   UNL     1     -35.732  28.943   3.678  0.00  0.00    +0.142 HD
ENDBRANCH   6  24
TORSDOF 4
ENDMDL
MODEL 2
REMARK VINA RESULT:      -6.1      7.156      9.472
REMARK  Name = 53382523
REMARK  4 active torsions:
REMARK  status: ('A' for Active; 'I' for Inactive)
REMARK    1  A    between atoms: C_6  and  N_24
REMARK    2  A    between atoms: C_8  and  C_15
REMARK    3  A    between atoms: N_14  and  C_17
REMARK    4  A    between atoms: C_17  and  C_19
REMARK                            x       y       z     vdW  Elec       q    Type
REMARK                         _______ _______ _______ _____ _____    ______ ____
ROOT
ATOM      1 CL   UNL     1     -46.126  25.525   1.320  0.00  0.00    -0.081 Cl
ATOM      2  S   UNL     1     -40.079  24.514   1.059  0.00  0.00    -0.054 S 
ATOM      3  N   UNL     1     -42.550  24.179   0.129  0.00  0.00    -0.403 NA
ATOM      4  C   UNL     1     -42.189  25.563   2.116  0.00  0.00    +0.114 C 
ATOM      5  C   UNL     1     -43.573  25.816   2.206  0.00  0.00    -0.019 C 
ATOM      6  C   UNL     1     -41.076  25.986   2.911  0.00  0.00    +0.040 C 
ATOM      7  C   UNL     1     -41.768  24.750   1.069  0.00  0.00    +0.147 C 
ATOM      8  C   UNL     1     -39.877  25.489   2.449  0.00  0.00    +0.094 C 
ATOM      9  C   UNL     1     -44.421  25.249   1.260  0.00  0.00    +0.076 C 
ATOM     10  C   UNL     1     -43.864  24.459   0.270  0.00  0.00    +0.120 C 
ATOM     11  C   UNL     1     -44.143  26.678   3.293  0.00  0.00    +0.028 C 
ATOM     12  C   UNL     1     -44.735  23.827  -0.771  0.00  0.00    +0.067 C 
ENDROOT
BRANCH   8  15
ATOM     13  O   UNL     1     -37.827  26.621   2.558  0.00  0.00    -0.270 OA
ATOM     14  N   UNL     1     -38.099  24.792   3.956  0.00  0.00    -0.296 N 
ATOM     15  C   UNL     1     -38.557  25.681   2.961  0.00  0.00    +0.253 C 
ATOM     16  H   UNL     1     -38.704  24.069   4.240  0.00  0.00    +0.150 HD
BRANCH  14  17
ATOM     17  C   UNL     1     -36.800  24.868   4.587  0.00  0.00    +0.117 C 
BRANCH  17  19
ATOM     18  N   UNL     1     -34.971  21.001   4.978  0.00  0.00    -0.242 NA
ATOM     19  C   UNL     1     -36.161  23.517   4.724  0.00  0.00    +0.001 C 
ATOM     20  C   UNL     1     -36.165  22.632   3.652  0.00  0.00    +0.018 C 
ATOM     21  C   UNL     1     -35.563  23.146   5.922  0.00  0.00    +0.018 C 
ATOM     22  C   UNL     1     -35.562  21.396   3.828  0.00  0.00    +0.099 C 
ATOM     23  C   UNL     1     -34.986  21.888   5.998  0.00  0.00    +0.099 C 
ENDBRANCH  17  19
ENDBRANCH  14  17
ENDBRANCH   8  15
BRANCH   6  24
ATOM     24  N   UNL     1     -41.172  26.787   4.001  0.00  0.00    -0.359 N 
ATOM     25  H   UNL     1     -41.716  27.606   3.963  0.00  0.00    +0.142 HD
ATOM     26  H   UNL     1     -40.698  26.549   4.829  0.00  0.00    +0.142 HD
ENDBRANCH   6  24
TORSDOF 4
ENDMDL
MODEL 3
REMARK VINA RESULT:      -6.1      4.544      7.938
REMARK  Name = 53382523
REMARK  4 active torsions:
REMARK  status: ('A' for Active; 'I' for Inactive)
REMARK    1  A    between atoms: C_6  and  N_24
REMARK    2  A    between atoms: C_8  and  C_15
REMARK    3  A    between atoms: N_14  and  C_17
REMARK    4  A    between atoms: C_17  and  C_19
REMARK                            x       y       z     vdW  Elec       q    Type
REMARK                         _______ _______ _______ _____ _____    ______ ____
ROOT
ATOM      1 CL   UNL     1     -36.117  22.144   3.483  0.00  0.00    -0.081 Cl
ATOM      2  S   UNL     1     -32.717  27.168   2.558  0.00  0.00    -0.054 S 
ATOM      3  N   UNL     1     -33.980  25.000   1.669  0.00  0.00    -0.403 NA
ATOM      4  C   UNL     1     -34.022  25.522   4.061  0.00  0.00    +0.114 C 
ATOM      5  C   UNL     1     -34.803  24.375   4.309  0.00  0.00    -0.019 C 
ATOM      6  C   UNL     1     -33.499  26.540   4.921  0.00  0.00    +0.040 C 
ATOM      7  C   UNL     1     -33.659  25.758   2.738  0.00  0.00    +0.147 C 
ATOM      8  C   UNL     1     -32.774  27.491   4.235  0.00  0.00    +0.094 C 
ATOM      9  C   UNL     1     -35.160  23.562   3.238  0.00  0.00    +0.076 C 
ATOM     10  C   UNL     1     -34.729  23.918   1.973  0.00  0.00    +0.120 C 
ATOM     11  C   UNL     1     -35.253  24.019   5.695  0.00  0.00    +0.028 C 
ATOM     12  C   UNL     1     -35.086  23.075   0.788  0.00  0.00    +0.067 C 
ENDROOT
BRANCH   8  15
ATOM     13  O   UNL     1     -32.733  29.590   5.278  0.00  0.00    -0.270 OA
ATOM     14  N   UNL     1     -30.699  28.706   4.604  0.00  0.00    -0.296 N 
ATOM     15  C   UNL     1     -32.104  28.651   4.730  0.00  0.00    +0.253 C 
ATOM     16  H   UNL     1     -30.248  27.949   4.166  0.00  0.00    +0.150 HD
BRANCH  14  17
ATOM     17  C   UNL     1     -29.877  29.799   5.073  0.00  0.00    +0.117 C 
BRANCH  17  19
ATOM     18  N   UNL     1     -27.047  28.526   8.044  0.00  0.00    -0.242 NA
ATOM     19  C   UNL     1     -28.888  29.354   6.111  0.00  0.00    +0.001 C 
ATOM     20  C   UNL     1     -28.797  28.011   6.458  0.00  0.00    +0.018 C 
ATOM     21  C   UNL     1     -28.059  30.283   6.729  0.00  0.00    +0.018 C 
ATOM     22  C   UNL     1     -27.869  27.651   7.422  0.00  0.00    +0.099 C 
ATOM     23  C   UNL     1     -27.164  29.822   7.681  0.00  0.00    +0.099 C 
ENDBRANCH  17  19
ENDBRANCH  14  17
ENDBRANCH   8  15
BRANCH   6  24
ATOM     24  N   UNL     1     -33.686  26.581   6.263  0.00  0.00    -0.359 N 
ATOM     25  H   UNL     1     -33.349  25.850   6.829  0.00  0.00    +0.142 HD
ATOM     26  H   UNL     1     -34.160  27.341   6.670  0.00  0.00    +0.142 HD
ENDBRANCH   6  24
TORSDOF 4
ENDMDL
MODEL 4
REMARK VINA RESULT:      -6.0      4.094      8.290
REMARK  Name = 53382523
REMARK  4 active torsions:
REMARK  status: ('A' for Active; 'I' for Inactive)
REMARK    1  A    between atoms: C_6  and  N_24
REMARK    2  A    between atoms: C_8  and  C_15
REMARK    3  A    between atoms: N_14  and  C_17
REMARK    4  A    between atoms: C_17  and  C_19
REMARK                            x       y       z     vdW  Elec       q    Type
REMARK                         _______ _______ _______ _____ _____    ______ ____
ROOT
ATOM      1 CL   UNL     1     -35.713  21.021   2.981  0.00  0.00    -0.081 Cl
ATOM      2  S   UNL     1     -33.971  26.299   5.583  0.00  0.00    -0.054 S 
ATOM      3  N   UNL     1     -34.809  23.778   5.738  0.00  0.00    -0.403 NA
ATOM      4  C   UNL     1     -34.462  24.797   3.540  0.00  0.00    +0.114 C 
ATOM      5  C   UNL     1     -34.857  23.600   2.909  0.00  0.00    -0.019 C 
ATOM      6  C   UNL     1     -34.038  26.066   3.027  0.00  0.00    +0.040 C 
ATOM      7  C   UNL     1     -34.466  24.803   4.931  0.00  0.00    +0.147 C 
ATOM      8  C   UNL     1     -33.743  26.968   4.026  0.00  0.00    +0.094 C 
ATOM      9  C   UNL     1     -35.221  22.514   3.699  0.00  0.00    +0.076 C 
ATOM     10  C   UNL     1     -35.177  22.661   5.074  0.00  0.00    +0.120 C 
ATOM     11  C   UNL     1     -34.892  23.476   1.415  0.00  0.00    +0.028 C 
ATOM     12  C   UNL     1     -35.559  21.521   5.967  0.00  0.00    +0.067 C 
ENDROOT
BRANCH   8  15
ATOM     13  O   UNL     1     -33.525  29.015   2.904  0.00  0.00    -0.270 OA
ATOM     14  N   UNL     1     -32.589  28.865   5.019  0.00  0.00    -0.296 N 
ATOM     15  C   UNL     1     -33.292  28.319   3.924  0.00  0.00    +0.253 C 
ATOM     16  H   UNL     1     -32.428  28.284   5.797  0.00  0.00    +0.150 HD
BRANCH  14  17
ATOM     17  C   UNL     1     -32.088  30.220   5.077  0.00  0.00    +0.117 C 
BRANCH  17  19
ATOM     18  N   UNL     1     -28.021  30.376   6.453  0.00  0.00    -0.242 NA
ATOM     19  C   UNL     1     -30.667  30.275   5.558  0.00  0.00    +0.001 C 
ATOM     20  C   UNL     1     -29.765  31.155   4.971  0.00  0.00    +0.018 C 
ATOM     21  C   UNL     1     -30.247  29.445   6.592  0.00  0.00    +0.018 C 
ATOM     22  C   UNL     1     -28.465  31.166   5.449  0.00  0.00    +0.099 C 
ATOM     23  C   UNL     1     -28.926  29.534   6.999  0.00  0.00    +0.099 C 
ENDBRANCH  17  19
ENDBRANCH  14  17
ENDBRANCH   8  15
BRANCH   6  24
ATOM     24  N   UNL     1     -33.933  26.364   1.709  0.00  0.00    -0.359 N 
ATOM     25  H   UNL     1     -33.766  25.648   1.055  0.00  0.00    +0.142 HD
ATOM     26  H   UNL     1     -34.023  27.295   1.406  0.00  0.00    +0.142 HD
ENDBRANCH   6  24
TORSDOF 4
ENDMDL
MODEL 5
REMARK VINA RESULT:      -6.0      7.898     10.488
REMARK  Name = 53382523
REMARK  4 active torsions:
REMARK  status: ('A' for Active; 'I' for Inactive)
REMARK    1  A    between atoms: C_6  and  N_24
REMARK    2  A    between atoms: C_8  and  C_15
REMARK    3  A    between atoms: N_14  and  C_17
REMARK    4  A    between atoms: C_17  and  C_19
REMARK                            x       y       z     vdW  Elec       q    Type
REMARK                         _______ _______ _______ _____ _____    ______ ____
ROOT
ATOM      1 CL   UNL     1     -35.176  20.509   2.614  0.00  0.00    -0.081 Cl
ATOM      2  S   UNL     1     -40.299  23.532   1.105  0.00  0.00    -0.054 S 
ATOM      3  N   UNL     1     -38.572  21.536   0.762  0.00  0.00    -0.403 NA
ATOM      4  C   UNL     1     -38.170  23.186   2.525  0.00  0.00    +0.114 C 
ATOM      5  C   UNL     1     -36.986  22.516   2.898  0.00  0.00    -0.019 C 
ATOM      6  C   UNL     1     -38.815  24.361   3.029  0.00  0.00    +0.040 C 
ATOM      7  C   UNL     1     -38.890  22.641   1.467  0.00  0.00    +0.147 C 
ATOM      8  C   UNL     1     -39.976  24.659   2.349  0.00  0.00    +0.094 C 
ATOM      9  C   UNL     1     -36.615  21.371   2.201  0.00  0.00    +0.076 C 
ATOM     10  C   UNL     1     -37.429  20.941   1.168  0.00  0.00    +0.120 C 
ATOM     11  C   UNL     1     -36.127  23.011   4.024  0.00  0.00    +0.028 C 
ATOM     12  C   UNL     1     -37.072  19.715   0.387  0.00  0.00    +0.067 C 
ENDROOT
BRANCH   8  15
ATOM     13  O   UNL     1     -40.614  26.707   3.295  0.00  0.00    -0.270 OA
ATOM     14  N   UNL     1     -42.125  25.690   1.860  0.00  0.00    -0.296 N 
ATOM     15  C   UNL     1     -40.893  25.736   2.549  0.00  0.00    +0.253 C 
ATOM     16  H   UNL     1     -42.301  24.909   1.287  0.00  0.00    +0.150 HD
BRANCH  14  17
ATOM     17  C   UNL     1     -43.145  26.710   1.940  0.00  0.00    +0.117 C 
BRANCH  17  19
ATOM     18  N   UNL     1     -46.239  25.678   4.737  0.00  0.00    -0.242 NA
ATOM     19  C   UNL     1     -44.226  26.349   2.918  0.00  0.00    +0.001 C 
ATOM     20  C   UNL     1     -45.168  25.381   2.590  0.00  0.00    +0.018 C 
ATOM     21  C   UNL     1     -44.289  26.982   4.154  0.00  0.00    +0.018 C 
ATOM     22  C   UNL     1     -46.146  25.084   3.526  0.00  0.00    +0.099 C 
ATOM     23  C   UNL     1     -45.306  26.613   5.020  0.00  0.00    +0.099 C 
ENDBRANCH  17  19
ENDBRANCH  14  17
ENDBRANCH   8  15
BRANCH   6  24
ATOM     24  N   UNL     1     -38.350  25.110   4.059  0.00  0.00    -0.359 N 
ATOM     25  H   UNL     1     -38.982  25.551   4.670  0.00  0.00    +0.142 HD
ATOM     26  H   UNL     1     -37.381  25.213   4.194  0.00  0.00    +0.142 HD
ENDBRANCH   6  24
TORSDOF 4
ENDMDL
MODEL 6
REMARK VINA RESULT:      -5.9      3.597      7.992
REMARK  Name = 53382523
REMARK  4 active torsions:
REMARK  status: ('A' for Active; 'I' for Inactive)
REMARK    1  A    between atoms: C_6  and  N_24
REMARK    2  A    between atoms: C_8  and  C_15
REMARK    3  A    between atoms: N_14  and  C_17
REMARK    4  A    between atoms: C_17  and  C_19
REMARK                            x       y       z     vdW  Elec       q    Type
REMARK                         _______ _______ _______ _____ _____    ______ ____
ROOT
ATOM      1 CL   UNL     1     -35.827  21.084   3.337  0.00  0.00    -0.081 Cl
ATOM      2  S   UNL     1     -33.786  26.606   5.073  0.00  0.00    -0.054 S 
ATOM      3  N   UNL     1     -34.693  24.165   5.626  0.00  0.00    -0.403 NA
ATOM      4  C   UNL     1     -34.431  24.850   3.291  0.00  0.00    +0.114 C 
ATOM      5  C   UNL     1     -34.896  23.592   2.857  0.00  0.00    -0.019 C 
ATOM      6  C   UNL     1     -33.995  26.017   2.583  0.00  0.00    +0.040 C 
ATOM      7  C   UNL     1     -34.361  25.052   4.665  0.00  0.00    +0.147 C 
ATOM      8  C   UNL     1     -33.620  27.039   3.427  0.00  0.00    +0.094 C 
ATOM      9  C   UNL     1     -35.251  22.643   3.810  0.00  0.00    +0.076 C 
ATOM     10  C   UNL     1     -35.131  22.981   5.147  0.00  0.00    +0.120 C 
ATOM     11  C   UNL     1     -35.014  23.261   1.399  0.00  0.00    +0.028 C 
ATOM     12  C   UNL     1     -35.501  21.994   6.210  0.00  0.00    +0.067 C 
ENDROOT
BRANCH   8  15
ATOM     13  O   UNL     1     -32.226  28.519   2.259  0.00  0.00    -0.270 OA
ATOM     14  N   UNL     1     -33.718  29.445   3.773  0.00  0.00    -0.296 N 
ATOM     15  C   UNL     1     -33.133  28.344   3.112  0.00  0.00    +0.253 C 
ATOM     16  H   UNL     1     -34.424  29.261   4.434  0.00  0.00    +0.150 HD
BRANCH  14  17
ATOM     17  C   UNL     1     -33.351  30.825   3.547  0.00  0.00    +0.117 C 
BRANCH  17  19
ATOM     18  N   UNL     1     -36.250  32.890   1.141  0.00  0.00    -0.242 NA
ATOM     19  C   UNL     1     -34.364  31.546   2.707  0.00  0.00    +0.001 C 
ATOM     20  C   UNL     1     -35.684  31.112   2.679  0.00  0.00    +0.018 C 
ATOM     21  C   UNL     1     -33.986  32.651   1.952  0.00  0.00    +0.018 C 
ATOM     22  C   UNL     1     -36.581  31.811   1.887  0.00  0.00    +0.099 C 
ATOM     23  C   UNL     1     -34.958  33.282   1.193  0.00  0.00    +0.099 C 
ENDBRANCH  17  19
ENDBRANCH  14  17
ENDBRANCH   8  15
BRANCH   6  24
ATOM     24  N   UNL     1     -33.950  26.122   1.232  0.00  0.00    -0.359 N 
ATOM     25  H   UNL     1     -34.179  26.975   0.797  0.00  0.00    +0.142 HD
ATOM     26  H   UNL     1     -33.690  25.345   0.687  0.00  0.00    +0.142 HD
ENDBRANCH   6  24
TORSDOF 4
ENDMDL
MODEL 7
REMARK VINA RESULT:      -5.9      7.858     11.122
REMARK  Name = 53382523
REMARK  4 active torsions:
REMARK  status: ('A' for Active; 'I' for Inactive)
REMARK    1  A    between atoms: C_6  and  N_24
REMARK    2  A    between atoms: C_8  and  C_15
REMARK    3  A    between atoms: N_14  and  C_17
REMARK    4  A    between atoms: C_17  and  C_19
REMARK                            x       y       z     vdW  Elec       q    Type
REMARK                         _______ _______ _______ _____ _____    ______ ____
ROOT
ATOM      1 CL   UNL     1     -27.000  18.304  -0.780  0.00  0.00    -0.081 Cl
ATOM      2  S   UNL     1     -32.781  18.216   1.278  0.00  0.00    -0.054 S 
ATOM      3  N   UNL     1     -30.401  17.075   0.935  0.00  0.00    -0.403 NA
ATOM      4  C   UNL     1     -30.780  19.343   0.095  0.00  0.00    +0.114 C 
ATOM      5  C   UNL     1     -29.458  19.397  -0.390  0.00  0.00    -0.019 C 
ATOM      6  C   UNL     1     -31.859  20.285   0.069  0.00  0.00    +0.040 C 
ATOM      7  C   UNL     1     -31.165  18.168   0.733  0.00  0.00    +0.147 C 
ATOM      8  C   UNL     1     -32.998  19.800   0.674  0.00  0.00    +0.094 C 
ATOM      9  C   UNL     1     -28.630  18.294  -0.207  0.00  0.00    +0.076 C 
ATOM     10  C   UNL     1     -29.146  17.189   0.447  0.00  0.00    +0.120 C 
ATOM     11  C   UNL     1     -28.931  20.612  -1.095  0.00  0.00    +0.028 C 
ATOM     12  C   UNL     1     -28.296  15.977   0.668  0.00  0.00    +0.067 C 
ENDROOT
BRANCH   8  15
ATOM     13  O   UNL     1     -34.863  20.991  -0.103  0.00  0.00    -0.270 OA
ATOM     14  N   UNL     1     -34.855  20.382   2.134  0.00  0.00    -0.296 N 
ATOM     15  C   UNL     1     -34.269  20.429   0.851  0.00  0.00    +0.253 C 
ATOM     16  H   UNL     1     -34.354  19.933   2.852  0.00  0.00    +0.150 HD
BRANCH  14  17
ATOM     17  C   UNL     1     -36.142  20.951   2.467  0.00  0.00    +0.117 C 
BRANCH  17  19
ATOM     18  N   UNL     1     -35.837  23.942   5.535  0.00  0.00    -0.242 NA
ATOM     19  C   UNL     1     -36.036  21.996   3.539  0.00  0.00    +0.001 C 
ATOM     20  C   UNL     1     -35.406  21.699   4.743  0.00  0.00    +0.018 C 
ATOM     21  C   UNL     1     -36.565  23.265   3.332  0.00  0.00    +0.018 C 
ATOM     22  C   UNL     1     -35.334  22.698   5.701  0.00  0.00    +0.099 C 
ATOM     23  C   UNL     1     -36.441  24.194   4.353  0.00  0.00    +0.099 C 
ENDBRANCH  17  19
ENDBRANCH  14  17
ENDBRANCH   8  15
BRANCH   6  24
ATOM     24  N   UNL     1     -31.785  21.520  -0.485  0.00  0.00    -0.359 N 
ATOM     25  H   UNL     1     -30.944  21.826  -0.894  0.00  0.00    +0.142 HD
ATOM     26  H   UNL     1     -32.572  22.110  -0.477  0.00  0.00    +0.142 HD
ENDBRANCH   6  24
TORSDOF 4
ENDMDL
MODEL 8
REMARK VINA RESULT:      -5.9      4.562      8.623
REMARK  Name = 53382523
REMARK  4 active torsions:
REMARK  status: ('A' for Active; 'I' for Inactive)
REMARK    1  A    between atoms: C_6  and  N_24
REMARK    2  A    between atoms: C_8  and  C_15
REMARK    3  A    between atoms: N_14  and  C_17
REMARK    4  A    between atoms: C_17  and  C_19
REMARK                            x       y       z     vdW  Elec       q    Type
REMARK                         _______ _______ _______ _____ _____    ______ ____
ROOT
ATOM      1 CL   UNL     1     -39.591  21.203   0.540  0.00  0.00    -0.081 Cl
ATOM      2  S   UNL     1     -35.078  23.265   4.151  0.00  0.00    -0.054 S 
ATOM      3  N   UNL     1     -36.116  21.445   2.510  0.00  0.00    -0.403 NA
ATOM      4  C   UNL     1     -37.404  23.456   3.045  0.00  0.00    +0.114 C 
ATOM      5  C   UNL     1     -38.461  23.013   2.224  0.00  0.00    -0.019 C 
ATOM      6  C   UNL     1     -37.230  24.632   3.845  0.00  0.00    +0.040 C 
ATOM      7  C   UNL     1     -36.289  22.629   3.133  0.00  0.00    +0.147 C 
ATOM      8  C   UNL     1     -36.016  24.653   4.495  0.00  0.00    +0.094 C 
ATOM      9  C   UNL     1     -38.329  21.797   1.560  0.00  0.00    +0.076 C 
ATOM     10  C   UNL     1     -37.162  21.076   1.739  0.00  0.00    +0.120 C 
ATOM     11  C   UNL     1     -39.713  23.820   2.053  0.00  0.00    +0.028 C 
ATOM     12  C   UNL     1     -36.973  19.762   1.047  0.00  0.00    +0.067 C 
ENDROOT
BRANCH   8  15
ATOM     13  O   UNL     1     -36.214  26.427   6.016  0.00  0.00    -0.270 OA
ATOM     14  N   UNL     1     -34.070  25.698   5.517  0.00  0.00    -0.296 N 
ATOM     15  C   UNL     1     -35.473  25.642   5.373  0.00  0.00    +0.253 C 
ATOM     16  H   UNL     1     -33.529  25.065   4.992  0.00  0.00    +0.150 HD
BRANCH  14  17
ATOM     17  C   UNL     1     -33.373  26.625   6.380  0.00  0.00    +0.117 C 
BRANCH  17  19
ATOM     18  N   UNL     1     -31.236  29.610   4.149  0.00  0.00    -0.242 NA
ATOM     19  C   UNL     1     -32.627  27.668   5.601  0.00  0.00    +0.001 C 
ATOM     20  C   UNL     1     -32.721  27.703   4.214  0.00  0.00    +0.018 C 
ATOM     21  C   UNL     1     -31.837  28.602   6.262  0.00  0.00    +0.018 C 
ATOM     22  C   UNL     1     -32.013  28.685   3.540  0.00  0.00    +0.099 C 
ATOM     23  C   UNL     1     -31.168  29.544   5.496  0.00  0.00    +0.099 C 
ENDBRANCH  17  19
ENDBRANCH  14  17
ENDBRANCH   8  15
BRANCH   6  24
ATOM     24  N   UNL     1     -38.146  25.624   3.960  0.00  0.00    -0.359 N 
ATOM     25  H   UNL     1     -39.093  25.403   4.111  0.00  0.00    +0.142 HD
ATOM     26  H   UNL     1     -37.865  26.564   3.892  0.00  0.00    +0.142 HD
ENDBRANCH   6  24
TORSDOF 4
ENDMDL
MODEL 9
REMARK VINA RESULT:      -5.9      6.840     11.082
REMARK  Name = 53382523
REMARK  4 active torsions:
REMARK  status: ('A' for Active; 'I' for Inactive)
REMARK    1  A    between atoms: C_6  and  N_24
REMARK    2  A    between atoms: C_8  and  C_15
REMARK    3  A    between atoms: N_14  and  C_17
REMARK    4  A    between atoms: C_17  and  C_19
REMARK                            x       y       z     vdW  Elec       q    Type
REMARK                         _______ _______ _______ _____ _____    ______ ____
ROOT
ATOM      1 CL   UNL     1     -39.680  17.934  -3.335  0.00  0.00    -0.081 Cl
ATOM      2  S   UNL     1     -38.267  21.283   1.609  0.00  0.00    -0.054 S 
ATOM      3  N   UNL     1     -39.914  20.613  -0.371  0.00  0.00    -0.403 NA
ATOM      4  C   UNL     1     -37.763  19.464  -0.154  0.00  0.00    +0.114 C 
ATOM      5  C   UNL     1     -38.055  18.678  -1.287  0.00  0.00    -0.019 C 
ATOM      6  C   UNL     1     -36.632  19.512   0.724  0.00  0.00    +0.040 C 
ATOM      7  C   UNL     1     -38.727  20.391   0.230  0.00  0.00    +0.147 C 
ATOM      8  C   UNL     1     -36.776  20.453   1.720  0.00  0.00    +0.094 C 
ATOM      9  C   UNL     1     -39.268  18.870  -1.942  0.00  0.00    +0.076 C 
ATOM     10  C   UNL     1     -40.134  19.829  -1.449  0.00  0.00    +0.120 C 
ATOM     11  C   UNL     1     -37.092  17.647  -1.795  0.00  0.00    +0.028 C 
ATOM     12  C   UNL     1     -41.450  20.073  -2.119  0.00  0.00    +0.067 C 
ENDROOT
BRANCH   8  15
ATOM     13  O   UNL     1     -34.760  20.243   2.898  0.00  0.00    -0.270 OA
ATOM     14  N   UNL     1     -36.282  21.808   3.680  0.00  0.00    -0.296 N 
ATOM     15  C   UNL     1     -35.880  20.799   2.778  0.00  0.00    +0.253 C 
ATOM     16  H   UNL     1     -37.169  22.215   3.548  0.00  0.00    +0.150 HD
BRANCH  14  17
ATOM     17  C   UNL     1     -35.481  22.283   4.785  0.00  0.00    +0.117 C 
BRANCH  17  19
ATOM     18  N   UNL     1     -35.439  26.573   5.016  0.00  0.00    -0.242 NA
ATOM     19  C   UNL     1     -35.466  23.782   4.866  0.00  0.00    +0.001 C 
ATOM     20  C   UNL     1     -34.429  24.435   5.521  0.00  0.00    +0.018 C 
ATOM     21  C   UNL     1     -36.490  24.522   4.285  0.00  0.00    +0.018 C 
ATOM     22  C   UNL     1     -34.461  25.820   5.569  0.00  0.00    +0.099 C 
ATOM     23  C   UNL     1     -36.430  25.903   4.387  0.00  0.00    +0.099 C 
ENDBRANCH  17  19
ENDBRANCH  14  17
ENDBRANCH   8  15
BRANCH   6  24
ATOM     24  N   UNL     1     -35.534  18.727   0.603  0.00  0.00    -0.359 N 
ATOM     25  H   UNL     1     -34.657  19.059   0.903  0.00  0.00    +0.142 HD
ATOM     26  H   UNL     1     -35.614  17.826   0.217  0.00  0.00    +0.142 HD
ENDBRANCH   6  24
TORSDOF 4
ENDMDL
