MODEL 1
REMARK VINA RESULT:      -6.6      0.000      0.000
REMARK  Name = 5279576
REMARK  8 active torsions:
REMARK  status: ('A' for Active; 'I' for Inactive)
REMARK    1  A    between atoms: C_6  and  N_17
REMARK    2  A    between atoms: C_13  and  O_26
REMARK    3  A    between atoms: C_14  and  O_28
REMARK    4  A    between atoms: C_14  and  C_30
REMARK    5  A    between atoms: C_18  and  C_20
REMARK    6  A    between atoms: C_21  and  C_23
REMARK    7  A    between atoms: C_23  and  O_24
REMARK    8  A    between atoms: C_31  and  C_32
REMARK                            x       y       z     vdW  Elec       q    Type
REMARK                         _______ _______ _______ _____ _____    ______ ____
ROOT
ATOM      1  O   UNL     1     -34.456  24.692   4.815  0.00  0.00    -0.447 OA
ATOM      2  O   UNL     1     -35.765  23.246   6.010  0.00  0.00    -0.248 OA
ATOM      3  O   UNL     1     -35.489  27.106   4.155  0.00  0.00    -0.288 OA
ATOM      4  C   UNL     1     -34.781  23.888   2.649  0.00  0.00    +0.099 C 
ATOM      5  C   UNL     1     -34.356  25.107   3.447  0.00  0.00    +0.196 C 
ATOM      6  C   UNL     1     -35.818  23.215   3.568  0.00  0.00    +0.154 C 
ATOM      7  C   UNL     1     -35.205  24.202   1.234  0.00  0.00    +0.050 C 
ATOM      8  C   UNL     1     -35.359  23.669   4.939  0.00  0.00    +0.334 C 
ATOM      9  C   UNL     1     -35.285  26.298   3.248  0.00  0.00    +0.208 C 
ATOM     10  C   UNL     1     -32.920  25.547   3.170  0.00  0.00    +0.052 C 
ATOM     11  C   UNL     1     -35.800  21.694   3.455  0.00  0.00    +0.032 C 
ATOM     12  C   UNL     1     -35.920  26.489   1.900  0.00  0.00    +0.050 C 
ATOM     13  C   UNL     1     -35.835  25.500   0.984  0.00  0.00    +0.132 C 
ATOM     14  C   UNL     1     -34.966  23.307   0.259  0.00  0.00    +0.133 C 
ATOM     15  C   UNL     1     -36.620  27.809   1.726  0.00  0.00    +0.037 C 
ENDROOT
BRANCH   6  17
ATOM     16  O   UNL     1     -37.923  22.155   1.888  0.00  0.00    -0.270 OA
ATOM     17  N   UNL     1     -37.170  23.706   3.448  0.00  0.00    -0.295 N 
ATOM     18  C   UNL     1     -38.112  23.127   2.612  0.00  0.00    +0.247 C 
ATOM     19  H   UNL     1     -37.435  24.487   3.986  0.00  0.00    +0.150 HD
BRANCH  18  20
ATOM     20  C   UNL     1     -39.424  23.830   2.683  0.00  0.00    +0.064 C 
ATOM     21  C   UNL     1     -39.457  25.166   2.755  0.00  0.00    +0.086 C 
BRANCH  21  23
ATOM     22  O   UNL     1     -41.731  25.639   2.115  0.00  0.00    -0.245 OA
ATOM     23  C   UNL     1     -40.763  25.852   2.825  0.00  0.00    +0.338 C 
BRANCH  23  24
ATOM     24  O   UNL     1     -40.718  26.770   3.819  0.00  0.00    -0.477 OA
ATOM     25  H   UNL     1     -41.505  27.189   4.106  0.00  0.00    +0.295 HD
ENDBRANCH  23  24
ENDBRANCH  21  23
ENDBRANCH  18  20
ENDBRANCH   6  17
BRANCH  13  26
ATOM     26  O   UNL     1     -36.372  25.611  -0.287  0.00  0.00    -0.506 OA
ATOM     27  H   UNL     1     -36.061  25.058  -0.976  0.00  0.00    +0.292 HD
ENDBRANCH  13  26
BRANCH  14  28
ATOM     28  O   UNL     1     -35.303  23.559  -1.053  0.00  0.00    -0.506 OA
ATOM     29  H   UNL     1     -35.382  24.443  -1.354  0.00  0.00    +0.292 HD
ENDBRANCH  14  28
BRANCH  14  30
ATOM     30  C   UNL     1     -34.342  22.026   0.523  0.00  0.00    +0.036 C 
ATOM     31  C   UNL     1     -33.190  21.598  -0.019  0.00  0.00    +0.003 C 
BRANCH  31  32
ATOM     32  C   UNL     1     -32.611  20.307   0.283  0.00  0.00    -0.004 C 
ATOM     33  C   UNL     1     -33.206  19.402   1.072  0.00  0.00    -0.026 C 
ATOM     34  C   UNL     1     -32.619  18.066   1.391  0.00  0.00    +0.031 C 
ENDBRANCH  31  32
ENDBRANCH  14  30
TORSDOF 8
ENDMDL
MODEL 2
REMARK VINA RESULT:      -6.2      2.405      5.657
REMARK  Name = 5279576
REMARK  8 active torsions:
REMARK  status: ('A' for Active; 'I' for Inactive)
REMARK    1  A    between atoms: C_6  and  N_17
REMARK    2  A    between atoms: C_13  and  O_26
REMARK    3  A    between atoms: C_14  and  O_28
REMARK    4  A    between atoms: C_14  and  C_30
REMARK    5  A    between atoms: C_18  and  C_20
REMARK    6  A    between atoms: C_21  and  C_23
REMARK    7  A    between atoms: C_23  and  O_24
REMARK    8  A    between atoms: C_31  and  C_32
REMARK                            x       y       z     vdW  Elec       q    Type
REMARK                         _______ _______ _______ _____ _____    ______ ____
ROOT
ATOM      1  O   UNL     1     -34.960  23.639  -0.797  0.00  0.00    -0.447 OA
ATOM      2  O   UNL     1     -36.427  25.389  -0.939  0.00  0.00    -0.248 OA
ATOM      3  O   UNL     1     -35.753  21.224  -1.731  0.00  0.00    -0.288 OA
ATOM      4  C   UNL     1     -35.294  22.967   1.412  0.00  0.00    +0.099 C 
ATOM      5  C   UNL     1     -34.783  22.504   0.059  0.00  0.00    +0.196 C 
ATOM      6  C   UNL     1     -36.413  23.959   1.041  0.00  0.00    +0.154 C 
ATOM      7  C   UNL     1     -35.647  21.838   2.350  0.00  0.00    +0.050 C 
ATOM      8  C   UNL     1     -35.954  24.450  -0.317  0.00  0.00    +0.334 C 
ATOM      9  C   UNL     1     -35.596  21.351  -0.516  0.00  0.00    +0.208 C 
ATOM     10  C   UNL     1     -33.307  22.115   0.064  0.00  0.00    +0.052 C 
ATOM     11  C   UNL     1     -36.528  25.109   2.036  0.00  0.00    +0.032 C 
ATOM     12  C   UNL     1     -36.173  20.341   0.435  0.00  0.00    +0.050 C 
ATOM     13  C   UNL     1     -36.151  20.595   1.761  0.00  0.00    +0.132 C 
ATOM     14  C   UNL     1     -35.461  21.995   3.673  0.00  0.00    +0.133 C 
ATOM     15  C   UNL     1     -36.746  19.119  -0.230  0.00  0.00    +0.037 C 
ENDROOT
BRANCH   6  17
ATOM     16  O   UNL     1     -38.512  23.516   2.983  0.00  0.00    -0.270 OA
ATOM     17  N   UNL     1     -37.711  23.374   0.805  0.00  0.00    -0.295 N 
ATOM     18  C   UNL     1     -38.655  23.204   1.806  0.00  0.00    +0.247 C 
ATOM     19  H   UNL     1     -37.936  23.084  -0.109  0.00  0.00    +0.150 HD
BRANCH  18  20
ATOM     20  C   UNL     1     -39.906  22.580   1.288  0.00  0.00    +0.064 C 
ATOM     21  C   UNL     1     -39.856  21.790   0.209  0.00  0.00    +0.086 C 
BRANCH  21  23
ATOM     22  O   UNL     1     -42.200  21.704  -0.340  0.00  0.00    -0.245 OA
ATOM     23  C   UNL     1     -41.100  21.178  -0.295  0.00  0.00    +0.338 C 
BRANCH  23  24
ATOM     24  O   UNL     1     -40.828  19.918  -0.708  0.00  0.00    -0.477 OA
ATOM     25  H   UNL     1     -41.476  19.247  -0.625  0.00  0.00    +0.295 HD
ENDBRANCH  23  24
ENDBRANCH  21  23
ENDBRANCH  18  20
ENDBRANCH   6  17
BRANCH  13  26
ATOM     26  O   UNL     1     -36.638  19.704   2.701  0.00  0.00    -0.506 OA
ATOM     27  H   UNL     1     -36.321  18.822   2.720  0.00  0.00    +0.292 HD
ENDBRANCH  13  26
BRANCH  14  28
ATOM     28  O   UNL     1     -35.736  20.985   4.568  0.00  0.00    -0.506 OA
ATOM     29  H   UNL     1     -35.428  21.044   5.451  0.00  0.00    +0.292 HD
ENDBRANCH  14  28
BRANCH  14  30
ATOM     30  C   UNL     1     -34.962  23.232   4.241  0.00  0.00    +0.036 C 
ATOM     31  C   UNL     1     -35.502  23.880   5.286  0.00  0.00    +0.003 C 
BRANCH  31  32
ATOM     32  C   UNL     1     -34.959  25.113   5.813  0.00  0.00    -0.004 C 
ATOM     33  C   UNL     1     -33.877  25.716   5.301  0.00  0.00    -0.026 C 
ATOM     34  C   UNL     1     -33.308  26.990   5.835  0.00  0.00    +0.031 C 
ENDBRANCH  31  32
ENDBRANCH  14  30
TORSDOF 8
ENDMDL
MODEL 3
REMARK VINA RESULT:      -5.9      2.163      5.081
REMARK  Name = 5279576
REMARK  8 active torsions:
REMARK  status: ('A' for Active; 'I' for Inactive)
REMARK    1  A    between atoms: C_6  and  N_17
REMARK    2  A    between atoms: C_13  and  O_26
REMARK    3  A    between atoms: C_14  and  O_28
REMARK    4  A    between atoms: C_14  and  C_30
REMARK    5  A    between atoms: C_18  and  C_20
REMARK    6  A    between atoms: C_21  and  C_23
REMARK    7  A    between atoms: C_23  and  O_24
REMARK    8  A    between atoms: C_31  and  C_32
REMARK                            x       y       z     vdW  Elec       q    Type
REMARK                         _______ _______ _______ _____ _____    ______ ____
ROOT
ATOM      1  O   UNL     1     -36.550  24.187  -0.896  0.00  0.00    -0.447 OA
ATOM      2  O   UNL     1     -34.510  24.962  -1.583  0.00  0.00    -0.248 OA
ATOM      3  O   UNL     1     -37.916  25.632   0.942  0.00  0.00    -0.288 OA
ATOM      4  C   UNL     1     -35.905  22.627   0.714  0.00  0.00    +0.099 C 
ATOM      5  C   UNL     1     -37.061  23.494   0.249  0.00  0.00    +0.196 C 
ATOM      6  C   UNL     1     -34.668  23.466   0.341  0.00  0.00    +0.154 C 
ATOM      7  C   UNL     1     -36.027  22.164   2.146  0.00  0.00    +0.050 C 
ATOM      8  C   UNL     1     -35.184  24.275  -0.831  0.00  0.00    +0.334 C 
ATOM      9  C   UNL     1     -37.473  24.535   1.283  0.00  0.00    +0.208 C 
ATOM     10  C   UNL     1     -38.294  22.695  -0.168  0.00  0.00    +0.052 C 
ATOM     11  C   UNL     1     -33.476  22.605  -0.062  0.00  0.00    +0.032 C 
ATOM     12  C   UNL     1     -37.365  24.176   2.738  0.00  0.00    +0.050 C 
ATOM     13  C   UNL     1     -36.708  23.051   3.093  0.00  0.00    +0.132 C 
ATOM     14  C   UNL     1     -35.542  20.959   2.495  0.00  0.00    +0.133 C 
ATOM     15  C   UNL     1     -38.015  25.162   3.670  0.00  0.00    +0.037 C 
ENDROOT
BRANCH   6  17
ATOM     16  O   UNL     1     -32.098  24.781   0.540  0.00  0.00    -0.270 OA
ATOM     17  N   UNL     1     -34.263  24.447   1.319  0.00  0.00    -0.295 N 
ATOM     18  C   UNL     1     -33.003  25.024   1.332  0.00  0.00    +0.247 C 
ATOM     19  H   UNL     1     -34.912  24.720   2.009  0.00  0.00    +0.150 HD
BRANCH  18  20
ATOM     20  C   UNL     1     -32.852  26.004   2.444  0.00  0.00    +0.064 C 
ATOM     21  C   UNL     1     -33.608  25.883   3.542  0.00  0.00    +0.086 C 
BRANCH  21  23
ATOM     22  O   UNL     1     -33.095  26.615   5.779  0.00  0.00    -0.245 OA
ATOM     23  C   UNL     1     -33.450  26.859   4.638  0.00  0.00    +0.338 C 
BRANCH  23  24
ATOM     24  O   UNL     1     -33.767  28.089   4.173  0.00  0.00    -0.477 OA
ATOM     25  H   UNL     1     -34.652  28.394   4.219  0.00  0.00    +0.295 HD
ENDBRANCH  23  24
ENDBRANCH  21  23
ENDBRANCH  18  20
ENDBRANCH   6  17
BRANCH  13  26
ATOM     26  O   UNL     1     -36.588  22.639   4.409  0.00  0.00    -0.506 OA
ATOM     27  H   UNL     1     -35.975  23.062   4.978  0.00  0.00    +0.292 HD
ENDBRANCH  13  26
BRANCH  14  28
ATOM     28  O   UNL     1     -35.658  20.476   3.780  0.00  0.00    -0.506 OA
ATOM     29  H   UNL     1     -34.971  20.625   4.399  0.00  0.00    +0.292 HD
ENDBRANCH  14  28
BRANCH  14  30
ATOM     30  C   UNL     1     -34.871  20.093   1.546  0.00  0.00    +0.036 C 
ATOM     31  C   UNL     1     -33.754  19.388   1.794  0.00  0.00    +0.003 C 
BRANCH  31  32
ATOM     32  C   UNL     1     -33.127  18.537   0.807  0.00  0.00    -0.004 C 
ATOM     33  C   UNL     1     -32.006  17.841   1.044  0.00  0.00    -0.026 C 
ATOM     34  C   UNL     1     -31.350  16.958   0.033  0.00  0.00    +0.031 C 
ENDBRANCH  31  32
ENDBRANCH  14  30
TORSDOF 8
ENDMDL
MODEL 4
REMARK VINA RESULT:      -5.8      2.512      5.571
REMARK  Name = 5279576
REMARK  8 active torsions:
REMARK  status: ('A' for Active; 'I' for Inactive)
REMARK    1  A    between atoms: C_6  and  N_17
REMARK    2  A    between atoms: C_13  and  O_26
REMARK    3  A    between atoms: C_14  and  O_28
REMARK    4  A    between atoms: C_14  and  C_30
REMARK    5  A    between atoms: C_18  and  C_20
REMARK    6  A    between atoms: C_21  and  C_23
REMARK    7  A    between atoms: C_23  and  O_24
REMARK    8  A    between atoms: C_31  and  C_32
REMARK                            x       y       z     vdW  Elec       q    Type
REMARK                         _______ _______ _______ _____ _____    ______ ____
ROOT
ATOM      1  O   UNL     1     -33.135  26.021   0.826  0.00  0.00    -0.447 OA
ATOM      2  O   UNL     1     -32.986  23.940  -0.113  0.00  0.00    -0.248 OA
ATOM      3  O   UNL     1     -32.415  26.309   3.421  0.00  0.00    -0.288 OA
ATOM      4  C   UNL     1     -35.400  26.091   1.380  0.00  0.00    +0.099 C 
ATOM      5  C   UNL     1     -34.046  26.700   1.699  0.00  0.00    +0.196 C 
ATOM      6  C   UNL     1     -35.048  24.641   0.995  0.00  0.00    +0.154 C 
ATOM      7  C   UNL     1     -36.431  26.292   2.464  0.00  0.00    +0.050 C 
ATOM      8  C   UNL     1     -33.632  24.793   0.477  0.00  0.00    +0.334 C 
ATOM      9  C   UNL     1     -33.605  26.441   3.134  0.00  0.00    +0.208 C 
ATOM     10  C   UNL     1     -33.972  28.199   1.420  0.00  0.00    +0.052 C 
ATOM     11  C   UNL     1     -35.973  24.080  -0.080  0.00  0.00    +0.032 C 
ATOM     12  C   UNL     1     -34.657  26.390   4.205  0.00  0.00    +0.050 C 
ATOM     13  C   UNL     1     -35.960  26.350   3.850  0.00  0.00    +0.132 C 
ATOM     14  C   UNL     1     -37.725  26.441   2.126  0.00  0.00    +0.133 C 
ATOM     15  C   UNL     1     -34.114  26.374   5.608  0.00  0.00    +0.037 C 
ENDROOT
BRANCH   6  17
ATOM     16  O   UNL     1     -37.125  22.915   2.033  0.00  0.00    -0.270 OA
ATOM     17  N   UNL     1     -34.942  23.713   2.094  0.00  0.00    -0.295 N 
ATOM     18  C   UNL     1     -36.000  22.924   2.520  0.00  0.00    +0.247 C 
ATOM     19  H   UNL     1     -34.080  23.635   2.564  0.00  0.00    +0.150 HD
BRANCH  18  20
ATOM     20  C   UNL     1     -35.618  22.056   3.669  0.00  0.00    +0.064 C 
ATOM     21  C   UNL     1     -35.618  22.559   4.910  0.00  0.00    +0.086 C 
BRANCH  21  23
ATOM     22  O   UNL     1     -35.049  22.044   7.193  0.00  0.00    -0.245 OA
ATOM     23  C   UNL     1     -35.238  21.691   6.041  0.00  0.00    +0.338 C 
BRANCH  23  24
ATOM     24  O   UNL     1     -35.130  20.418   5.594  0.00  0.00    -0.477 OA
ATOM     25  H   UNL     1     -35.071  20.247   4.675  0.00  0.00    +0.295 HD
ENDBRANCH  23  24
ENDBRANCH  21  23
ENDBRANCH  18  20
ENDBRANCH   6  17
BRANCH  13  26
ATOM     26  O   UNL     1     -36.987  26.328   4.777  0.00  0.00    -0.506 OA
ATOM     27  H   UNL     1     -36.914  26.823   5.570  0.00  0.00    +0.292 HD
ENDBRANCH  13  26
BRANCH  14  28
ATOM     28  O   UNL     1     -38.699  26.661   3.075  0.00  0.00    -0.506 OA
ATOM     29  H   UNL     1     -38.788  27.506   3.469  0.00  0.00    +0.292 HD
ENDBRANCH  14  28
BRANCH  14  30
ATOM     30  C   UNL     1     -38.175  26.381   0.750  0.00  0.00    +0.036 C 
ATOM     31  C   UNL     1     -39.274  25.738   0.321  0.00  0.00    +0.003 C 
BRANCH  31  32
ATOM     32  C   UNL     1     -39.677  25.713  -1.068  0.00  0.00    -0.004 C 
ATOM     33  C   UNL     1     -38.814  25.547  -2.080  0.00  0.00    -0.026 C 
ATOM     34  C   UNL     1     -39.219  25.519  -3.518  0.00  0.00    +0.031 C 
ENDBRANCH  31  32
ENDBRANCH  14  30
TORSDOF 8
ENDMDL
MODEL 5
REMARK VINA RESULT:      -5.8      2.357      4.962
REMARK  Name = 5279576
REMARK  8 active torsions:
REMARK  status: ('A' for Active; 'I' for Inactive)
REMARK    1  A    between atoms: C_6  and  N_17
REMARK    2  A    between atoms: C_13  and  O_26
REMARK    3  A    between atoms: C_14  and  O_28
REMARK    4  A    between atoms: C_14  and  C_30
REMARK    5  A    between atoms: C_18  and  C_20
REMARK    6  A    between atoms: C_21  and  C_23
REMARK    7  A    between atoms: C_23  and  O_24
REMARK    8  A    between atoms: C_31  and  C_32
REMARK                            x       y       z     vdW  Elec       q    Type
REMARK                         _______ _______ _______ _____ _____    ______ ____
ROOT
ATOM      1  O   UNL     1     -36.166  22.354  -2.504  0.00  0.00    -0.447 OA
ATOM      2  O   UNL     1     -34.826  24.199  -2.327  0.00  0.00    -0.248 OA
ATOM      3  O   UNL     1     -38.836  22.675  -2.183  0.00  0.00    -0.288 OA
ATOM      4  C   UNL     1     -35.952  21.451  -0.364  0.00  0.00    +0.099 C 
ATOM      5  C   UNL     1     -36.838  21.472  -1.596  0.00  0.00    +0.196 C 
ATOM      6  C   UNL     1     -35.344  22.867  -0.347  0.00  0.00    +0.154 C 
ATOM      7  C   UNL     1     -36.656  20.981   0.887  0.00  0.00    +0.050 C 
ATOM      8  C   UNL     1     -35.371  23.233  -1.817  0.00  0.00    +0.334 C 
ATOM      9  C   UNL     1     -38.221  22.048  -1.320  0.00  0.00    +0.208 C 
ATOM     10  C   UNL     1     -36.993  20.106  -2.259  0.00  0.00    +0.052 C 
ATOM     11  C   UNL     1     -33.921  22.887   0.202  0.00  0.00    +0.032 C 
ATOM     12  C   UNL     1     -38.842  21.798   0.026  0.00  0.00    +0.050 C 
ATOM     13  C   UNL     1     -38.085  21.274   1.015  0.00  0.00    +0.132 C 
ATOM     14  C   UNL     1     -35.966  20.292   1.814  0.00  0.00    +0.133 C 
ATOM     15  C   UNL     1     -40.291  22.189   0.123  0.00  0.00    +0.037 C 
ENDROOT
BRANCH   6  17
ATOM     16  O   UNL     1     -35.206  23.694   2.422  0.00  0.00    -0.270 OA
ATOM     17  N   UNL     1     -36.141  23.880   0.302  0.00  0.00    -0.295 N 
ATOM     18  C   UNL     1     -36.000  24.208   1.642  0.00  0.00    +0.247 C 
ATOM     19  H   UNL     1     -36.816  24.360  -0.231  0.00  0.00    +0.150 HD
BRANCH  18  20
ATOM     20  C   UNL     1     -36.944  25.285   2.052  0.00  0.00    +0.064 C 
ATOM     21  C   UNL     1     -38.248  25.164   1.778  0.00  0.00    +0.086 C 
BRANCH  21  23
ATOM     22  O   UNL     1     -39.893  26.895   1.455  0.00  0.00    -0.245 OA
ATOM     23  C   UNL     1     -39.175  26.237   2.189  0.00  0.00    +0.338 C 
BRANCH  23  24
ATOM     24  O   UNL     1     -39.103  26.381   3.533  0.00  0.00    -0.477 OA
ATOM     25  H   UNL     1     -38.733  25.700   4.059  0.00  0.00    +0.295 HD
ENDBRANCH  23  24
ENDBRANCH  21  23
ENDBRANCH  18  20
ENDBRANCH   6  17
BRANCH  13  26
ATOM     26  O   UNL     1     -38.590  20.991   2.272  0.00  0.00    -0.506 OA
ATOM     27  H   UNL     1     -39.399  20.527   2.358  0.00  0.00    +0.292 HD
ENDBRANCH  13  26
BRANCH  14  28
ATOM     28  O   UNL     1     -36.570  19.812   2.956  0.00  0.00    -0.506 OA
ATOM     29  H   UNL     1     -37.306  20.262   3.321  0.00  0.00    +0.292 HD
ENDBRANCH  14  28
BRANCH  14  30
ATOM     30  C   UNL     1     -34.552  20.010   1.672  0.00  0.00    +0.036 C 
ATOM     31  C   UNL     1     -34.033  18.889   1.143  0.00  0.00    +0.003 C 
BRANCH  31  32
ATOM     32  C   UNL     1     -32.609  18.662   1.026  0.00  0.00    -0.004 C 
ATOM     33  C   UNL     1     -31.811  19.397   0.238  0.00  0.00    -0.026 C 
ATOM     34  C   UNL     1     -30.340  19.172   0.109  0.00  0.00    +0.031 C 
ENDBRANCH  31  32
ENDBRANCH  14  30
TORSDOF 8
ENDMDL
MODEL 6
REMARK VINA RESULT:      -5.7      1.739      2.188
REMARK  Name = 5279576
REMARK  8 active torsions:
REMARK  status: ('A' for Active; 'I' for Inactive)
REMARK    1  A    between atoms: C_6  and  N_17
REMARK    2  A    between atoms: C_13  and  O_26
REMARK    3  A    between atoms: C_14  and  O_28
REMARK    4  A    between atoms: C_14  and  C_30
REMARK    5  A    between atoms: C_18  and  C_20
REMARK    6  A    between atoms: C_21  and  C_23
REMARK    7  A    between atoms: C_23  and  O_24
REMARK    8  A    between atoms: C_31  and  C_32
REMARK                            x       y       z     vdW  Elec       q    Type
REMARK                         _______ _______ _______ _____ _____    ______ ____
ROOT
ATOM      1  O   UNL     1     -35.271  23.873   4.764  0.00  0.00    -0.447 OA
ATOM      2  O   UNL     1     -36.061  21.878   5.559  0.00  0.00    -0.248 OA
ATOM      3  O   UNL     1     -37.068  25.779   4.078  0.00  0.00    -0.288 OA
ATOM      4  C   UNL     1     -34.892  23.333   2.526  0.00  0.00    +0.099 C 
ATOM      5  C   UNL     1     -35.128  24.491   3.479  0.00  0.00    +0.196 C 
ATOM      6  C   UNL     1     -35.703  22.188   3.162  0.00  0.00    +0.154 C 
ATOM      7  C   UNL     1     -35.173  23.665   1.080  0.00  0.00    +0.050 C 
ATOM      8  C   UNL     1     -35.693  22.577   4.626  0.00  0.00    +0.334 C 
ATOM      9  C   UNL     1     -36.412  25.253   3.178  0.00  0.00    +0.208 C 
ATOM     10  C   UNL     1     -33.967  25.481   3.535  0.00  0.00    +0.052 C 
ATOM     11  C   UNL     1     -35.057  20.823   2.948  0.00  0.00    +0.032 C 
ATOM     12  C   UNL     1     -36.845  25.382   1.745  0.00  0.00    +0.050 C 
ATOM     13  C   UNL     1     -36.223  24.647   0.798  0.00  0.00    +0.132 C 
ATOM     14  C   UNL     1     -34.440  23.083   0.114  0.00  0.00    +0.133 C 
ATOM     15  C   UNL     1     -37.979  26.346   1.524  0.00  0.00    +0.037 C 
ENDROOT
BRANCH   6  17
ATOM     16  O   UNL     1     -36.896  20.706   0.981  0.00  0.00    -0.270 OA
ATOM     17  N   UNL     1     -37.100  22.138   2.801  0.00  0.00    -0.295 N 
ATOM     18  C   UNL     1     -37.578  21.394   1.733  0.00  0.00    +0.247 C 
ATOM     19  H   UNL     1     -37.743  22.656   3.338  0.00  0.00    +0.150 HD
BRANCH  18  20
ATOM     20  C   UNL     1     -39.055  21.519   1.587  0.00  0.00    +0.064 C 
ATOM     21  C   UNL     1     -39.573  21.937   0.425  0.00  0.00    +0.086 C 
BRANCH  21  23
ATOM     22  O   UNL     1     -41.677  23.094   0.225  0.00  0.00    -0.245 OA
ATOM     23  C   UNL     1     -41.038  22.057   0.291  0.00  0.00    +0.338 C 
BRANCH  23  24
ATOM     24  O   UNL     1     -41.574  20.815   0.249  0.00  0.00    -0.477 OA
ATOM     25  H   UNL     1     -41.385  20.201   0.931  0.00  0.00    +0.295 HD
ENDBRANCH  23  24
ENDBRANCH  21  23
ENDBRANCH  18  20
ENDBRANCH   6  17
BRANCH  13  26
ATOM     26  O   UNL     1     -36.546  24.730  -0.545  0.00  0.00    -0.506 OA
ATOM     27  H   UNL     1     -37.268  25.259  -0.821  0.00  0.00    +0.292 HD
ENDBRANCH  13  26
BRANCH  14  28
ATOM     28  O   UNL     1     -34.634  23.377  -1.218  0.00  0.00    -0.506 OA
ATOM     29  H   UNL     1     -34.106  24.029  -1.635  0.00  0.00    +0.292 HD
ENDBRANCH  14  28
BRANCH  14  30
ATOM     30  C   UNL     1     -33.404  22.113   0.409  0.00  0.00    +0.036 C 
ATOM     31  C   UNL     1     -33.262  20.921  -0.193  0.00  0.00    +0.003 C 
BRANCH  31  32
ATOM     32  C   UNL     1     -32.206  19.992   0.142  0.00  0.00    -0.004 C 
ATOM     33  C   UNL     1     -32.406  18.885   0.871  0.00  0.00    -0.026 C 
ATOM     34  C   UNL     1     -31.323  17.918   1.223  0.00  0.00    +0.031 C 
ENDBRANCH  31  32
ENDBRANCH  14  30
TORSDOF 8
ENDMDL
MODEL 7
REMARK VINA RESULT:      -5.7      2.558      5.949
REMARK  Name = 5279576
REMARK  8 active torsions:
REMARK  status: ('A' for Active; 'I' for Inactive)
REMARK    1  A    between atoms: C_6  and  N_17
REMARK    2  A    between atoms: C_13  and  O_26
REMARK    3  A    between atoms: C_14  and  O_28
REMARK    4  A    between atoms: C_14  and  C_30
REMARK    5  A    between atoms: C_18  and  C_20
REMARK    6  A    between atoms: C_21  and  C_23
REMARK    7  A    between atoms: C_23  and  O_24
REMARK    8  A    between atoms: C_31  and  C_32
REMARK                            x       y       z     vdW  Elec       q    Type
REMARK                         _______ _______ _______ _____ _____    ______ ____
ROOT
ATOM      1  O   UNL     1     -37.043  26.671   2.112  0.00  0.00    -0.447 OA
ATOM      2  O   UNL     1     -37.888  25.746   4.026  0.00  0.00    -0.248 OA
ATOM      3  O   UNL     1     -36.881  25.115  -0.099  0.00  0.00    -0.288 OA
ATOM      4  C   UNL     1     -34.752  26.468   2.502  0.00  0.00    +0.099 C 
ATOM      5  C   UNL     1     -35.794  26.639   1.411  0.00  0.00    +0.196 C 
ATOM      6  C   UNL     1     -35.492  25.631   3.563  0.00  0.00    +0.154 C 
ATOM      7  C   UNL     1     -33.426  25.945   2.004  0.00  0.00    +0.050 C 
ATOM      8  C   UNL     1     -36.935  26.018   3.312  0.00  0.00    +0.334 C 
ATOM      9  C   UNL     1     -35.830  25.466   0.439  0.00  0.00    +0.208 C 
ATOM     10  C   UNL     1     -35.640  27.934   0.618  0.00  0.00    +0.052 C 
ATOM     11  C   UNL     1     -35.066  25.978   4.985  0.00  0.00    +0.032 C 
ATOM     12  C   UNL     1     -34.540  24.765   0.119  0.00  0.00    +0.050 C 
ATOM     13  C   UNL     1     -33.440  25.039   0.853  0.00  0.00    +0.132 C 
ATOM     14  C   UNL     1     -32.290  26.347   2.603  0.00  0.00    +0.133 C 
ATOM     15  C   UNL     1     -34.631  23.789  -1.022  0.00  0.00    +0.037 C 
ENDROOT
BRANCH   6  17
ATOM     16  O   UNL     1     -35.978  23.579   5.545  0.00  0.00    -0.270 OA
ATOM     17  N   UNL     1     -35.453  24.201   3.368  0.00  0.00    -0.295 N 
ATOM     18  C   UNL     1     -35.702  23.293   4.385  0.00  0.00    +0.247 C 
ATOM     19  H   UNL     1     -35.239  23.855   2.470  0.00  0.00    +0.150 HD
BRANCH  18  20
ATOM     20  C   UNL     1     -35.597  21.885   3.910  0.00  0.00    +0.064 C 
ATOM     21  C   UNL     1     -35.574  21.628   2.597  0.00  0.00    +0.086 C 
BRANCH  21  23
ATOM     22  O   UNL     1     -34.494  19.705   1.627  0.00  0.00    -0.245 OA
ATOM     23  C   UNL     1     -35.470  20.229   2.137  0.00  0.00    +0.338 C 
BRANCH  23  24
ATOM     24  O   UNL     1     -36.648  19.606   2.373  0.00  0.00    -0.477 OA
ATOM     25  H   UNL     1     -37.052  19.671   3.216  0.00  0.00    +0.295 HD
ENDBRANCH  23  24
ENDBRANCH  21  23
ENDBRANCH  18  20
ENDBRANCH   6  17
BRANCH  13  26
ATOM     26  O   UNL     1     -32.210  24.455   0.603  0.00  0.00    -0.506 OA
ATOM     27  H   UNL     1     -31.456  24.993   0.463  0.00  0.00    +0.292 HD
ENDBRANCH  13  26
BRANCH  14  28
ATOM     28  O   UNL     1     -31.054  25.926   2.165  0.00  0.00    -0.506 OA
ATOM     29  H   UNL     1     -30.384  26.554   1.980  0.00  0.00    +0.292 HD
ENDBRANCH  14  28
BRANCH  14  30
ATOM     30  C   UNL     1     -32.293  27.244   3.741  0.00  0.00    +0.036 C 
ATOM     31  C   UNL     1     -31.928  28.536   3.711  0.00  0.00    +0.003 C 
BRANCH  31  32
ATOM     32  C   UNL     1     -31.953  29.387   4.881  0.00  0.00    -0.004 C 
ATOM     33  C   UNL     1     -31.648  28.952   6.111  0.00  0.00    -0.026 C 
ATOM     34  C   UNL     1     -31.669  29.821   7.326  0.00  0.00    +0.031 C 
ENDBRANCH  31  32
ENDBRANCH  14  30
TORSDOF 8
ENDMDL
MODEL 8
REMARK VINA RESULT:      -5.7      4.345      7.286
REMARK  Name = 5279576
REMARK  8 active torsions:
REMARK  status: ('A' for Active; 'I' for Inactive)
REMARK    1  A    between atoms: C_6  and  N_17
REMARK    2  A    between atoms: C_13  and  O_26
REMARK    3  A    between atoms: C_14  and  O_28
REMARK    4  A    between atoms: C_14  and  C_30
REMARK    5  A    between atoms: C_18  and  C_20
REMARK    6  A    between atoms: C_21  and  C_23
REMARK    7  A    between atoms: C_23  and  O_24
REMARK    8  A    between atoms: C_31  and  C_32
REMARK                            x       y       z     vdW  Elec       q    Type
REMARK                         _______ _______ _______ _____ _____    ______ ____
ROOT
ATOM      1  O   UNL     1     -33.120  30.827   2.103  0.00  0.00    -0.447 OA
ATOM      2  O   UNL     1     -34.227  31.105   4.086  0.00  0.00    -0.248 OA
ATOM      3  O   UNL     1     -34.251  29.245   0.217  0.00  0.00    -0.288 OA
ATOM      4  C   UNL     1     -31.597  29.158   2.682  0.00  0.00    +0.099 C 
ATOM      5  C   UNL     1     -32.302  29.812   1.508  0.00  0.00    +0.196 C 
ATOM      6  C   UNL     1     -32.630  29.275   3.819  0.00  0.00    +0.154 C 
ATOM      7  C   UNL     1     -31.050  27.784   2.378  0.00  0.00    +0.050 C 
ATOM      8  C   UNL     1     -33.410  30.506   3.403  0.00  0.00    +0.334 C 
ATOM      9  C   UNL     1     -33.216  28.851   0.757  0.00  0.00    +0.208 C 
ATOM     10  C   UNL     1     -31.349  30.468   0.512  0.00  0.00    +0.052 C 
ATOM     11  C   UNL     1     -31.979  29.468   5.184  0.00  0.00    +0.032 C 
ATOM     12  C   UNL     1     -32.806  27.409   0.656  0.00  0.00    +0.050 C 
ATOM     13  C   UNL     1     -31.776  26.962   1.406  0.00  0.00    +0.132 C 
ATOM     14  C   UNL     1     -29.916  27.376   2.974  0.00  0.00    +0.133 C 
ATOM     15  C   UNL     1     -33.635  26.594  -0.298  0.00  0.00    +0.037 C 
ENDROOT
BRANCH   6  17
ATOM     16  O   UNL     1     -32.514  26.872   5.426  0.00  0.00    -0.270 OA
ATOM     17  N   UNL     1     -33.611  28.219   3.881  0.00  0.00    -0.295 N 
ATOM     18  C   UNL     1     -33.466  27.100   4.687  0.00  0.00    +0.247 C 
ATOM     19  H   UNL     1     -34.421  28.296   3.326  0.00  0.00    +0.150 HD
BRANCH  18  20
ATOM     20  C   UNL     1     -34.624  26.171   4.561  0.00  0.00    +0.064 C 
ATOM     21  C   UNL     1     -34.837  25.246   5.505  0.00  0.00    +0.086 C 
BRANCH  21  23
ATOM     22  O   UNL     1     -36.007  23.146   5.658  0.00  0.00    -0.245 OA
ATOM     23  C   UNL     1     -35.987  24.331   5.370  0.00  0.00    +0.338 C 
BRANCH  23  24
ATOM     24  O   UNL     1     -37.037  25.023   4.870  0.00  0.00    -0.477 OA
ATOM     25  H   UNL     1     -37.912  24.725   5.025  0.00  0.00    +0.295 HD
ENDBRANCH  23  24
ENDBRANCH  21  23
ENDBRANCH  18  20
ENDBRANCH   6  17
BRANCH  13  26
ATOM     26  O   UNL     1     -31.323  25.655   1.349  0.00  0.00    -0.506 OA
ATOM     27  H   UNL     1     -31.613  25.088   0.662  0.00  0.00    +0.292 HD
ENDBRANCH  13  26
BRANCH  14  28
ATOM     28  O   UNL     1     -29.358  26.145   2.706  0.00  0.00    -0.506 OA
ATOM     29  H   UNL     1     -28.466  25.975   2.935  0.00  0.00    +0.292 HD
ENDBRANCH  14  28
BRANCH  14  30
ATOM     30  C   UNL     1     -29.209  28.201   3.934  0.00  0.00    +0.036 C 
ATOM     31  C   UNL     1     -28.661  27.763   5.079  0.00  0.00    +0.003 C 
BRANCH  31  32
ATOM     32  C   UNL     1     -27.964  28.633   6.000  0.00  0.00    -0.004 C 
ATOM     33  C   UNL     1     -28.538  29.157   7.093  0.00  0.00    -0.026 C 
ATOM     34  C   UNL     1     -27.829  30.056   8.052  0.00  0.00    +0.031 C 
ENDBRANCH  31  32
ENDBRANCH  14  30
TORSDOF 8
ENDMDL
MODEL 9
REMARK VINA RESULT:      -5.6      2.567      4.977
REMARK  Name = 5279576
REMARK  8 active torsions:
REMARK  status: ('A' for Active; 'I' for Inactive)
REMARK    1  A    between atoms: C_6  and  N_17
REMARK    2  A    between atoms: C_13  and  O_26
REMARK    3  A    between atoms: C_14  and  O_28
REMARK    4  A    between atoms: C_14  and  C_30
REMARK    5  A    between atoms: C_18  and  C_20
REMARK    6  A    between atoms: C_21  and  C_23
REMARK    7  A    between atoms: C_23  and  O_24
REMARK    8  A    between atoms: C_31  and  C_32
REMARK                            x       y       z     vdW  Elec       q    Type
REMARK                         _______ _______ _______ _____ _____    ______ ____
ROOT
ATOM      1  O   UNL     1     -37.591  24.789   4.116  0.00  0.00    -0.447 OA
ATOM      2  O   UNL     1     -39.055  26.188   3.050  0.00  0.00    -0.248 OA
ATOM      3  O   UNL     1     -36.030  25.821   6.073  0.00  0.00    -0.288 OA
ATOM      4  C   UNL     1     -35.812  24.787   2.608  0.00  0.00    +0.099 C 
ATOM      5  C   UNL     1     -36.185  24.522   4.055  0.00  0.00    +0.196 C 
ATOM      6  C   UNL     1     -36.783  25.910   2.197  0.00  0.00    +0.154 C 
ATOM      7  C   UNL     1     -34.337  25.028   2.391  0.00  0.00    +0.050 C 
ATOM      8  C   UNL     1     -37.956  25.659   3.122  0.00  0.00    +0.334 C 
ATOM      9  C   UNL     1     -35.485  25.464   5.028  0.00  0.00    +0.208 C 
ATOM     10  C   UNL     1     -35.937  23.082   4.496  0.00  0.00    +0.052 C 
ATOM     11  C   UNL     1     -37.202  25.815   0.734  0.00  0.00    +0.032 C 
ATOM     12  C   UNL     1     -34.091  25.919   4.701  0.00  0.00    +0.050 C 
ATOM     13  C   UNL     1     -33.587  25.671   3.473  0.00  0.00    +0.132 C 
ATOM     14  C   UNL     1     -33.762  24.623   1.245  0.00  0.00    +0.133 C 
ATOM     15  C   UNL     1     -33.396  26.641   5.822  0.00  0.00    +0.037 C 
ENDROOT
BRANCH   6  17
ATOM     16  O   UNL     1     -35.334  27.720   0.466  0.00  0.00    -0.270 OA
ATOM     17  N   UNL     1     -36.350  27.252   2.504  0.00  0.00    -0.295 N 
ATOM     18  C   UNL     1     -35.658  28.046   1.602  0.00  0.00    +0.247 C 
ATOM     19  H   UNL     1     -36.555  27.620   3.394  0.00  0.00    +0.150 HD
BRANCH  18  20
ATOM     20  C   UNL     1     -35.336  29.383   2.175  0.00  0.00    +0.064 C 
ATOM     21  C   UNL     1     -34.204  29.553   2.869  0.00  0.00    +0.086 C 
BRANCH  21  23
ATOM     22  O   UNL     1     -34.099  31.959   2.898  0.00  0.00    -0.245 OA
ATOM     23  C   UNL     1     -33.894  30.882   3.431  0.00  0.00    +0.338 C 
BRANCH  23  24
ATOM     24  O   UNL     1     -33.339  30.718   4.654  0.00  0.00    -0.477 OA
ATOM     25  H   UNL     1     -33.457  31.372   5.315  0.00  0.00    +0.295 HD
ENDBRANCH  23  24
ENDBRANCH  21  23
ENDBRANCH  18  20
ENDBRANCH   6  17
BRANCH  13  26
ATOM     26  O   UNL     1     -32.303  26.035   3.105  0.00  0.00    -0.506 OA
ATOM     27  H   UNL     1     -32.046  26.935   3.129  0.00  0.00    +0.292 HD
ENDBRANCH  13  26
BRANCH  14  28
ATOM     28  O   UNL     1     -32.415  24.790   1.013  0.00  0.00    -0.506 OA
ATOM     29  H   UNL     1     -32.010  24.368   0.281  0.00  0.00    +0.292 HD
ENDBRANCH  14  28
BRANCH  14  30
ATOM     30  C   UNL     1     -34.519  23.989   0.184  0.00  0.00    +0.036 C 
ATOM     31  C   UNL     1     -34.560  22.668  -0.057  0.00  0.00    +0.003 C 
BRANCH  31  32
ATOM     32  C   UNL     1     -35.336  22.089  -1.132  0.00  0.00    -0.004 C 
ATOM     33  C   UNL     1     -36.606  22.434  -1.389  0.00  0.00    -0.026 C 
ATOM     34  C   UNL     1     -37.417  21.843  -2.496  0.00  0.00    +0.031 C 
ENDBRANCH  31  32
ENDBRANCH  14  30
TORSDOF 8
ENDMDL
