MODEL 1
REMARK VINA RESULT:      -6.6      0.000      0.000
REMARK  Name = 54711812
REMARK  8 active torsions:
REMARK  status: ('A' for Active; 'I' for Inactive)
REMARK    1  A    between atoms: C_4  and  C_13
REMARK    2  A    between atoms: C_4  and  O_26
REMARK    3  A    between atoms: C_7  and  C_28
REMARK    4  A    between atoms: C_17  and  C_22
REMARK    5  A    between atoms: C_28  and  C_29
REMARK    6  A    between atoms: C_29  and  O_31
REMARK    7  A    between atoms: C_29  and  C_34
REMARK    8  A    between atoms: C_34  and  O_35
REMARK                            x       y       z     vdW  Elec       q    Type
REMARK                         _______ _______ _______ _____ _____    ______ ____
ROOT
ATOM      1  O   UNL     1     -39.734  23.986   3.494  0.00  0.00    -0.289 OA
ATOM      2  O   UNL     1     -38.427  27.236   0.343  0.00  0.00    -0.270 OA
ATOM      3  N   UNL     1     -40.453  26.683   1.411  0.00  0.00    -0.296 N 
ATOM      4  C   UNL     1     -37.386  24.966   1.971  0.00  0.00    +0.118 C 
ATOM      5  C   UNL     1     -38.636  25.439   1.932  0.00  0.00    +0.119 C 
ATOM      6  C   UNL     1     -39.780  24.918   2.709  0.00  0.00    +0.198 C 
ATOM      7  C   UNL     1     -41.010  25.732   2.371  0.00  0.00    +0.137 C 
ATOM      8  C   UNL     1     -39.098  26.570   1.109  0.00  0.00    +0.252 C 
ATOM      9  H   UNL     1     -41.012  27.376   0.993  0.00  0.00    +0.150 HD
ENDROOT
BRANCH   4  13
ATOM     10  C   UNL     1     -36.115  22.703   2.124  0.00  0.00    +0.012 C 
ATOM     11  C   UNL     1     -35.897  21.539   3.148  0.00  0.00    +0.022 C 
ATOM     12  C   UNL     1     -36.684  22.075   0.811  0.00  0.00    +0.001 C 
ATOM     13  C   UNL     1     -36.961  23.812   2.828  0.00  0.00    +0.065 C 
ATOM     14  C   UNL     1     -34.878  20.529   2.605  0.00  0.00    +0.004 C 
ATOM     15  C   UNL     1     -35.374  19.917   1.293  0.00  0.00    +0.000 C 
ATOM     16  C   UNL     1     -35.703  21.007   0.270  0.00  0.00    +0.000 C 
ATOM     17  C   UNL     1     -36.222  24.356   4.095  0.00  0.00    +0.047 C 
ATOM     18  C   UNL     1     -35.512  21.996   4.528  0.00  0.00    -0.031 C 
ATOM     19  C   UNL     1     -36.954  23.064  -0.327  0.00  0.00    +0.000 C 
ATOM     20  C   UNL     1     -35.662  23.256   4.952  0.00  0.00    -0.027 C 
ATOM     21  C   UNL     1     -34.342  18.940   0.729  0.00  0.00    +0.000 C 
BRANCH  17  22
ATOM     22  C   UNL     1     -35.123  25.338   3.781  0.00  0.00    -0.044 C 
ATOM     23  C   UNL     1     -35.366  26.727   4.308  0.00  0.00    +0.026 C 
ATOM     24  C   UNL     1     -34.000  25.059   3.093  0.00  0.00    -0.034 C 
ATOM     25  C   UNL     1     -32.874  25.977   2.745  0.00  0.00    +0.030 C 
ENDBRANCH  17  22
ENDBRANCH   4  13
BRANCH   4  26
ATOM     26  O   UNL     1     -36.400  25.545   1.194  0.00  0.00    -0.510 OA
ATOM     27  H   UNL     1     -35.498  25.437   1.425  0.00  0.00    +0.292 HD
ENDBRANCH   4  26
BRANCH   7  28
ATOM     28  C   UNL     1     -41.582  26.427   3.589  0.00  0.00    +0.065 C 
BRANCH  28  29
ATOM     29  C   UNL     1     -42.905  27.180   3.337  0.00  0.00    +0.179 C 
ATOM     30  C   UNL     1     -44.093  26.589   4.096  0.00  0.00    +0.041 C 
BRANCH  29  31
ATOM     31  O   UNL     1     -43.188  27.102   1.938  0.00  0.00    -0.376 OA
ATOM     32  H   UNL     1     -42.364  27.205   1.437  0.00  0.00    +0.211 HD
ENDBRANCH  29  31
BRANCH  29  34
ATOM     33  O   UNL     1     -43.246  29.568   2.991  0.00  0.00    -0.248 OA
ATOM     34  C   UNL     1     -42.742  28.665   3.649  0.00  0.00    +0.338 C 
BRANCH  34  35
ATOM     35  O   UNL     1     -41.975  28.906   4.741  0.00  0.00    -0.479 OA
ATOM     36  H   UNL     1     -42.256  29.528   5.383  0.00  0.00    +0.295 HD
ENDBRANCH  34  35
ENDBRANCH  29  34
ENDBRANCH  28  29
ENDBRANCH   7  28
TORSDOF 8
ENDMDL
MODEL 2
REMARK VINA RESULT:      -6.6      3.763      6.009
REMARK  Name = 54711812
REMARK  8 active torsions:
REMARK  status: ('A' for Active; 'I' for Inactive)
REMARK    1  A    between atoms: C_4  and  C_13
REMARK    2  A    between atoms: C_4  and  O_26
REMARK    3  A    between atoms: C_7  and  C_28
REMARK    4  A    between atoms: C_17  and  C_22
REMARK    5  A    between atoms: C_28  and  C_29
REMARK    6  A    between atoms: C_29  and  O_31
REMARK    7  A    between atoms: C_29  and  C_34
REMARK    8  A    between atoms: C_34  and  O_35
REMARK                            x       y       z     vdW  Elec       q    Type
REMARK                         _______ _______ _______ _____ _____    ______ ____
ROOT
ATOM      1  O   UNL     1     -35.153  20.721   3.290  0.00  0.00    -0.289 OA
ATOM      2  O   UNL     1     -37.016  23.273  -0.204  0.00  0.00    -0.270 OA
ATOM      3  N   UNL     1     -37.117  23.360   2.148  0.00  0.00    -0.296 N 
ATOM      4  C   UNL     1     -35.259  20.926   0.334  0.00  0.00    +0.118 C 
ATOM      5  C   UNL     1     -35.868  21.714   1.227  0.00  0.00    +0.119 C 
ATOM      6  C   UNL     1     -35.790  21.575   2.696  0.00  0.00    +0.198 C 
ATOM      7  C   UNL     1     -36.623  22.663   3.334  0.00  0.00    +0.137 C 
ATOM      8  C   UNL     1     -36.726  22.867   0.905  0.00  0.00    +0.252 C 
ATOM      9  H   UNL     1     -37.702  24.147   2.223  0.00  0.00    +0.150 HD
ENDROOT
BRANCH   4  13
ATOM     10  C   UNL     1     -34.648  18.430  -0.066  0.00  0.00    +0.012 C 
ATOM     11  C   UNL     1     -33.742  17.322   0.566  0.00  0.00    +0.022 C 
ATOM     12  C   UNL     1     -36.110  17.880  -0.105  0.00  0.00    +0.001 C 
ATOM     13  C   UNL     1     -34.391  19.762   0.709  0.00  0.00    +0.065 C 
ATOM     14  C   UNL     1     -33.766  16.052  -0.295  0.00  0.00    +0.004 C 
ATOM     15  C   UNL     1     -35.189  15.499  -0.398  0.00  0.00    +0.000 C 
ATOM     16  C   UNL     1     -36.156  16.565  -0.919  0.00  0.00    +0.000 C 
ATOM     17  C   UNL     1     -32.889  20.187   0.605  0.00  0.00    +0.047 C 
ATOM     18  C   UNL     1     -32.329  17.759   0.834  0.00  0.00    -0.031 C 
ATOM     19  C   UNL     1     -37.153  18.825  -0.708  0.00  0.00    +0.000 C 
ATOM     20  C   UNL     1     -31.949  19.041   0.855  0.00  0.00    -0.027 C 
ATOM     21  C   UNL     1     -35.222  14.257  -1.288  0.00  0.00    +0.000 C 
BRANCH  17  22
ATOM     22  C   UNL     1     -32.531  20.835  -0.707  0.00  0.00    -0.044 C 
ATOM     23  C   UNL     1     -32.223  22.305  -0.607  0.00  0.00    +0.026 C 
ATOM     24  C   UNL     1     -32.476  20.208  -1.898  0.00  0.00    -0.034 C 
ATOM     25  C   UNL     1     -32.131  20.785  -3.233  0.00  0.00    +0.030 C 
ENDBRANCH  17  22
ENDBRANCH   4  13
BRANCH   4  26
ATOM     26  O   UNL     1     -35.411  21.163  -1.019  0.00  0.00    -0.510 OA
ATOM     27  H   UNL     1     -34.792  20.812  -1.629  0.00  0.00    +0.292 HD
ENDBRANCH   4  26
BRANCH   7  28
ATOM     28  C   UNL     1     -35.793  23.569   4.219  0.00  0.00    +0.065 C 
BRANCH  28  29
ATOM     29  C   UNL     1     -36.345  25.001   4.372  0.00  0.00    +0.179 C 
ATOM     30  C   UNL     1     -35.858  25.707   5.637  0.00  0.00    +0.041 C 
BRANCH  29  31
ATOM     31  O   UNL     1     -37.770  24.911   4.434  0.00  0.00    -0.376 OA
ATOM     32  H   UNL     1     -38.099  24.452   3.646  0.00  0.00    +0.211 HD
ENDBRANCH  29  31
BRANCH  29  34
ATOM     33  O   UNL     1     -34.989  25.752   2.492  0.00  0.00    -0.248 OA
ATOM     34  C   UNL     1     -36.033  25.830   3.129  0.00  0.00    +0.338 C 
BRANCH  34  35
ATOM     35  O   UNL     1     -37.032  26.680   2.782  0.00  0.00    -0.479 OA
ATOM     36  H   UNL     1     -37.402  27.254   3.423  0.00  0.00    +0.295 HD
ENDBRANCH  34  35
ENDBRANCH  29  34
ENDBRANCH  28  29
ENDBRANCH   7  28
TORSDOF 8
ENDMDL
MODEL 3
REMARK VINA RESULT:      -6.4      3.905      6.291
REMARK  Name = 54711812
REMARK  8 active torsions:
REMARK  status: ('A' for Active; 'I' for Inactive)
REMARK    1  A    between atoms: C_4  and  C_13
REMARK    2  A    between atoms: C_4  and  O_26
REMARK    3  A    between atoms: C_7  and  C_28
REMARK    4  A    between atoms: C_17  and  C_22
REMARK    5  A    between atoms: C_28  and  C_29
REMARK    6  A    between atoms: C_29  and  O_31
REMARK    7  A    between atoms: C_29  and  C_34
REMARK    8  A    between atoms: C_34  and  O_35
REMARK                            x       y       z     vdW  Elec       q    Type
REMARK                         _______ _______ _______ _____ _____    ______ ____
ROOT
ATOM      1  O   UNL     1     -34.159  23.805   2.434  0.00  0.00    -0.289 OA
ATOM      2  O   UNL     1     -37.880  20.974   1.846  0.00  0.00    -0.270 OA
ATOM      3  N   UNL     1     -37.266  22.596   3.441  0.00  0.00    -0.296 N 
ATOM      4  C   UNL     1     -35.259  21.719   0.636  0.00  0.00    +0.118 C 
ATOM      5  C   UNL     1     -35.818  22.213   1.746  0.00  0.00    +0.119 C 
ATOM      6  C   UNL     1     -35.232  23.254   2.616  0.00  0.00    +0.198 C 
ATOM      7  C   UNL     1     -36.182  23.523   3.762  0.00  0.00    +0.137 C 
ATOM      8  C   UNL     1     -37.121  21.811   2.300  0.00  0.00    +0.252 C 
ATOM      9  H   UNL     1     -38.067  22.529   4.008  0.00  0.00    +0.150 HD
ENDROOT
BRANCH   4  13
ATOM     10  C   UNL     1     -32.930  21.029  -0.291  0.00  0.00    +0.012 C 
ATOM     11  C   UNL     1     -31.570  21.698  -0.682  0.00  0.00    +0.022 C 
ATOM     12  C   UNL     1     -32.624  19.922   0.770  0.00  0.00    +0.001 C 
ATOM     13  C   UNL     1     -33.928  22.162   0.107  0.00  0.00    +0.065 C 
ATOM     14  C   UNL     1     -30.624  20.666  -1.308  0.00  0.00    +0.004 C 
ATOM     15  C   UNL     1     -30.328  19.537  -0.319  0.00  0.00    +0.000 C 
ATOM     16  C   UNL     1     -31.623  18.897   0.186  0.00  0.00    +0.000 C 
ATOM     17  C   UNL     1     -34.151  23.152  -1.084  0.00  0.00    +0.047 C 
ATOM     18  C   UNL     1     -31.709  22.904  -1.569  0.00  0.00    -0.031 C 
ATOM     19  C   UNL     1     -33.839  19.138   1.272  0.00  0.00    +0.000 C 
ATOM     20  C   UNL     1     -32.864  23.556  -1.746  0.00  0.00    -0.027 C 
ATOM     21  C   UNL     1     -29.417  18.487  -0.955  0.00  0.00    +0.000 C 
BRANCH  17  22
ATOM     22  C   UNL     1     -35.098  22.632  -2.134  0.00  0.00    -0.044 C 
ATOM     23  C   UNL     1     -36.422  23.348  -2.183  0.00  0.00    +0.026 C 
ATOM     24  C   UNL     1     -34.842  21.619  -2.984  0.00  0.00    -0.034 C 
ATOM     25  C   UNL     1     -35.729  21.054  -4.045  0.00  0.00    +0.030 C 
ENDBRANCH  17  22
ENDBRANCH   4  13
BRANCH   4  26
ATOM     26  O   UNL     1     -35.913  20.745  -0.095  0.00  0.00    -0.510 OA
ATOM     27  H   UNL     1     -35.993  19.877   0.248  0.00  0.00    +0.292 HD
ENDBRANCH   4  26
BRANCH   7  28
ATOM     28  C   UNL     1     -36.654  24.962   3.783  0.00  0.00    +0.065 C 
BRANCH  28  29
ATOM     29  C   UNL     1     -35.798  25.906   4.651  0.00  0.00    +0.179 C 
ATOM     30  C   UNL     1     -34.833  25.168   5.580  0.00  0.00    +0.041 C 
BRANCH  29  31
ATOM     31  O   UNL     1     -36.689  26.678   5.459  0.00  0.00    -0.376 OA
ATOM     32  H   UNL     1     -37.493  26.875   4.955  0.00  0.00    +0.211 HD
ENDBRANCH  29  31
BRANCH  29  34
ATOM     33  O   UNL     1     -34.337  27.806   4.207  0.00  0.00    -0.248 OA
ATOM     34  C   UNL     1     -35.053  26.909   3.776  0.00  0.00    +0.338 C 
BRANCH  34  35
ATOM     35  O   UNL     1     -35.253  26.719   2.447  0.00  0.00    -0.479 OA
ATOM     36  H   UNL     1     -34.644  26.211   1.949  0.00  0.00    +0.295 HD
ENDBRANCH  34  35
ENDBRANCH  29  34
ENDBRANCH  28  29
ENDBRANCH   7  28
TORSDOF 8
ENDMDL
MODEL 4
REMARK VINA RESULT:      -6.2      3.699      6.943
REMARK  Name = 54711812
REMARK  8 active torsions:
REMARK  status: ('A' for Active; 'I' for Inactive)
REMARK    1  A    between atoms: C_4  and  C_13
REMARK    2  A    between atoms: C_4  and  O_26
REMARK    3  A    between atoms: C_7  and  C_28
REMARK    4  A    between atoms: C_17  and  C_22
REMARK    5  A    between atoms: C_28  and  C_29
REMARK    6  A    between atoms: C_29  and  O_31
REMARK    7  A    between atoms: C_29  and  C_34
REMARK    8  A    between atoms: C_34  and  O_35
REMARK                            x       y       z     vdW  Elec       q    Type
REMARK                         _______ _______ _______ _____ _____    ______ ____
ROOT
ATOM      1  O   UNL     1     -32.774  25.568   2.908  0.00  0.00    -0.289 OA
ATOM      2  O   UNL     1     -36.385  25.751   5.929  0.00  0.00    -0.270 OA
ATOM      3  N   UNL     1     -34.157  26.515   5.961  0.00  0.00    -0.296 N 
ATOM      4  C   UNL     1     -35.611  24.763   3.225  0.00  0.00    +0.118 C 
ATOM      5  C   UNL     1     -34.849  25.423   4.105  0.00  0.00    +0.119 C 
ATOM      6  C   UNL     1     -33.435  25.803   3.907  0.00  0.00    +0.198 C 
ATOM      7  C   UNL     1     -32.948  26.531   5.140  0.00  0.00    +0.137 C 
ATOM      8  C   UNL     1     -35.284  25.892   5.430  0.00  0.00    +0.252 C 
ATOM      9  H   UNL     1     -34.175  26.928   6.854  0.00  0.00    +0.150 HD
ENDROOT
BRANCH   4  13
ATOM     10  C   UNL     1     -35.465  22.834   1.488  0.00  0.00    +0.012 C 
ATOM     11  C   UNL     1     -34.756  22.522   0.128  0.00  0.00    +0.022 C 
ATOM     12  C   UNL     1     -35.078  21.702   2.493  0.00  0.00    +0.001 C 
ATOM     13  C   UNL     1     -35.124  24.306   1.883  0.00  0.00    +0.065 C 
ATOM     14  C   UNL     1     -35.240  21.180  -0.435  0.00  0.00    +0.004 C 
ATOM     15  C   UNL     1     -34.920  20.042   0.538  0.00  0.00    +0.000 C 
ATOM     16  C   UNL     1     -35.501  20.326   1.925  0.00  0.00    +0.000 C 
ATOM     17  C   UNL     1     -35.621  25.307   0.787  0.00  0.00    +0.047 C 
ATOM     18  C   UNL     1     -34.888  23.611  -0.900  0.00  0.00    -0.031 C 
ATOM     19  C   UNL     1     -35.691  21.825   3.891  0.00  0.00    +0.000 C 
ATOM     20  C   UNL     1     -35.271  24.858  -0.604  0.00  0.00    -0.027 C 
ATOM     21  C   UNL     1     -35.437  18.709  -0.003  0.00  0.00    +0.000 C 
BRANCH  17  22
ATOM     22  C   UNL     1     -37.099  25.590   0.851  0.00  0.00    -0.044 C 
ATOM     23  C   UNL     1     -37.443  26.974   1.334  0.00  0.00    +0.026 C 
ATOM     24  C   UNL     1     -38.076  24.724   0.521  0.00  0.00    -0.034 C 
ATOM     25  C   UNL     1     -39.555  24.935   0.560  0.00  0.00    +0.030 C 
ENDBRANCH  17  22
ENDBRANCH   4  13
BRANCH   4  26
ATOM     26  O   UNL     1     -36.926  24.468   3.530  0.00  0.00    -0.510 OA
ATOM     27  H   UNL     1     -37.518  24.212   2.851  0.00  0.00    +0.292 HD
ENDBRANCH   4  26
BRANCH   7  28
ATOM     28  C   UNL     1     -32.495  27.941   4.825  0.00  0.00    +0.065 C 
BRANCH  28  29
ATOM     29  C   UNL     1     -31.346  28.460   5.713  0.00  0.00    +0.179 C 
ATOM     30  C   UNL     1     -30.066  28.764   4.933  0.00  0.00    +0.041 C 
BRANCH  29  31
ATOM     31  O   UNL     1     -31.050  27.446   6.675  0.00  0.00    -0.376 OA
ATOM     32  H   UNL     1     -30.091  27.303   6.708  0.00  0.00    +0.211 HD
ENDBRANCH  29  31
BRANCH  29  34
ATOM     33  O   UNL     1     -32.346  30.660   6.029  0.00  0.00    -0.248 OA
ATOM     34  C   UNL     1     -31.798  29.677   6.515  0.00  0.00    +0.338 C 
BRANCH  34  35
ATOM     35  O   UNL     1     -31.537  29.576   7.843  0.00  0.00    -0.479 OA
ATOM     36  H   UNL     1     -32.112  29.087   8.397  0.00  0.00    +0.295 HD
ENDBRANCH  34  35
ENDBRANCH  29  34
ENDBRANCH  28  29
ENDBRANCH   7  28
TORSDOF 8
ENDMDL
MODEL 5
REMARK VINA RESULT:      -6.0      3.995      6.675
REMARK  Name = 54711812
REMARK  8 active torsions:
REMARK  status: ('A' for Active; 'I' for Inactive)
REMARK    1  A    between atoms: C_4  and  C_13
REMARK    2  A    between atoms: C_4  and  O_26
REMARK    3  A    between atoms: C_7  and  C_28
REMARK    4  A    between atoms: C_17  and  C_22
REMARK    5  A    between atoms: C_28  and  C_29
REMARK    6  A    between atoms: C_29  and  O_31
REMARK    7  A    between atoms: C_29  and  C_34
REMARK    8  A    between atoms: C_34  and  O_35
REMARK                            x       y       z     vdW  Elec       q    Type
REMARK                         _______ _______ _______ _____ _____    ______ ____
ROOT
ATOM      1  O   UNL     1     -34.017  24.841   2.119  0.00  0.00    -0.289 OA
ATOM      2  O   UNL     1     -36.269  22.518   5.545  0.00  0.00    -0.270 OA
ATOM      3  N   UNL     1     -34.684  24.260   5.488  0.00  0.00    -0.296 N 
ATOM      4  C   UNL     1     -36.000  22.684   2.581  0.00  0.00    +0.118 C 
ATOM      5  C   UNL     1     -35.366  23.417   3.503  0.00  0.00    +0.119 C 
ATOM      6  C   UNL     1     -34.381  24.485   3.228  0.00  0.00    +0.198 C 
ATOM      7  C   UNL     1     -33.906  25.059   4.544  0.00  0.00    +0.137 C 
ATOM      8  C   UNL     1     -35.539  23.296   4.959  0.00  0.00    +0.252 C 
ATOM      9  H   UNL     1     -34.607  24.396   6.459  0.00  0.00    +0.150 HD
ENDROOT
BRANCH   4  13
ATOM     10  C   UNL     1     -35.568  21.531   0.290  0.00  0.00    +0.012 C 
ATOM     11  C   UNL     1     -35.240  21.929  -1.187  0.00  0.00    +0.022 C 
ATOM     12  C   UNL     1     -34.448  20.555   0.777  0.00  0.00    +0.001 C 
ATOM     13  C   UNL     1     -35.793  22.845   1.105  0.00  0.00    +0.065 C 
ATOM     14  C   UNL     1     -35.243  20.690  -2.091  0.00  0.00    +0.004 C 
ATOM     15  C   UNL     1     -34.188  19.683  -1.627  0.00  0.00    +0.000 C 
ATOM     16  C   UNL     1     -34.387  19.320  -0.153  0.00  0.00    +0.000 C 
ATOM     17  C   UNL     1     -36.977  23.675   0.507  0.00  0.00    +0.047 C 
ATOM     18  C   UNL     1     -36.131  23.002  -1.749  0.00  0.00    -0.031 C 
ATOM     19  C   UNL     1     -34.602  20.040   2.210  0.00  0.00    +0.000 C 
ATOM     20  C   UNL     1     -36.905  23.785  -0.990  0.00  0.00    -0.027 C 
ATOM     21  C   UNL     1     -34.216  18.429  -2.501  0.00  0.00    +0.000 C 
BRANCH  17  22
ATOM     22  C   UNL     1     -38.337  23.156   0.893  0.00  0.00    -0.044 C 
ATOM     23  C   UNL     1     -39.064  24.013   1.896  0.00  0.00    +0.026 C 
ATOM     24  C   UNL     1     -38.907  22.032   0.420  0.00  0.00    -0.034 C 
ATOM     25  C   UNL     1     -40.246  21.459   0.757  0.00  0.00    +0.030 C 
ENDBRANCH  17  22
ENDBRANCH   4  13
BRANCH   4  26
ATOM     26  O   UNL     1     -36.904  21.714   2.968  0.00  0.00    -0.510 OA
ATOM     27  H   UNL     1     -36.693  21.130   3.670  0.00  0.00    +0.292 HD
ENDBRANCH   4  26
BRANCH   7  28
ATOM     28  C   UNL     1     -34.215  26.537   4.662  0.00  0.00    +0.065 C 
BRANCH  28  29
ATOM     29  C   UNL     1     -33.053  27.470   4.264  0.00  0.00    +0.179 C 
ATOM     30  C   UNL     1     -33.473  28.588   3.309  0.00  0.00    +0.041 C 
BRANCH  29  31
ATOM     31  O   UNL     1     -32.063  26.675   3.610  0.00  0.00    -0.376 OA
ATOM     32  H   UNL     1     -32.143  26.784   2.650  0.00  0.00    +0.211 HD
ENDBRANCH  29  31
BRANCH  29  34
ATOM     33  O   UNL     1     -31.805  27.365   6.355  0.00  0.00    -0.248 OA
ATOM     34  C   UNL     1     -32.376  28.041   5.507  0.00  0.00    +0.338 C 
BRANCH  34  35
ATOM     35  O   UNL     1     -32.462  29.393   5.596  0.00  0.00    -0.479 OA
ATOM     36  H   UNL     1     -32.301  29.820   6.414  0.00  0.00    +0.295 HD
ENDBRANCH  34  35
ENDBRANCH  29  34
ENDBRANCH  28  29
ENDBRANCH   7  28
TORSDOF 8
ENDMDL
MODEL 6
REMARK VINA RESULT:      -6.0      4.714      8.210
REMARK  Name = 54711812
REMARK  8 active torsions:
REMARK  status: ('A' for Active; 'I' for Inactive)
REMARK    1  A    between atoms: C_4  and  C_13
REMARK    2  A    between atoms: C_4  and  O_26
REMARK    3  A    between atoms: C_7  and  C_28
REMARK    4  A    between atoms: C_17  and  C_22
REMARK    5  A    between atoms: C_28  and  C_29
REMARK    6  A    between atoms: C_29  and  O_31
REMARK    7  A    between atoms: C_29  and  C_34
REMARK    8  A    between atoms: C_34  and  O_35
REMARK                            x       y       z     vdW  Elec       q    Type
REMARK                         _______ _______ _______ _____ _____    ______ ____
ROOT
ATOM      1  O   UNL     1     -35.655  25.959   2.744  0.00  0.00    -0.289 OA
ATOM      2  O   UNL     1     -32.491  28.066   5.528  0.00  0.00    -0.270 OA
ATOM      3  N   UNL     1     -33.838  26.141   5.709  0.00  0.00    -0.296 N 
ATOM      4  C   UNL     1     -33.825  28.289   2.871  0.00  0.00    +0.118 C 
ATOM      5  C   UNL     1     -34.010  27.348   3.803  0.00  0.00    +0.119 C 
ATOM      6  C   UNL     1     -34.937  26.201   3.700  0.00  0.00    +0.198 C 
ATOM      7  C   UNL     1     -34.842  25.382   4.967  0.00  0.00    +0.137 C 
ATOM      8  C   UNL     1     -33.320  27.283   5.102  0.00  0.00    +0.252 C 
ATOM      9  H   UNL     1     -33.538  25.857   6.602  0.00  0.00    +0.150 HD
ENDROOT
BRANCH   4  13
ATOM     10  C   UNL     1     -35.030  29.713   1.059  0.00  0.00    +0.012 C 
ATOM     11  C   UNL     1     -35.873  29.498  -0.241  0.00  0.00    +0.022 C 
ATOM     12  C   UNL     1     -35.885  30.582   2.038  0.00  0.00    +0.001 C 
ATOM     13  C   UNL     1     -34.550  28.313   1.559  0.00  0.00    +0.065 C 
ATOM     14  C   UNL     1     -36.174  30.843  -0.915  0.00  0.00    +0.004 C 
ATOM     15  C   UNL     1     -36.975  31.748   0.024  0.00  0.00    +0.000 C 
ATOM     16  C   UNL     1     -36.254  31.924   1.363  0.00  0.00    +0.000 C 
ATOM     17  C   UNL     1     -33.674  27.604   0.474  0.00  0.00    +0.047 C 
ATOM     18  C   UNL     1     -35.262  28.535  -1.221  0.00  0.00    -0.031 C 
ATOM     19  C   UNL     1     -35.218  30.913   3.376  0.00  0.00    +0.000 C 
ATOM     20  C   UNL     1     -34.280  27.685  -0.899  0.00  0.00    -0.027 C 
ATOM     21  C   UNL     1     -37.241  33.104  -0.630  0.00  0.00    +0.000 C 
BRANCH  17  22
ATOM     22  C   UNL     1     -32.257  28.112   0.413  0.00  0.00    -0.044 C 
ATOM     23  C   UNL     1     -31.232  27.151   0.953  0.00  0.00    +0.026 C 
ATOM     24  C   UNL     1     -31.877  29.310  -0.070  0.00  0.00    -0.034 C 
ATOM     25  C   UNL     1     -30.498  29.877  -0.161  0.00  0.00    +0.030 C 
ENDBRANCH  17  22
ENDBRANCH   4  13
BRANCH   4  26
ATOM     26  O   UNL     1     -32.924  29.313   3.089  0.00  0.00    -0.510 OA
ATOM     27  H   UNL     1     -32.922  30.063   2.526  0.00  0.00    +0.292 HD
ENDBRANCH   4  26
BRANCH   7  28
ATOM     28  C   UNL     1     -34.392  23.962   4.694  0.00  0.00    +0.065 C 
BRANCH  28  29
ATOM     29  C   UNL     1     -35.540  22.949   4.508  0.00  0.00    +0.179 C 
ATOM     30  C   UNL     1     -35.512  22.243   3.151  0.00  0.00    +0.041 C 
BRANCH  29  31
ATOM     31  O   UNL     1     -36.772  23.666   4.610  0.00  0.00    -0.376 OA
ATOM     32  H   UNL     1     -37.470  23.066   4.915  0.00  0.00    +0.211 HD
ENDBRANCH  29  31
BRANCH  29  34
ATOM     33  O   UNL     1     -35.907  22.189   6.794  0.00  0.00    -0.248 OA
ATOM     34  C   UNL     1     -35.550  21.936   5.649  0.00  0.00    +0.338 C 
BRANCH  34  35
ATOM     35  O   UNL     1     -35.119  20.703   5.281  0.00  0.00    -0.479 OA
ATOM     36  H   UNL     1     -34.527  20.230   5.832  0.00  0.00    +0.295 HD
ENDBRANCH  34  35
ENDBRANCH  29  34
ENDBRANCH  28  29
ENDBRANCH   7  28
TORSDOF 8
ENDMDL
MODEL 7
REMARK VINA RESULT:      -6.0      3.823     11.029
REMARK  Name = 54711812
REMARK  8 active torsions:
REMARK  status: ('A' for Active; 'I' for Inactive)
REMARK    1  A    between atoms: C_4  and  C_13
REMARK    2  A    between atoms: C_4  and  O_26
REMARK    3  A    between atoms: C_7  and  C_28
REMARK    4  A    between atoms: C_17  and  C_22
REMARK    5  A    between atoms: C_28  and  C_29
REMARK    6  A    between atoms: C_29  and  O_31
REMARK    7  A    between atoms: C_29  and  C_34
REMARK    8  A    between atoms: C_34  and  O_35
REMARK                            x       y       z     vdW  Elec       q    Type
REMARK                         _______ _______ _______ _____ _____    ______ ____
ROOT
ATOM      1  O   UNL     1     -42.298  28.854   4.589  0.00  0.00    -0.289 OA
ATOM      2  O   UNL     1     -45.417  26.656   1.823  0.00  0.00    -0.270 OA
ATOM      3  N   UNL     1     -43.065  26.732   1.936  0.00  0.00    -0.296 N 
ATOM      4  C   UNL     1     -45.211  28.513   4.147  0.00  0.00    +0.118 C 
ATOM      5  C   UNL     1     -44.212  27.956   3.453  0.00  0.00    +0.119 C 
ATOM      6  C   UNL     1     -42.770  28.155   3.707  0.00  0.00    +0.198 C 
ATOM      7  C   UNL     1     -41.982  27.349   2.699  0.00  0.00    +0.137 C 
ATOM      8  C   UNL     1     -44.370  27.039   2.312  0.00  0.00    +0.252 C 
ATOM      9  H   UNL     1     -42.880  26.123   1.185  0.00  0.00    +0.150 HD
ENDROOT
BRANCH   4  13
ATOM     10  C   UNL     1     -45.942  30.686   5.374  0.00  0.00    +0.012 C 
ATOM     11  C   UNL     1     -45.471  31.583   6.566  0.00  0.00    +0.022 C 
ATOM     12  C   UNL     1     -46.038  31.596   4.107  0.00  0.00    +0.001 C 
ATOM     13  C   UNL     1     -45.001  29.440   5.306  0.00  0.00    +0.065 C 
ATOM     14  C   UNL     1     -46.491  32.695   6.838  0.00  0.00    +0.004 C 
ATOM     15  C   UNL     1     -46.651  33.591   5.608  0.00  0.00    +0.000 C 
ATOM     16  C   UNL     1     -47.017  32.765   4.373  0.00  0.00    +0.000 C 
ATOM     17  C   UNL     1     -45.064  28.622   6.637  0.00  0.00    +0.047 C 
ATOM     18  C   UNL     1     -45.162  30.821   7.826  0.00  0.00    -0.031 C 
ATOM     19  C   UNL     1     -46.501  30.896   2.827  0.00  0.00    +0.000 C 
ATOM     20  C   UNL     1     -44.977  29.497   7.856  0.00  0.00    -0.027 C 
ATOM     21  C   UNL     1     -47.697  34.676   5.863  0.00  0.00    +0.000 C 
BRANCH  17  22
ATOM     22  C   UNL     1     -46.283  27.744   6.753  0.00  0.00    -0.044 C 
ATOM     23  C   UNL     1     -46.013  26.279   6.531  0.00  0.00    +0.026 C 
ATOM     24  C   UNL     1     -47.530  28.172   7.027  0.00  0.00    -0.034 C 
ATOM     25  C   UNL     1     -48.780  27.363   7.156  0.00  0.00    +0.030 C 
ENDBRANCH  17  22
ENDBRANCH   4  13
BRANCH   4  26
ATOM     26  O   UNL     1     -46.524  28.244   3.810  0.00  0.00    -0.510 OA
ATOM     27  H   UNL     1     -47.053  27.714   4.373  0.00  0.00    +0.292 HD
ENDBRANCH   4  26
BRANCH   7  28
ATOM     28  C   UNL     1     -41.097  26.316   3.364  0.00  0.00    +0.065 C 
BRANCH  28  29
ATOM     29  C   UNL     1     -40.098  25.619   2.417  0.00  0.00    +0.179 C 
ATOM     30  C   UNL     1     -39.674  26.491   1.235  0.00  0.00    +0.041 C 
BRANCH  29  31
ATOM     31  O   UNL     1     -40.736  24.449   1.900  0.00  0.00    -0.376 OA
ATOM     32  H   UNL     1     -40.113  23.707   1.918  0.00  0.00    +0.211 HD
ENDBRANCH  29  31
BRANCH  29  34
ATOM     33  O   UNL     1     -38.606  23.941   3.365  0.00  0.00    -0.248 OA
ATOM     34  C   UNL     1     -38.882  25.123   3.194  0.00  0.00    +0.338 C 
BRANCH  34  35
ATOM     35  O   UNL     1     -38.113  26.125   3.691  0.00  0.00    -0.479 OA
ATOM     36  H   UNL     1     -37.679  26.715   3.107  0.00  0.00    +0.295 HD
ENDBRANCH  34  35
ENDBRANCH  29  34
ENDBRANCH  28  29
ENDBRANCH   7  28
TORSDOF 8
ENDMDL
MODEL 8
REMARK VINA RESULT:      -5.9      3.376      6.675
REMARK  Name = 54711812
REMARK  8 active torsions:
REMARK  status: ('A' for Active; 'I' for Inactive)
REMARK    1  A    between atoms: C_4  and  C_13
REMARK    2  A    between atoms: C_4  and  O_26
REMARK    3  A    between atoms: C_7  and  C_28
REMARK    4  A    between atoms: C_17  and  C_22
REMARK    5  A    between atoms: C_28  and  C_29
REMARK    6  A    between atoms: C_29  and  O_31
REMARK    7  A    between atoms: C_29  and  C_34
REMARK    8  A    between atoms: C_34  and  O_35
REMARK                            x       y       z     vdW  Elec       q    Type
REMARK                         _______ _______ _______ _____ _____    ______ ____
ROOT
ATOM      1  O   UNL     1     -33.410  25.724   2.272  0.00  0.00    -0.289 OA
ATOM      2  O   UNL     1     -36.291  25.589   5.998  0.00  0.00    -0.270 OA
ATOM      3  N   UNL     1     -34.217  26.609   5.542  0.00  0.00    -0.296 N 
ATOM      4  C   UNL     1     -35.995  24.605   3.199  0.00  0.00    +0.118 C 
ATOM      5  C   UNL     1     -35.150  25.379   3.889  0.00  0.00    +0.119 C 
ATOM      6  C   UNL     1     -33.867  25.915   3.387  0.00  0.00    +0.198 C 
ATOM      7  C   UNL     1     -33.222  26.737   4.480  0.00  0.00    +0.137 C 
ATOM      8  C   UNL     1     -35.347  25.841   5.273  0.00  0.00    +0.252 C 
ATOM      9  H   UNL     1     -34.095  27.048   6.415  0.00  0.00    +0.150 HD
ENDROOT
BRANCH   4  13
ATOM     10  C   UNL     1     -35.957  22.641   1.496  0.00  0.00    +0.012 C 
ATOM     11  C   UNL     1     -35.524  22.371   0.016  0.00  0.00    +0.022 C 
ATOM     12  C   UNL     1     -35.200  21.618   2.403  0.00  0.00    +0.001 C 
ATOM     13  C   UNL     1     -35.753  24.162   1.788  0.00  0.00    +0.065 C 
ATOM     14  C   UNL     1     -35.921  20.952  -0.409  0.00  0.00    +0.004 C 
ATOM     15  C   UNL     1     -35.236  19.912   0.481  0.00  0.00    +0.000 C 
ATOM     16  C   UNL     1     -35.535  20.174   1.959  0.00  0.00    +0.000 C 
ATOM     17  C   UNL     1     -36.616  25.036   0.819  0.00  0.00    +0.047 C 
ATOM     18  C   UNL     1     -36.033  23.386  -0.970  0.00  0.00    -0.031 C 
ATOM     19  C   UNL     1     -35.505  21.716   3.900  0.00  0.00    +0.000 C 
ATOM     20  C   UNL     1     -36.518  24.580  -0.610  0.00  0.00    -0.027 C 
ATOM     21  C   UNL     1     -35.662  18.498   0.085  0.00  0.00    +0.000 C 
BRANCH  17  22
ATOM     22  C   UNL     1     -38.070  25.115   1.207  0.00  0.00    -0.044 C 
ATOM     23  C   UNL     1     -38.508  26.474   1.686  0.00  0.00    +0.026 C 
ATOM     24  C   UNL     1     -38.949  24.098   1.153  0.00  0.00    -0.034 C 
ATOM     25  C   UNL     1     -40.398  24.104   1.520  0.00  0.00    +0.030 C 
ENDBRANCH  17  22
ENDBRANCH   4  13
BRANCH   4  26
ATOM     26  O   UNL     1     -37.169  24.169   3.783  0.00  0.00    -0.510 OA
ATOM     27  H   UNL     1     -37.931  24.030   3.255  0.00  0.00    +0.292 HD
ENDBRANCH   4  26
BRANCH   7  28
ATOM     28  C   UNL     1     -33.021  28.179   4.063  0.00  0.00    +0.065 C 
BRANCH  28  29
ATOM     29  C   UNL     1     -32.015  28.965   4.929  0.00  0.00    +0.179 C 
ATOM     30  C   UNL     1     -30.556  28.640   4.609  0.00  0.00    +0.041 C 
BRANCH  29  31
ATOM     31  O   UNL     1     -32.258  28.621   6.295  0.00  0.00    -0.376 OA
ATOM     32  H   UNL     1     -33.143  28.923   6.551  0.00  0.00    +0.211 HD
ENDBRANCH  29  31
BRANCH  29  34
ATOM     33  O   UNL     1     -31.481  31.331   5.170  0.00  0.00    -0.248 OA
ATOM     34  C   UNL     1     -32.276  30.465   4.823  0.00  0.00    +0.338 C 
BRANCH  34  35
ATOM     35  O   UNL     1     -33.491  30.766   4.300  0.00  0.00    -0.479 OA
ATOM     36  H   UNL     1     -33.984  30.107   3.851  0.00  0.00    +0.295 HD
ENDBRANCH  34  35
ENDBRANCH  29  34
ENDBRANCH  28  29
ENDBRANCH   7  28
TORSDOF 8
ENDMDL
MODEL 9
REMARK VINA RESULT:      -5.9      3.146     10.091
REMARK  Name = 54711812
REMARK  8 active torsions:
REMARK  status: ('A' for Active; 'I' for Inactive)
REMARK    1  A    between atoms: C_4  and  C_13
REMARK    2  A    between atoms: C_4  and  O_26
REMARK    3  A    between atoms: C_7  and  C_28
REMARK    4  A    between atoms: C_17  and  C_22
REMARK    5  A    between atoms: C_28  and  C_29
REMARK    6  A    between atoms: C_29  and  O_31
REMARK    7  A    between atoms: C_29  and  C_34
REMARK    8  A    between atoms: C_34  and  O_35
REMARK                            x       y       z     vdW  Elec       q    Type
REMARK                         _______ _______ _______ _____ _____    ______ ____
ROOT
ATOM      1  O   UNL     1     -42.019  26.729   4.018  0.00  0.00    -0.289 OA
ATOM      2  O   UNL     1     -44.037  27.224  -0.211  0.00  0.00    -0.270 OA
ATOM      3  N   UNL     1     -41.932  26.483   0.546  0.00  0.00    -0.296 N 
ATOM      4  C   UNL     1     -44.536  27.588   2.706  0.00  0.00    +0.118 C 
ATOM      5  C   UNL     1     -43.423  27.138   2.115  0.00  0.00    +0.119 C 
ATOM      6  C   UNL     1     -42.187  26.722   2.810  0.00  0.00    +0.198 C 
ATOM      7  C   UNL     1     -41.172  26.284   1.777  0.00  0.00    +0.137 C 
ATOM      8  C   UNL     1     -43.230  26.974   0.665  0.00  0.00    +0.252 C 
ATOM      9  H   UNL     1     -41.544  26.277  -0.335  0.00  0.00    +0.150 HD
ENDROOT
BRANCH   4  13
ATOM     10  C   UNL     1     -45.445  29.010   4.684  0.00  0.00    +0.012 C 
ATOM     11  C   UNL     1     -45.372  29.039   6.247  0.00  0.00    +0.022 C 
ATOM     12  C   UNL     1     -44.951  30.398   4.162  0.00  0.00    +0.001 C 
ATOM     13  C   UNL     1     -44.688  27.736   4.190  0.00  0.00    +0.065 C 
ATOM     14  C   UNL     1     -46.294  30.129   6.807  0.00  0.00    +0.004 C 
ATOM     15  C   UNL     1     -45.875  31.507   6.289  0.00  0.00    +0.000 C 
ATOM     16  C   UNL     1     -45.827  31.526   4.759  0.00  0.00    +0.000 C 
ATOM     17  C   UNL     1     -45.341  26.439   4.772  0.00  0.00    +0.047 C 
ATOM     18  C   UNL     1     -45.652  27.715   6.902  0.00  0.00    -0.031 C 
ATOM     19  C   UNL     1     -44.962  30.571   2.641  0.00  0.00    +0.000 C 
ATOM     20  C   UNL     1     -45.634  26.551   6.242  0.00  0.00    -0.027 C 
ATOM     21  C   UNL     1     -46.816  32.591   6.814  0.00  0.00    +0.000 C 
BRANCH  17  22
ATOM     22  C   UNL     1     -46.598  26.019   4.055  0.00  0.00    -0.044 C 
ATOM     23  C   UNL     1     -46.460  24.749   3.258  0.00  0.00    +0.026 C 
ATOM     24  C   UNL     1     -47.772  26.679   4.084  0.00  0.00    -0.034 C 
ATOM     25  C   UNL     1     -49.052  26.323   3.401  0.00  0.00    +0.030 C 
ENDBRANCH  17  22
ENDBRANCH   4  13
BRANCH   4  26
ATOM     26  O   UNL     1     -45.630  27.945   1.941  0.00  0.00    -0.510 OA
ATOM     27  H   UNL     1     -45.631  27.782   1.018  0.00  0.00    +0.292 HD
ENDBRANCH   4  26
BRANCH   7  28
ATOM     28  C   UNL     1     -40.761  24.838   1.963  0.00  0.00    +0.065 C 
BRANCH  28  29
ATOM     29  C   UNL     1     -39.416  24.641   2.693  0.00  0.00    +0.179 C 
ATOM     30  C   UNL     1     -38.793  23.265   2.456  0.00  0.00    +0.041 C 
BRANCH  29  31
ATOM     31  O   UNL     1     -39.660  24.783   4.094  0.00  0.00    -0.376 OA
ATOM     32  H   UNL     1     -39.101  24.159   4.584  0.00  0.00    +0.211 HD
ENDBRANCH  29  31
BRANCH  29  34
ATOM     33  O   UNL     1     -37.917  25.877   1.222  0.00  0.00    -0.248 OA
ATOM     34  C   UNL     1     -38.439  25.754   2.324  0.00  0.00    +0.338 C 
BRANCH  34  35
ATOM     35  O   UNL     1     -38.193  26.616   3.343  0.00  0.00    -0.479 OA
ATOM     36  H   UNL     1     -37.620  27.345   3.211  0.00  0.00    +0.295 HD
ENDBRANCH  34  35
ENDBRANCH  29  34
ENDBRANCH  28  29
ENDBRANCH   7  28
TORSDOF 8
ENDMDL
