MODEL 1
REMARK VINA RESULT:      -6.3      0.000      0.000
REMARK  Name = 57373302
REMARK  11 active torsions:
REMARK  status: ('A' for Active; 'I' for Inactive)
REMARK    1  A    between atoms: C_2  and  N_8
REMARK    2  A    between atoms: C_3  and  C_14
REMARK    3  A    between atoms: C_4  and  N_27
REMARK    4  A    between atoms: C_6  and  C_32
REMARK    5  A    between atoms: N_13  and  C_16
REMARK    6  A    between atoms: C_16  and  C_17
REMARK    7  A    between atoms: C_17  and  C_18
REMARK    8  A    between atoms: C_18  and  C_19
REMARK    9  A    between atoms: C_19  and  C_20
REMARK   10  A    between atoms: C_20  and  C_21
REMARK   11  A    between atoms: C_32  and  O_33
REMARK                            x       y       z     vdW  Elec       q    Type
REMARK                         _______ _______ _______ _____ _____    ______ ____
ROOT
ATOM      1  O   UNL     1     -36.779  23.675   4.448  0.00  0.00    -0.462 OA
ATOM      2  C   UNL     1     -35.925  25.894   3.792  0.00  0.00    +0.105 C 
ATOM      3  C   UNL     1     -37.135  25.033   4.178  0.00  0.00    +0.257 C 
ATOM      4  C   UNL     1     -34.928  25.888   4.972  0.00  0.00    -0.017 C 
ATOM      5  C   UNL     1     -34.790  24.502   5.541  0.00  0.00    -0.003 C 
ATOM      6  C   UNL     1     -35.668  23.528   5.250  0.00  0.00    +0.208 C 
ENDROOT
BRANCH   2   8
ATOM      7  O   UNL     1     -34.775  27.486   1.654  0.00  0.00    -0.275 OA
ATOM      8  N   UNL     1     -35.322  25.414   2.561  0.00  0.00    -0.304 N 
ATOM      9  C   UNL     1     -34.800  26.259   1.602  0.00  0.00    +0.223 C 
ATOM     10  C   UNL     1     -34.215  25.502   0.440  0.00  0.00    +0.095 C 
ATOM     11  H   UNL     1     -35.282  24.443   2.405  0.00  0.00    +0.149 HD
ENDBRANCH   2   8
BRANCH   3  14
ATOM     12  O   UNL     1     -38.424  25.959   2.395  0.00  0.00    -0.271 OA
ATOM     13  N   UNL     1     -38.785  23.745   3.016  0.00  0.00    -0.301 N 
ATOM     14  C   UNL     1     -38.170  24.983   3.095  0.00  0.00    +0.264 C 
ATOM     15  H   UNL     1     -38.494  23.036   3.634  0.00  0.00    +0.150 HD
BRANCH  13  16
ATOM     16  C   UNL     1     -39.833  23.443   2.069  0.00  0.00    +0.089 C 
BRANCH  16  17
ATOM     17  C   UNL     1     -39.560  22.166   1.280  0.00  0.00    +0.021 C 
BRANCH  17  18
ATOM     18  C   UNL     1     -38.281  21.457   1.737  0.00  0.00    +0.002 C 
BRANCH  18  19
ATOM     19  C   UNL     1     -37.134  21.691   0.748  0.00  0.00    +0.005 C 
BRANCH  19  20
ATOM     20  C   UNL     1     -35.828  22.112   1.432  0.00  0.00    +0.026 C 
BRANCH  20  21
ATOM     21  C   UNL     1     -34.670  21.186   1.154  0.00  0.00    -0.022 C 
ATOM     22  C   UNL     1     -33.655  21.582   0.284  0.00  0.00    -0.004 C 
ATOM     23  C   UNL     1     -34.616  19.934   1.768  0.00  0.00    -0.004 C 
ATOM     24  C   UNL     1     -32.584  20.725   0.027  0.00  0.00    -0.000 C 
ATOM     25  C   UNL     1     -33.545  19.079   1.510  0.00  0.00    -0.000 C 
ATOM     26  C   UNL     1     -32.529  19.473   0.640  0.00  0.00    -0.000 C 
ENDBRANCH  20  21
ENDBRANCH  19  20
ENDBRANCH  18  19
ENDBRANCH  17  18
ENDBRANCH  16  17
ENDBRANCH  13  16
ENDBRANCH   3  14
BRANCH   4  27
ATOM     27  N   UNL     1     -33.635  26.453   4.581  0.00  0.00    +0.386 N 
ATOM     28  H   UNL     1     -33.741  26.976   3.712  0.00  0.00    -0.089 HD
ATOM     29  H   UNL     1     -32.962  25.698   4.444  0.00  0.00    -0.089 HD
ATOM     30  H   UNL     1     -33.301  27.077   5.314  0.00  0.00    -0.089 HD
ENDBRANCH   4  27
BRANCH   6  32
ATOM     31  O   UNL     1     -35.117  21.990   6.976  0.00  0.00    -0.242 OA
ATOM     32  C   UNL     1     -35.430  22.200   5.817  0.00  0.00    +0.372 C 
BRANCH  32  33
ATOM     33  O   UNL     1     -35.610  21.260   4.866  0.00  0.00    -0.475 OA
ATOM     34  H   UNL     1     -34.940  20.625   4.703  0.00  0.00    +0.296 HD
ENDBRANCH  32  33
ENDBRANCH   6  32
TORSDOF 11
ENDMDL
MODEL 2
REMARK VINA RESULT:      -6.2      1.026      1.322
REMARK  Name = 57373302
REMARK  11 active torsions:
REMARK  status: ('A' for Active; 'I' for Inactive)
REMARK    1  A    between atoms: C_2  and  N_8
REMARK    2  A    between atoms: C_3  and  C_14
REMARK    3  A    between atoms: C_4  and  N_27
REMARK    4  A    between atoms: C_6  and  C_32
REMARK    5  A    between atoms: N_13  and  C_16
REMARK    6  A    between atoms: C_16  and  C_17
REMARK    7  A    between atoms: C_17  and  C_18
REMARK    8  A    between atoms: C_18  and  C_19
REMARK    9  A    between atoms: C_19  and  C_20
REMARK   10  A    between atoms: C_20  and  C_21
REMARK   11  A    between atoms: C_32  and  O_33
REMARK                            x       y       z     vdW  Elec       q    Type
REMARK                         _______ _______ _______ _____ _____    ______ ____
ROOT
ATOM      1  O   UNL     1     -36.673  22.939   3.917  0.00  0.00    -0.462 OA
ATOM      2  C   UNL     1     -36.586  25.404   3.890  0.00  0.00    +0.105 C 
ATOM      3  C   UNL     1     -37.445  24.136   3.788  0.00  0.00    +0.257 C 
ATOM      4  C   UNL     1     -35.907  25.421   5.277  0.00  0.00    -0.017 C 
ATOM      5  C   UNL     1     -35.382  24.055   5.627  0.00  0.00    -0.003 C 
ATOM      6  C   UNL     1     -35.765  22.957   4.953  0.00  0.00    +0.208 C 
ENDROOT
BRANCH   2   8
ATOM      7  O   UNL     1     -35.679  27.764   2.463  0.00  0.00    -0.275 OA
ATOM      8  N   UNL     1     -35.622  25.463   2.806  0.00  0.00    -0.304 N 
ATOM      9  C   UNL     1     -35.256  26.643   2.190  0.00  0.00    +0.223 C 
ATOM     10  C   UNL     1     -34.223  26.424   1.117  0.00  0.00    +0.095 C 
ATOM     11  H   UNL     1     -35.210  24.624   2.497  0.00  0.00    +0.149 HD
ENDBRANCH   2   8
BRANCH   3  14
ATOM     12  O   UNL     1     -38.426  25.023   1.801  0.00  0.00    -0.271 OA
ATOM     13  N   UNL     1     -38.470  22.721   2.151  0.00  0.00    -0.301 N 
ATOM     14  C   UNL     1     -38.155  24.031   2.473  0.00  0.00    +0.264 C 
ATOM     15  H   UNL     1     -38.198  22.008   2.772  0.00  0.00    +0.150 HD
BRANCH  13  16
ATOM     16  C   UNL     1     -39.176  22.352   0.946  0.00  0.00    +0.089 C 
BRANCH  16  17
ATOM     17  C   UNL     1     -38.638  21.068   0.323  0.00  0.00    +0.021 C 
BRANCH  17  18
ATOM     18  C   UNL     1     -37.352  20.582   0.998  0.00  0.00    +0.002 C 
BRANCH  18  19
ATOM     19  C   UNL     1     -36.134  20.799   0.093  0.00  0.00    +0.005 C 
BRANCH  19  20
ATOM     20  C   UNL     1     -34.906  21.314   0.853  0.00  0.00    +0.026 C 
BRANCH  20  21
ATOM     21  C   UNL     1     -33.724  20.379   0.802  0.00  0.00    -0.022 C 
ATOM     22  C   UNL     1     -32.577  20.743   0.098  0.00  0.00    -0.004 C 
ATOM     23  C   UNL     1     -33.779  19.150   1.460  0.00  0.00    -0.004 C 
ATOM     24  C   UNL     1     -31.483  19.878   0.051  0.00  0.00    -0.000 C 
ATOM     25  C   UNL     1     -32.685  18.285   1.413  0.00  0.00    -0.000 C 
ATOM     26  C   UNL     1     -31.538  18.648   0.709  0.00  0.00    -0.000 C 
ENDBRANCH  20  21
ENDBRANCH  19  20
ENDBRANCH  18  19
ENDBRANCH  17  18
ENDBRANCH  16  17
ENDBRANCH  13  16
ENDBRANCH   3  14
BRANCH   4  27
ATOM     27  N   UNL     1     -34.864  26.446   5.348  0.00  0.00    +0.386 N 
ATOM     28  H   UNL     1     -35.232  27.331   4.998  0.00  0.00    -0.089 HD
ATOM     29  H   UNL     1     -34.067  26.160   4.779  0.00  0.00    -0.089 HD
ATOM     30  H   UNL     1     -34.565  26.561   6.316  0.00  0.00    -0.089 HD
ENDBRANCH   4  27
BRANCH   6  32
ATOM     31  O   UNL     1     -35.059  20.716   4.596  0.00  0.00    -0.242 OA
ATOM     32  C   UNL     1     -35.170  21.677   5.337  0.00  0.00    +0.372 C 
BRANCH  32  33
ATOM     33  O   UNL     1     -34.769  21.730   6.625  0.00  0.00    -0.475 OA
ATOM     34  H   UNL     1     -35.230  21.242   7.279  0.00  0.00    +0.296 HD
ENDBRANCH  32  33
ENDBRANCH   6  32
TORSDOF 11
ENDMDL
MODEL 3
REMARK VINA RESULT:      -6.2      4.652      7.975
REMARK  Name = 57373302
REMARK  11 active torsions:
REMARK  status: ('A' for Active; 'I' for Inactive)
REMARK    1  A    between atoms: C_2  and  N_8
REMARK    2  A    between atoms: C_3  and  C_14
REMARK    3  A    between atoms: C_4  and  N_27
REMARK    4  A    between atoms: C_6  and  C_32
REMARK    5  A    between atoms: N_13  and  C_16
REMARK    6  A    between atoms: C_16  and  C_17
REMARK    7  A    between atoms: C_17  and  C_18
REMARK    8  A    between atoms: C_18  and  C_19
REMARK    9  A    between atoms: C_19  and  C_20
REMARK   10  A    between atoms: C_20  and  C_21
REMARK   11  A    between atoms: C_32  and  O_33
REMARK                            x       y       z     vdW  Elec       q    Type
REMARK                         _______ _______ _______ _____ _____    ______ ____
ROOT
ATOM      1  O   UNL     1     -36.895  23.347   3.898  0.00  0.00    -0.462 OA
ATOM      2  C   UNL     1     -36.183  25.639   4.469  0.00  0.00    +0.105 C 
ATOM      3  C   UNL     1     -37.339  24.644   4.308  0.00  0.00    +0.257 C 
ATOM      4  C   UNL     1     -35.223  25.099   5.553  0.00  0.00    -0.017 C 
ATOM      5  C   UNL     1     -35.004  23.620   5.376  0.00  0.00    -0.003 C 
ATOM      6  C   UNL     1     -35.801  22.877   4.591  0.00  0.00    +0.208 C 
ENDROOT
BRANCH   2   8
ATOM      7  O   UNL     1     -34.889  28.073   3.558  0.00  0.00    -0.275 OA
ATOM      8  N   UNL     1     -35.510  25.859   3.202  0.00  0.00    -0.304 N 
ATOM      9  C   UNL     1     -34.922  27.061   2.862  0.00  0.00    +0.223 C 
ATOM     10  C   UNL     1     -34.275  27.010   1.504  0.00  0.00    +0.095 C 
ATOM     11  H   UNL     1     -35.470  25.117   2.556  0.00  0.00    +0.149 HD
ENDBRANCH   2   8
BRANCH   3  14
ATOM     12  O   UNL     1     -38.020  25.255   2.103  0.00  0.00    -0.271 OA
ATOM     13  N   UNL     1     -39.592  25.290   3.820  0.00  0.00    -0.301 N 
ATOM     14  C   UNL     1     -38.334  25.086   3.278  0.00  0.00    +0.264 C 
ATOM     15  H   UNL     1     -39.722  25.119   4.781  0.00  0.00    +0.150 HD
BRANCH  13  16
ATOM     16  C   UNL     1     -40.723  25.740   3.042  0.00  0.00    +0.089 C 
BRANCH  16  17
ATOM     17  C   UNL     1     -41.583  26.752   3.791  0.00  0.00    +0.021 C 
BRANCH  17  18
ATOM     18  C   UNL     1     -42.969  26.925   3.162  0.00  0.00    +0.002 C 
BRANCH  18  19
ATOM     19  C   UNL     1     -44.079  26.724   4.199  0.00  0.00    +0.005 C 
BRANCH  19  20
ATOM     20  C   UNL     1     -45.015  27.933   4.318  0.00  0.00    +0.026 C 
BRANCH  20  21
ATOM     21  C   UNL     1     -44.727  28.809   5.511  0.00  0.00    -0.022 C 
ATOM     22  C   UNL     1     -43.763  29.812   5.423  0.00  0.00    -0.004 C 
ATOM     23  C   UNL     1     -45.426  28.615   6.703  0.00  0.00    -0.004 C 
ATOM     24  C   UNL     1     -43.497  30.623   6.528  0.00  0.00    -0.000 C 
ATOM     25  C   UNL     1     -45.160  29.426   7.807  0.00  0.00    -0.000 C 
ATOM     26  C   UNL     1     -44.196  30.429   7.720  0.00  0.00    -0.000 C 
ENDBRANCH  20  21
ENDBRANCH  19  20
ENDBRANCH  18  19
ENDBRANCH  17  18
ENDBRANCH  16  17
ENDBRANCH  13  16
ENDBRANCH   3  14
BRANCH   4  27
ATOM     27  N   UNL     1     -33.963  25.844   5.570  0.00  0.00    +0.386 N 
ATOM     28  H   UNL     1     -33.442  25.649   4.715  0.00  0.00    -0.089 HD
ATOM     29  H   UNL     1     -33.410  25.558   6.378  0.00  0.00    -0.089 HD
ATOM     30  H   UNL     1     -34.159  26.843   5.629  0.00  0.00    -0.089 HD
ENDBRANCH   4  27
BRANCH   6  32
ATOM     31  O   UNL     1     -35.499  20.847   3.391  0.00  0.00    -0.242 OA
ATOM     32  C   UNL     1     -35.485  21.455   4.447  0.00  0.00    +0.372 C 
BRANCH  32  33
ATOM     33  O   UNL     1     -35.182  20.933   5.654  0.00  0.00    -0.475 OA
ATOM     34  H   UNL     1     -35.521  20.094   5.900  0.00  0.00    +0.296 HD
ENDBRANCH  32  33
ENDBRANCH   6  32
TORSDOF 11
ENDMDL
MODEL 4
REMARK VINA RESULT:      -6.0      3.876      7.270
REMARK  Name = 57373302
REMARK  11 active torsions:
REMARK  status: ('A' for Active; 'I' for Inactive)
REMARK    1  A    between atoms: C_2  and  N_8
REMARK    2  A    between atoms: C_3  and  C_14
REMARK    3  A    between atoms: C_4  and  N_27
REMARK    4  A    between atoms: C_6  and  C_32
REMARK    5  A    between atoms: N_13  and  C_16
REMARK    6  A    between atoms: C_16  and  C_17
REMARK    7  A    between atoms: C_17  and  C_18
REMARK    8  A    between atoms: C_18  and  C_19
REMARK    9  A    between atoms: C_19  and  C_20
REMARK   10  A    between atoms: C_20  and  C_21
REMARK   11  A    between atoms: C_32  and  O_33
REMARK                            x       y       z     vdW  Elec       q    Type
REMARK                         _______ _______ _______ _____ _____    ______ ____
ROOT
ATOM      1  O   UNL     1     -36.608  23.466   4.085  0.00  0.00    -0.462 OA
ATOM      2  C   UNL     1     -36.106  25.851   4.465  0.00  0.00    +0.105 C 
ATOM      3  C   UNL     1     -37.173  24.768   4.259  0.00  0.00    +0.257 C 
ATOM      4  C   UNL     1     -35.302  25.505   5.738  0.00  0.00    -0.017 C 
ATOM      5  C   UNL     1     -34.986  24.034   5.782  0.00  0.00    -0.003 C 
ATOM      6  C   UNL     1     -35.614  23.153   4.986  0.00  0.00    +0.208 C 
ENDROOT
BRANCH   2   8
ATOM      7  O   UNL     1     -34.887  28.262   3.403  0.00  0.00    -0.275 OA
ATOM      8  N   UNL     1     -35.255  25.967   3.294  0.00  0.00    -0.304 N 
ATOM      9  C   UNL     1     -34.722  27.168   2.870  0.00  0.00    +0.223 C 
ATOM     10  C   UNL     1     -33.859  27.002   1.648  0.00  0.00    +0.095 C 
ATOM     11  H   UNL     1     -35.049  25.153   2.781  0.00  0.00    +0.149 HD
ENDBRANCH   2   8
BRANCH   3  14
ATOM     12  O   UNL     1     -37.747  24.524   1.955  0.00  0.00    -0.271 OA
ATOM     13  N   UNL     1     -39.076  25.871   3.312  0.00  0.00    -0.301 N 
ATOM     14  C   UNL     1     -38.016  25.020   3.046  0.00  0.00    +0.264 C 
ATOM     15  H   UNL     1     -39.189  26.205   4.231  0.00  0.00    +0.150 HD
BRANCH  13  16
ATOM     16  C   UNL     1     -40.024  26.289   2.306  0.00  0.00    +0.089 C 
BRANCH  16  17
ATOM     17  C   UNL     1     -41.462  25.936   2.675  0.00  0.00    +0.021 C 
BRANCH  17  18
ATOM     18  C   UNL     1     -41.953  26.692   3.913  0.00  0.00    +0.002 C 
BRANCH  18  19
ATOM     19  C   UNL     1     -43.044  27.705   3.549  0.00  0.00    +0.005 C 
BRANCH  19  20
ATOM     20  C   UNL     1     -44.151  27.106   2.674  0.00  0.00    +0.026 C 
BRANCH  20  21
ATOM     21  C   UNL     1     -45.174  26.312   3.446  0.00  0.00    -0.022 C 
ATOM     22  C   UNL     1     -45.776  25.197   2.864  0.00  0.00    -0.004 C 
ATOM     23  C   UNL     1     -45.519  26.694   4.743  0.00  0.00    -0.004 C 
ATOM     24  C   UNL     1     -46.724  24.463   3.578  0.00  0.00    -0.000 C 
ATOM     25  C   UNL     1     -46.466  25.960   5.457  0.00  0.00    -0.000 C 
ATOM     26  C   UNL     1     -47.069  24.845   4.875  0.00  0.00    -0.000 C 
ENDBRANCH  20  21
ENDBRANCH  19  20
ENDBRANCH  18  19
ENDBRANCH  17  18
ENDBRANCH  16  17
ENDBRANCH  13  16
ENDBRANCH   3  14
BRANCH   4  27
ATOM     27  N   UNL     1     -34.098  26.330   5.850  0.00  0.00    +0.386 N 
ATOM     28  H   UNL     1     -33.276  25.728   5.894  0.00  0.00    -0.089 HD
ATOM     29  H   UNL     1     -34.150  26.896   6.697  0.00  0.00    -0.089 HD
ATOM     30  H   UNL     1     -34.027  26.941   5.037  0.00  0.00    -0.089 HD
ENDBRANCH   4  27
BRANCH   6  32
ATOM     31  O   UNL     1     -35.286  20.952   4.150  0.00  0.00    -0.242 OA
ATOM     32  C   UNL     1     -35.211  21.749   5.069  0.00  0.00    +0.372 C 
BRANCH  32  33
ATOM     33  O   UNL     1     -34.751  21.481   6.309  0.00  0.00    -0.475 OA
ATOM     34  H   UNL     1     -34.395  20.636   6.504  0.00  0.00    +0.296 HD
ENDBRANCH  32  33
ENDBRANCH   6  32
TORSDOF 11
ENDMDL
MODEL 5
REMARK VINA RESULT:      -5.7      2.920      5.628
REMARK  Name = 57373302
REMARK  11 active torsions:
REMARK  status: ('A' for Active; 'I' for Inactive)
REMARK    1  A    between atoms: C_2  and  N_8
REMARK    2  A    between atoms: C_3  and  C_14
REMARK    3  A    between atoms: C_4  and  N_27
REMARK    4  A    between atoms: C_6  and  C_32
REMARK    5  A    between atoms: N_13  and  C_16
REMARK    6  A    between atoms: C_16  and  C_17
REMARK    7  A    between atoms: C_17  and  C_18
REMARK    8  A    between atoms: C_18  and  C_19
REMARK    9  A    between atoms: C_19  and  C_20
REMARK   10  A    between atoms: C_20  and  C_21
REMARK   11  A    between atoms: C_32  and  O_33
REMARK                            x       y       z     vdW  Elec       q    Type
REMARK                         _______ _______ _______ _____ _____    ______ ____
ROOT
ATOM      1  O   UNL     1     -37.637  21.738   1.992  0.00  0.00    -0.462 OA
ATOM      2  C   UNL     1     -36.099  23.225   3.221  0.00  0.00    +0.105 C 
ATOM      3  C   UNL     1     -36.317  22.290   2.025  0.00  0.00    +0.257 C 
ATOM      4  C   UNL     1     -37.103  24.395   3.114  0.00  0.00    -0.017 C 
ATOM      5  C   UNL     1     -38.463  23.890   2.714  0.00  0.00    -0.003 C 
ATOM      6  C   UNL     1     -38.641  22.654   2.218  0.00  0.00    +0.208 C 
ENDROOT
BRANCH   2   8
ATOM      7  O   UNL     1     -34.485  23.528   5.615  0.00  0.00    -0.275 OA
ATOM      8  N   UNL     1     -36.233  22.501   4.473  0.00  0.00    -0.304 N 
ATOM      9  C   UNL     1     -35.409  22.721   5.559  0.00  0.00    +0.223 C 
ATOM     10  C   UNL     1     -35.780  21.857   6.734  0.00  0.00    +0.095 C 
ATOM     11  H   UNL     1     -36.944  21.824   4.551  0.00  0.00    +0.149 HD
ENDBRANCH   2   8
BRANCH   3  14
ATOM     12  O   UNL     1     -35.366  20.308   2.956  0.00  0.00    -0.271 OA
ATOM     13  N   UNL     1     -34.554  21.102   0.923  0.00  0.00    -0.301 N 
ATOM     14  C   UNL     1     -35.380  21.121   2.035  0.00  0.00    +0.264 C 
ATOM     15  H   UNL     1     -34.660  21.811   0.249  0.00  0.00    +0.150 HD
BRANCH  13  16
ATOM     16  C   UNL     1     -33.546  20.091   0.705  0.00  0.00    +0.089 C 
BRANCH  16  17
ATOM     17  C   UNL     1     -32.287  20.651   0.050  0.00  0.00    +0.021 C 
BRANCH  17  18
ATOM     18  C   UNL     1     -31.144  19.632   0.009  0.00  0.00    +0.002 C 
BRANCH  18  19
ATOM     19  C   UNL     1     -31.484  18.384   0.831  0.00  0.00    +0.005 C 
BRANCH  19  20
ATOM     20  C   UNL     1     -31.117  17.077   0.118  0.00  0.00    +0.026 C 
BRANCH  20  21
ATOM     21  C   UNL     1     -32.310  16.250  -0.288  0.00  0.00    -0.022 C 
ATOM     22  C   UNL     1     -32.137  15.128  -1.098  0.00  0.00    -0.004 C 
ATOM     23  C   UNL     1     -33.587  16.608   0.145  0.00  0.00    -0.004 C 
ATOM     24  C   UNL     1     -33.241  14.363  -1.475  0.00  0.00    -0.000 C 
ATOM     25  C   UNL     1     -34.690  15.843  -0.232  0.00  0.00    -0.000 C 
ATOM     26  C   UNL     1     -34.519  14.721  -1.041  0.00  0.00    -0.000 C 
ENDBRANCH  20  21
ENDBRANCH  19  20
ENDBRANCH  18  19
ENDBRANCH  17  18
ENDBRANCH  16  17
ENDBRANCH  13  16
ENDBRANCH   3  14
BRANCH   4  27
ATOM     27  N   UNL     1     -37.147  25.176   4.351  0.00  0.00    +0.386 N 
ATOM     28  H   UNL     1     -37.301  26.159   4.127  0.00  0.00    -0.089 HD
ATOM     29  H   UNL     1     -36.262  25.075   4.849  0.00  0.00    -0.089 HD
ATOM     30  H   UNL     1     -37.908  24.838   4.940  0.00  0.00    -0.089 HD
ENDBRANCH   4  27
BRANCH   6  32
ATOM     31  O   UNL     1     -40.829  22.939   1.335  0.00  0.00    -0.242 OA
ATOM     32  C   UNL     1     -40.005  22.237   1.896  0.00  0.00    +0.372 C 
BRANCH  32  33
ATOM     33  O   UNL     1     -40.203  20.969   2.314  0.00  0.00    -0.475 OA
ATOM     34  H   UNL     1     -39.471  20.431   2.543  0.00  0.00    +0.296 HD
ENDBRANCH  32  33
ENDBRANCH   6  32
TORSDOF 11
ENDMDL
MODEL 6
REMARK VINA RESULT:      -5.7      2.838      5.522
REMARK  Name = 57373302
REMARK  11 active torsions:
REMARK  status: ('A' for Active; 'I' for Inactive)
REMARK    1  A    between atoms: C_2  and  N_8
REMARK    2  A    between atoms: C_3  and  C_14
REMARK    3  A    between atoms: C_4  and  N_27
REMARK    4  A    between atoms: C_6  and  C_32
REMARK    5  A    between atoms: N_13  and  C_16
REMARK    6  A    between atoms: C_16  and  C_17
REMARK    7  A    between atoms: C_17  and  C_18
REMARK    8  A    between atoms: C_18  and  C_19
REMARK    9  A    between atoms: C_19  and  C_20
REMARK   10  A    between atoms: C_20  and  C_21
REMARK   11  A    between atoms: C_32  and  O_33
REMARK                            x       y       z     vdW  Elec       q    Type
REMARK                         _______ _______ _______ _____ _____    ______ ____
ROOT
ATOM      1  O   UNL     1     -37.536  21.791   1.838  0.00  0.00    -0.462 OA
ATOM      2  C   UNL     1     -36.232  23.430   3.141  0.00  0.00    +0.105 C 
ATOM      3  C   UNL     1     -36.317  22.537   1.896  0.00  0.00    +0.257 C 
ATOM      4  C   UNL     1     -37.404  24.435   3.099  0.00  0.00    -0.017 C 
ATOM      5  C   UNL     1     -38.675  23.749   2.676  0.00  0.00    -0.003 C 
ATOM      6  C   UNL     1     -38.666  22.528   2.115  0.00  0.00    +0.208 C 
ENDROOT
BRANCH   2   8
ATOM      7  O   UNL     1     -34.659  23.855   5.543  0.00  0.00    -0.275 OA
ATOM      8  N   UNL     1     -36.239  22.630   4.352  0.00  0.00    -0.304 N 
ATOM      9  C   UNL     1     -35.448  22.918   5.447  0.00  0.00    +0.223 C 
ATOM     10  C   UNL     1     -35.668  21.946   6.575  0.00  0.00    +0.095 C 
ATOM     11  H   UNL     1     -36.835  21.848   4.396  0.00  0.00    +0.149 HD
ENDBRANCH   2   8
BRANCH   3  14
ATOM     12  O   UNL     1     -35.071  20.670   2.710  0.00  0.00    -0.271 OA
ATOM     13  N   UNL     1     -34.394  21.706   0.738  0.00  0.00    -0.301 N 
ATOM     14  C   UNL     1     -35.211  21.527   1.842  0.00  0.00    +0.264 C 
ATOM     15  H   UNL     1     -34.608  22.431   0.108  0.00  0.00    +0.150 HD
BRANCH  13  16
ATOM     16  C   UNL     1     -33.242  20.878   0.465  0.00  0.00    +0.089 C 
BRANCH  16  17
ATOM     17  C   UNL     1     -33.610  19.411   0.262  0.00  0.00    +0.021 C 
BRANCH  17  18
ATOM     18  C   UNL     1     -32.885  18.483   1.240  0.00  0.00    +0.002 C 
BRANCH  18  19
ATOM     19  C   UNL     1     -32.442  17.187   0.551  0.00  0.00    +0.005 C 
BRANCH  19  20
ATOM     20  C   UNL     1     -31.441  17.424  -0.585  0.00  0.00    +0.026 C 
BRANCH  20  21
ATOM     21  C   UNL     1     -30.096  17.921  -0.118  0.00  0.00    -0.022 C 
ATOM     22  C   UNL     1     -29.388  17.210   0.850  0.00  0.00    -0.004 C 
ATOM     23  C   UNL     1     -29.561  19.094  -0.653  0.00  0.00    -0.004 C 
ATOM     24  C   UNL     1     -28.144  17.670   1.283  0.00  0.00    -0.000 C 
ATOM     25  C   UNL     1     -28.318  19.553  -0.220  0.00  0.00    -0.000 C 
ATOM     26  C   UNL     1     -27.609  18.842   0.748  0.00  0.00    -0.000 C 
ENDBRANCH  20  21
ENDBRANCH  19  20
ENDBRANCH  18  19
ENDBRANCH  17  18
ENDBRANCH  16  17
ENDBRANCH  13  16
ENDBRANCH   3  14
BRANCH   4  27
ATOM     27  N   UNL     1     -37.555  25.134   4.376  0.00  0.00    +0.386 N 
ATOM     28  H   UNL     1     -37.245  26.101   4.274  0.00  0.00    -0.089 HD
ATOM     29  H   UNL     1     -36.990  24.669   5.087  0.00  0.00    -0.089 HD
ATOM     30  H   UNL     1     -38.535  25.120   4.659  0.00  0.00    -0.089 HD
ENDBRANCH   4  27
BRANCH   6  32
ATOM     31  O   UNL     1     -40.726  22.361   0.940  0.00  0.00    -0.242 OA
ATOM     32  C   UNL     1     -39.954  21.923   1.776  0.00  0.00    +0.372 C 
BRANCH  32  33
ATOM     33  O   UNL     1     -40.149  20.817   2.525  0.00  0.00    -0.475 OA
ATOM     34  H   UNL     1     -39.415  20.300   2.795  0.00  0.00    +0.296 HD
ENDBRANCH  32  33
ENDBRANCH   6  32
TORSDOF 11
ENDMDL
MODEL 7
REMARK VINA RESULT:      -5.7      2.637      6.042
REMARK  Name = 57373302
REMARK  11 active torsions:
REMARK  status: ('A' for Active; 'I' for Inactive)
REMARK    1  A    between atoms: C_2  and  N_8
REMARK    2  A    between atoms: C_3  and  C_14
REMARK    3  A    between atoms: C_4  and  N_27
REMARK    4  A    between atoms: C_6  and  C_32
REMARK    5  A    between atoms: N_13  and  C_16
REMARK    6  A    between atoms: C_16  and  C_17
REMARK    7  A    between atoms: C_17  and  C_18
REMARK    8  A    between atoms: C_18  and  C_19
REMARK    9  A    between atoms: C_19  and  C_20
REMARK   10  A    between atoms: C_20  and  C_21
REMARK   11  A    between atoms: C_32  and  O_33
REMARK                            x       y       z     vdW  Elec       q    Type
REMARK                         _______ _______ _______ _____ _____    ______ ____
ROOT
ATOM      1  O   UNL     1     -37.654  21.289   2.156  0.00  0.00    -0.462 OA
ATOM      2  C   UNL     1     -35.899  21.402   0.427  0.00  0.00    +0.105 C 
ATOM      3  C   UNL     1     -36.480  20.659   1.636  0.00  0.00    +0.257 C 
ATOM      4  C   UNL     1     -36.964  21.423  -0.691  0.00  0.00    -0.017 C 
ATOM      5  C   UNL     1     -38.322  21.735  -0.122  0.00  0.00    -0.003 C 
ATOM      6  C   UNL     1     -38.568  21.667   1.197  0.00  0.00    +0.208 C 
ENDROOT
BRANCH   2   8
ATOM      7  O   UNL     1     -33.249  22.551   0.130  0.00  0.00    -0.275 OA
ATOM      8  N   UNL     1     -35.469  22.738   0.800  0.00  0.00    -0.304 N 
ATOM      9  C   UNL     1     -34.178  23.191   0.616  0.00  0.00    +0.223 C 
ATOM     10  C   UNL     1     -34.010  24.618   1.065  0.00  0.00    +0.095 C 
ATOM     11  H   UNL     1     -36.129  23.349   1.201  0.00  0.00    +0.149 HD
ENDBRANCH   2   8
BRANCH   3  14
ATOM     12  O   UNL     1     -34.491  19.900   2.715  0.00  0.00    -0.271 OA
ATOM     13  N   UNL     1     -35.928  21.322   3.869  0.00  0.00    -0.301 N 
ATOM     14  C   UNL     1     -35.513  20.578   2.777  0.00  0.00    +0.264 C 
ATOM     15  H   UNL     1     -36.770  21.828   3.799  0.00  0.00    +0.150 HD
BRANCH  13  16
ATOM     16  C   UNL     1     -35.184  21.394   5.105  0.00  0.00    +0.089 C 
BRANCH  16  17
ATOM     17  C   UNL     1     -35.224  22.784   5.732  0.00  0.00    +0.021 C 
BRANCH  17  18
ATOM     18  C   UNL     1     -34.464  23.824   4.903  0.00  0.00    +0.002 C 
BRANCH  18  19
ATOM     19  C   UNL     1     -34.593  25.223   5.516  0.00  0.00    +0.005 C 
BRANCH  19  20
ATOM     20  C   UNL     1     -36.009  25.799   5.405  0.00  0.00    +0.026 C 
BRANCH  20  21
ATOM     21  C   UNL     1     -36.484  25.976   3.985  0.00  0.00    -0.022 C 
ATOM     22  C   UNL     1     -35.956  26.995   3.194  0.00  0.00    -0.004 C 
ATOM     23  C   UNL     1     -37.454  25.119   3.463  0.00  0.00    -0.004 C 
ATOM     24  C   UNL     1     -36.396  27.159   1.880  0.00  0.00    -0.000 C 
ATOM     25  C   UNL     1     -37.894  25.282   2.150  0.00  0.00    -0.000 C 
ATOM     26  C   UNL     1     -37.366  26.302   1.358  0.00  0.00    -0.000 C 
ENDBRANCH  20  21
ENDBRANCH  19  20
ENDBRANCH  18  19
ENDBRANCH  17  18
ENDBRANCH  16  17
ENDBRANCH  13  16
ENDBRANCH   3  14
BRANCH   4  27
ATOM     27  N   UNL     1     -36.593  22.345  -1.766  0.00  0.00    +0.386 N 
ATOM     28  H   UNL     1     -37.286  23.090  -1.829  0.00  0.00    -0.089 HD
ATOM     29  H   UNL     1     -36.558  21.838  -2.651  0.00  0.00    -0.089 HD
ATOM     30  H   UNL     1     -35.678  22.748  -1.568  0.00  0.00    -0.089 HD
ENDBRANCH   4  27
BRANCH   6  32
ATOM     31  O   UNL     1     -40.439  23.108   1.468  0.00  0.00    -0.242 OA
ATOM     32  C   UNL     1     -39.907  22.028   1.662  0.00  0.00    +0.372 C 
BRANCH  32  33
ATOM     33  O   UNL     1     -40.452  20.990   2.330  0.00  0.00    -0.475 OA
ATOM     34  H   UNL     1     -40.129  20.758   3.179  0.00  0.00    +0.296 HD
ENDBRANCH  32  33
ENDBRANCH   6  32
TORSDOF 11
ENDMDL
MODEL 8
REMARK VINA RESULT:      -5.6      4.154      5.782
REMARK  Name = 57373302
REMARK  11 active torsions:
REMARK  status: ('A' for Active; 'I' for Inactive)
REMARK    1  A    between atoms: C_2  and  N_8
REMARK    2  A    between atoms: C_3  and  C_14
REMARK    3  A    between atoms: C_4  and  N_27
REMARK    4  A    between atoms: C_6  and  C_32
REMARK    5  A    between atoms: N_13  and  C_16
REMARK    6  A    between atoms: C_16  and  C_17
REMARK    7  A    between atoms: C_17  and  C_18
REMARK    8  A    between atoms: C_18  and  C_19
REMARK    9  A    between atoms: C_19  and  C_20
REMARK   10  A    between atoms: C_20  and  C_21
REMARK   11  A    between atoms: C_32  and  O_33
REMARK                            x       y       z     vdW  Elec       q    Type
REMARK                         _______ _______ _______ _____ _____    ______ ____
ROOT
ATOM      1  O   UNL     1     -30.898  27.693   5.256  0.00  0.00    -0.462 OA
ATOM      2  C   UNL     1     -32.159  29.643   4.423  0.00  0.00    +0.105 C 
ATOM      3  C   UNL     1     -32.200  28.260   5.087  0.00  0.00    +0.257 C 
ATOM      4  C   UNL     1     -31.339  30.592   5.325  0.00  0.00    -0.017 C 
ATOM      5  C   UNL     1     -30.105  29.899   5.837  0.00  0.00    -0.003 C 
ATOM      6  C   UNL     1     -29.960  28.566   5.763  0.00  0.00    +0.208 C 
ENDROOT
BRANCH   2   8
ATOM      7  O   UNL     1     -33.487  30.320   1.932  0.00  0.00    -0.275 OA
ATOM      8  N   UNL     1     -31.613  29.555   3.080  0.00  0.00    -0.304 N 
ATOM      9  C   UNL     1     -32.331  29.903   1.954  0.00  0.00    +0.223 C 
ATOM     10  C   UNL     1     -31.522  29.741   0.695  0.00  0.00    +0.095 C 
ATOM     11  H   UNL     1     -30.689  29.233   2.968  0.00  0.00    +0.149 HD
ENDBRANCH   2   8
BRANCH   3  14
ATOM     12  O   UNL     1     -32.462  26.579   3.413  0.00  0.00    -0.271 OA
ATOM     13  N   UNL     1     -34.323  27.249   4.640  0.00  0.00    -0.301 N 
ATOM     14  C   UNL     1     -32.984  27.265   4.287  0.00  0.00    +0.264 C 
ATOM     15  H   UNL     1     -34.626  27.848   5.361  0.00  0.00    +0.150 HD
BRANCH  13  16
ATOM     16  C   UNL     1     -35.298  26.393   4.004  0.00  0.00    +0.089 C 
BRANCH  16  17
ATOM     17  C   UNL     1     -35.943  25.414   4.979  0.00  0.00    +0.021 C 
BRANCH  17  18
ATOM     18  C   UNL     1     -34.925  24.466   5.619  0.00  0.00    +0.002 C 
BRANCH  18  19
ATOM     19  C   UNL     1     -35.297  23.000   5.368  0.00  0.00    +0.005 C 
BRANCH  19  20
ATOM     20  C   UNL     1     -36.199  22.812   4.143  0.00  0.00    +0.026 C 
BRANCH  20  21
ATOM     21  C   UNL     1     -35.508  22.156   2.974  0.00  0.00    -0.022 C 
ATOM     22  C   UNL     1     -35.395  20.767   2.920  0.00  0.00    -0.004 C 
ATOM     23  C   UNL     1     -34.982  22.940   1.946  0.00  0.00    -0.004 C 
ATOM     24  C   UNL     1     -34.754  20.161   1.839  0.00  0.00    -0.000 C 
ATOM     25  C   UNL     1     -34.342  22.333   0.865  0.00  0.00    -0.000 C 
ATOM     26  C   UNL     1     -34.228  20.944   0.811  0.00  0.00    -0.000 C 
ENDBRANCH  20  21
ENDBRANCH  19  20
ENDBRANCH  18  19
ENDBRANCH  17  18
ENDBRANCH  16  17
ENDBRANCH  13  16
ENDBRANCH   3  14
BRANCH   4  27
ATOM     27  N   UNL     1     -31.022  31.843   4.635  0.00  0.00    +0.386 N 
ATOM     28  H   UNL     1     -31.759  32.525   4.812  0.00  0.00    -0.089 HD
ATOM     29  H   UNL     1     -30.952  31.670   3.632  0.00  0.00    -0.089 HD
ATOM     30  H   UNL     1     -30.133  32.206   4.979  0.00  0.00    -0.089 HD
ENDBRANCH   4  27
BRANCH   6  32
ATOM     31  O   UNL     1     -27.597  28.355   5.908  0.00  0.00    -0.242 OA
ATOM     32  C   UNL     1     -28.708  27.986   6.249  0.00  0.00    +0.372 C 
BRANCH  32  33
ATOM     33  O   UNL     1     -28.975  26.992   7.121  0.00  0.00    -0.475 OA
ATOM     34  H   UNL     1     -28.509  26.181   7.065  0.00  0.00    +0.296 HD
ENDBRANCH  32  33
ENDBRANCH   6  32
TORSDOF 11
ENDMDL
MODEL 9
REMARK VINA RESULT:      -5.5      2.123      3.931
REMARK  Name = 57373302
REMARK  11 active torsions:
REMARK  status: ('A' for Active; 'I' for Inactive)
REMARK    1  A    between atoms: C_2  and  N_8
REMARK    2  A    between atoms: C_3  and  C_14
REMARK    3  A    between atoms: C_4  and  N_27
REMARK    4  A    between atoms: C_6  and  C_32
REMARK    5  A    between atoms: N_13  and  C_16
REMARK    6  A    between atoms: C_16  and  C_17
REMARK    7  A    between atoms: C_17  and  C_18
REMARK    8  A    between atoms: C_18  and  C_19
REMARK    9  A    between atoms: C_19  and  C_20
REMARK   10  A    between atoms: C_20  and  C_21
REMARK   11  A    between atoms: C_32  and  O_33
REMARK                            x       y       z     vdW  Elec       q    Type
REMARK                         _______ _______ _______ _____ _____    ______ ____
ROOT
ATOM      1  O   UNL     1     -33.973  25.130   3.044  0.00  0.00    -0.462 OA
ATOM      2  C   UNL     1     -35.915  26.643   3.203  0.00  0.00    +0.105 C 
ATOM      3  C   UNL     1     -35.056  25.563   3.873  0.00  0.00    +0.257 C 
ATOM      4  C   UNL     1     -35.019  27.867   2.912  0.00  0.00    -0.017 C 
ATOM      5  C   UNL     1     -33.689  27.429   2.360  0.00  0.00    -0.003 C 
ATOM      6  C   UNL     1     -33.275  26.154   2.442  0.00  0.00    +0.208 C 
ENDROOT
BRANCH   2   8
ATOM      7  O   UNL     1     -38.749  26.629   2.570  0.00  0.00    -0.275 OA
ATOM      8  N   UNL     1     -36.548  26.128   2.002  0.00  0.00    -0.304 N 
ATOM      9  C   UNL     1     -37.913  26.169   1.796  0.00  0.00    +0.223 C 
ATOM     10  C   UNL     1     -38.300  25.592   0.461  0.00  0.00    +0.095 C 
ATOM     11  H   UNL     1     -35.978  25.733   1.303  0.00  0.00    +0.149 HD
ENDBRANCH   2   8
BRANCH   3  14
ATOM     12  O   UNL     1     -36.998  24.390   4.615  0.00  0.00    -0.271 OA
ATOM     13  N   UNL     1     -35.105  23.174   4.016  0.00  0.00    -0.301 N 
ATOM     14  C   UNL     1     -35.842  24.331   4.205  0.00  0.00    +0.264 C 
ATOM     15  H   UNL     1     -34.183  23.254   3.681  0.00  0.00    +0.150 HD
BRANCH  13  16
ATOM     16  C   UNL     1     -35.626  21.854   4.285  0.00  0.00    +0.089 C 
BRANCH  16  17
ATOM     17  C   UNL     1     -35.342  20.870   3.155  0.00  0.00    +0.021 C 
BRANCH  17  18
ATOM     18  C   UNL     1     -35.477  21.513   1.771  0.00  0.00    +0.002 C 
BRANCH  18  19
ATOM     19  C   UNL     1     -34.546  20.842   0.754  0.00  0.00    +0.005 C 
BRANCH  19  20
ATOM     20  C   UNL     1     -33.989  19.500   1.245  0.00  0.00    +0.026 C 
BRANCH  20  21
ATOM     21  C   UNL     1     -32.560  19.249   0.837  0.00  0.00    -0.022 C 
ATOM     22  C   UNL     1     -31.884  20.183   0.053  0.00  0.00    -0.004 C 
ATOM     23  C   UNL     1     -31.914  18.081   1.244  0.00  0.00    -0.004 C 
ATOM     24  C   UNL     1     -30.560  19.950  -0.324  0.00  0.00    -0.000 C 
ATOM     25  C   UNL     1     -30.591  17.849   0.867  0.00  0.00    -0.000 C 
ATOM     26  C   UNL     1     -29.915  18.782   0.083  0.00  0.00    -0.000 C 
ENDBRANCH  20  21
ENDBRANCH  19  20
ENDBRANCH  18  19
ENDBRANCH  17  18
ENDBRANCH  16  17
ENDBRANCH  13  16
ENDBRANCH   3  14
BRANCH   4  27
ATOM     27  N   UNL     1     -35.692  28.824   2.032  0.00  0.00    +0.386 N 
ATOM     28  H   UNL     1     -36.606  29.058   2.419  0.00  0.00    -0.089 HD
ATOM     29  H   UNL     1     -35.810  28.411   1.106  0.00  0.00    -0.089 HD
ATOM     30  H   UNL     1     -35.128  29.671   1.956  0.00  0.00    -0.089 HD
ENDBRANCH   4  27
BRANCH   6  32
ATOM     31  O   UNL     1     -31.849  25.267   0.760  0.00  0.00    -0.242 OA
ATOM     32  C   UNL     1     -31.985  25.814   1.841  0.00  0.00    +0.372 C 
BRANCH  32  33
ATOM     33  O   UNL     1     -30.985  26.196   2.662  0.00  0.00    -0.475 OA
ATOM     34  H   UNL     1     -30.096  26.146   2.372  0.00  0.00    +0.296 HD
ENDBRANCH  32  33
ENDBRANCH   6  32
TORSDOF 11
ENDMDL
