MODEL 1
REMARK VINA RESULT:      -5.4      0.000      0.000
REMARK  Name = 5287432
REMARK  8 active torsions:
REMARK  status: ('A' for Active; 'I' for Inactive)
REMARK    1  A    between atoms: C_1  and  C_18
REMARK    2  A    between atoms: C_2  and  O_7
REMARK    3  A    between atoms: C_3  and  C_10
REMARK    4  A    between atoms: C_10  and  C_11
REMARK    5  A    between atoms: C_11  and  C_12
REMARK    6  A    between atoms: C_12  and  C_14
REMARK    7  A    between atoms: C_14  and  O_15
REMARK    8  A    between atoms: C_18  and  O_19
REMARK                            x       y       z     vdW  Elec       q    Type
REMARK                         _______ _______ _______ _____ _____    ______ ____
ROOT
ATOM      1  C   UNL     1     -37.530  22.952   3.124  0.00  0.00    +0.112 C 
ATOM      2  C   UNL     1     -38.020  22.217   1.852  0.00  0.00    +0.140 C 
ATOM      3  C   UNL     1     -36.060  22.796   3.409  0.00  0.00    +0.044 C 
ATOM      4  C   UNL     1     -36.930  21.788   0.907  0.00  0.00    +0.037 C 
ATOM      5  C   UNL     1     -35.191  22.285   2.526  0.00  0.00    +0.003 C 
ATOM      6  C   UNL     1     -35.629  21.845   1.225  0.00  0.00    +0.003 C 
ENDROOT
BRANCH   2   7
ATOM      7  O   UNL     1     -38.740  21.044   2.231  0.00  0.00    -0.505 OA
ATOM      8  H   UNL     1     -38.778  20.987   3.199  0.00  0.00    +0.292 HD
ENDBRANCH   2   7
BRANCH   3  10
ATOM      9  O   UNL     1     -36.039  22.724   5.749  0.00  0.00    -0.291 OA
ATOM     10  C   UNL     1     -35.536  23.184   4.723  0.00  0.00    +0.174 C 
BRANCH  10  11
ATOM     11  C   UNL     1     -34.362  24.153   4.729  0.00  0.00    +0.081 C 
BRANCH  11  12
ATOM     12  C   UNL     1     -34.562  25.352   5.647  0.00  0.00    +0.117 C 
BRANCH  12  14
ATOM     13  O   UNL     1     -34.969  27.118   4.049  0.00  0.00    -0.250 OA
ATOM     14  C   UNL     1     -35.378  26.428   4.974  0.00  0.00    +0.314 C 
BRANCH  14  15
ATOM     15  O   UNL     1     -36.627  26.535   5.488  0.00  0.00    -0.480 OA
ATOM     16  H   UNL     1     -37.361  26.204   5.009  0.00  0.00    +0.295 HD
ENDBRANCH  14  15
ENDBRANCH  12  14
ENDBRANCH  11  12
ENDBRANCH  10  11
ENDBRANCH   3  10
BRANCH   1  18
ATOM     17  O   UNL     1     -37.331  25.120   2.066  0.00  0.00    -0.245 OA
ATOM     18  C   UNL     1     -37.771  24.427   2.972  0.00  0.00    +0.341 C 
BRANCH  18  19
ATOM     19  O   UNL     1     -38.546  24.893   3.982  0.00  0.00    -0.477 OA
ATOM     20  H   UNL     1     -38.986  24.291   4.550  0.00  0.00    +0.295 HD
ENDBRANCH  18  19
ENDBRANCH   1  18
TORSDOF 8
ENDMDL
MODEL 2
REMARK VINA RESULT:      -5.4      1.650      4.910
REMARK  Name = 5287432
REMARK  8 active torsions:
REMARK  status: ('A' for Active; 'I' for Inactive)
REMARK    1  A    between atoms: C_1  and  C_18
REMARK    2  A    between atoms: C_2  and  O_7
REMARK    3  A    between atoms: C_3  and  C_10
REMARK    4  A    between atoms: C_10  and  C_11
REMARK    5  A    between atoms: C_11  and  C_12
REMARK    6  A    between atoms: C_12  and  C_14
REMARK    7  A    between atoms: C_14  and  O_15
REMARK    8  A    between atoms: C_18  and  O_19
REMARK                            x       y       z     vdW  Elec       q    Type
REMARK                         _______ _______ _______ _____ _____    ______ ____
ROOT
ATOM      1  C   UNL     1     -36.193  24.470   4.749  0.00  0.00    +0.112 C 
ATOM      2  C   UNL     1     -35.620  25.826   5.231  0.00  0.00    +0.140 C 
ATOM      3  C   UNL     1     -36.108  24.248   3.263  0.00  0.00    +0.044 C 
ATOM      4  C   UNL     1     -34.746  26.536   4.233  0.00  0.00    +0.037 C 
ATOM      5  C   UNL     1     -35.385  25.024   2.444  0.00  0.00    +0.003 C 
ATOM      6  C   UNL     1     -34.632  26.141   2.957  0.00  0.00    +0.003 C 
ENDROOT
BRANCH   2   7
ATOM      7  O   UNL     1     -36.698  26.706   5.554  0.00  0.00    -0.505 OA
ATOM      8  H   UNL     1     -36.342  27.562   5.839  0.00  0.00    +0.292 HD
ENDBRANCH   2   7
BRANCH   3  10
ATOM      9  O   UNL     1     -37.943  22.797   3.151  0.00  0.00    -0.291 OA
ATOM     10  C   UNL     1     -36.874  23.155   2.653  0.00  0.00    +0.174 C 
BRANCH  10  11
ATOM     11  C   UNL     1     -36.281  22.524   1.401  0.00  0.00    +0.081 C 
BRANCH  11  12
ATOM     12  C   UNL     1     -35.209  21.480   1.691  0.00  0.00    +0.117 C 
BRANCH  12  14
ATOM     13  O   UNL     1     -35.073  20.457   3.875  0.00  0.00    -0.250 OA
ATOM     14  C   UNL     1     -35.640  20.545   2.794  0.00  0.00    +0.314 C 
BRANCH  14  15
ATOM     15  O   UNL     1     -36.740  19.825   2.469  0.00  0.00    -0.480 OA
ATOM     16  H   UNL     1     -36.769  18.906   2.649  0.00  0.00    +0.295 HD
ENDBRANCH  14  15
ENDBRANCH  12  14
ENDBRANCH  11  12
ENDBRANCH  10  11
ENDBRANCH   3  10
BRANCH   1  18
ATOM     17  O   UNL     1     -34.201  23.296   5.465  0.00  0.00    -0.245 OA
ATOM     18  C   UNL     1     -35.420  23.349   5.384  0.00  0.00    +0.341 C 
BRANCH  18  19
ATOM     19  O   UNL     1     -36.258  22.394   5.856  0.00  0.00    -0.477 OA
ATOM     20  H   UNL     1     -36.969  22.633   6.419  0.00  0.00    +0.295 HD
ENDBRANCH  18  19
ENDBRANCH   1  18
TORSDOF 8
ENDMDL
MODEL 3
REMARK VINA RESULT:      -5.1      1.695      5.265
REMARK  Name = 5287432
REMARK  8 active torsions:
REMARK  status: ('A' for Active; 'I' for Inactive)
REMARK    1  A    between atoms: C_1  and  C_18
REMARK    2  A    between atoms: C_2  and  O_7
REMARK    3  A    between atoms: C_3  and  C_10
REMARK    4  A    between atoms: C_10  and  C_11
REMARK    5  A    between atoms: C_11  and  C_12
REMARK    6  A    between atoms: C_12  and  C_14
REMARK    7  A    between atoms: C_14  and  O_15
REMARK    8  A    between atoms: C_18  and  O_19
REMARK                            x       y       z     vdW  Elec       q    Type
REMARK                         _______ _______ _______ _____ _____    ______ ____
ROOT
ATOM      1  C   UNL     1     -35.849  24.096   4.916  0.00  0.00    +0.112 C 
ATOM      2  C   UNL     1     -35.311  25.386   5.584  0.00  0.00    +0.140 C 
ATOM      3  C   UNL     1     -35.464  23.934   3.470  0.00  0.00    +0.044 C 
ATOM      4  C   UNL     1     -34.204  26.076   4.833  0.00  0.00    +0.037 C 
ATOM      5  C   UNL     1     -34.539  24.693   2.866  0.00  0.00    +0.003 C 
ATOM      6  C   UNL     1     -33.847  25.731   3.588  0.00  0.00    +0.003 C 
ENDROOT
BRANCH   2   7
ATOM      7  O   UNL     1     -36.378  26.325   5.726  0.00  0.00    -0.505 OA
ATOM      8  H   UNL     1     -36.889  26.116   6.524  0.00  0.00    +0.292 HD
ENDBRANCH   2   7
BRANCH   3  10
ATOM      9  O   UNL     1     -37.344  22.694   2.829  0.00  0.00    -0.291 OA
ATOM     10  C   UNL     1     -36.147  22.926   2.651  0.00  0.00    +0.174 C 
BRANCH  10  11
ATOM     11  C   UNL     1     -35.305  22.219   1.599  0.00  0.00    +0.081 C 
BRANCH  11  12
ATOM     12  C   UNL     1     -34.939  20.787   1.969  0.00  0.00    +0.117 C 
BRANCH  12  14
ATOM     13  O   UNL     1     -36.086  19.246   0.503  0.00  0.00    -0.250 OA
ATOM     14  C   UNL     1     -36.034  19.824   1.581  0.00  0.00    +0.314 C 
BRANCH  14  15
ATOM     15  O   UNL     1     -36.949  19.650   2.565  0.00  0.00    -0.480 OA
ATOM     16  H   UNL     1     -37.645  20.267   2.672  0.00  0.00    +0.295 HD
ENDBRANCH  14  15
ENDBRANCH  12  14
ENDBRANCH  11  12
ENDBRANCH  10  11
ENDBRANCH   3  10
BRANCH   1  18
ATOM     17  O   UNL     1     -34.127  22.537   5.597  0.00  0.00    -0.245 OA
ATOM     18  C   UNL     1     -35.295  22.897   5.631  0.00  0.00    +0.341 C 
BRANCH  18  19
ATOM     19  O   UNL     1     -36.270  22.259   6.324  0.00  0.00    -0.477 OA
ATOM     20  H   UNL     1     -36.625  21.454   5.999  0.00  0.00    +0.295 HD
ENDBRANCH  18  19
ENDBRANCH   1  18
TORSDOF 8
ENDMDL
MODEL 4
REMARK VINA RESULT:      -5.1      1.554      4.436
REMARK  Name = 5287432
REMARK  8 active torsions:
REMARK  status: ('A' for Active; 'I' for Inactive)
REMARK    1  A    between atoms: C_1  and  C_18
REMARK    2  A    between atoms: C_2  and  O_7
REMARK    3  A    between atoms: C_3  and  C_10
REMARK    4  A    between atoms: C_10  and  C_11
REMARK    5  A    between atoms: C_11  and  C_12
REMARK    6  A    between atoms: C_12  and  C_14
REMARK    7  A    between atoms: C_14  and  O_15
REMARK    8  A    between atoms: C_18  and  O_19
REMARK                            x       y       z     vdW  Elec       q    Type
REMARK                         _______ _______ _______ _____ _____    ______ ____
ROOT
ATOM      1  C   UNL     1     -35.895  24.047   4.942  0.00  0.00    +0.112 C 
ATOM      2  C   UNL     1     -35.331  25.360   5.540  0.00  0.00    +0.140 C 
ATOM      3  C   UNL     1     -35.568  23.832   3.489  0.00  0.00    +0.044 C 
ATOM      4  C   UNL     1     -34.255  26.020   4.721  0.00  0.00    +0.037 C 
ATOM      5  C   UNL     1     -34.667  24.566   2.822  0.00  0.00    +0.003 C 
ATOM      6  C   UNL     1     -33.947  25.629   3.477  0.00  0.00    +0.003 C 
ENDROOT
BRANCH   2   7
ATOM      7  O   UNL     1     -36.392  26.305   5.690  0.00  0.00    -0.505 OA
ATOM      8  H   UNL     1     -36.952  26.291   4.898  0.00  0.00    +0.292 HD
ENDBRANCH   2   7
BRANCH   3  10
ATOM      9  O   UNL     1     -35.661  21.864   2.222  0.00  0.00    -0.291 OA
ATOM     10  C   UNL     1     -36.283  22.795   2.736  0.00  0.00    +0.174 C 
BRANCH  10  11
ATOM     11  C   UNL     1     -37.796  22.942   2.645  0.00  0.00    +0.081 C 
BRANCH  11  12
ATOM     12  C   UNL     1     -38.249  24.297   2.116  0.00  0.00    +0.117 C 
BRANCH  12  14
ATOM     13  O   UNL     1     -39.954  24.674   3.785  0.00  0.00    -0.250 OA
ATOM     14  C   UNL     1     -38.974  25.085   3.179  0.00  0.00    +0.314 C 
BRANCH  14  15
ATOM     15  O   UNL     1     -38.408  26.295   3.408  0.00  0.00    -0.480 OA
ATOM     16  H   UNL     1     -37.525  26.349   3.715  0.00  0.00    +0.295 HD
ENDBRANCH  14  15
ENDBRANCH  12  14
ENDBRANCH  11  12
ENDBRANCH  10  11
ENDBRANCH   3  10
BRANCH   1  18
ATOM     17  O   UNL     1     -34.131  22.567   5.687  0.00  0.00    -0.245 OA
ATOM     18  C   UNL     1     -35.314  22.874   5.679  0.00  0.00    +0.341 C 
BRANCH  18  19
ATOM     19  O   UNL     1     -36.284  22.193   6.337  0.00  0.00    -0.477 OA
ATOM     20  H   UNL     1     -36.976  21.783   5.856  0.00  0.00    +0.295 HD
ENDBRANCH  18  19
ENDBRANCH   1  18
TORSDOF 8
ENDMDL
MODEL 5
REMARK VINA RESULT:      -5.1      1.794      5.122
REMARK  Name = 5287432
REMARK  8 active torsions:
REMARK  status: ('A' for Active; 'I' for Inactive)
REMARK    1  A    between atoms: C_1  and  C_18
REMARK    2  A    between atoms: C_2  and  O_7
REMARK    3  A    between atoms: C_3  and  C_10
REMARK    4  A    between atoms: C_10  and  C_11
REMARK    5  A    between atoms: C_11  and  C_12
REMARK    6  A    between atoms: C_12  and  C_14
REMARK    7  A    between atoms: C_14  and  O_15
REMARK    8  A    between atoms: C_18  and  O_19
REMARK                            x       y       z     vdW  Elec       q    Type
REMARK                         _______ _______ _______ _____ _____    ______ ____
ROOT
ATOM      1  C   UNL     1     -36.301  23.241   3.768  0.00  0.00    +0.112 C 
ATOM      2  C   UNL     1     -35.432  22.992   5.027  0.00  0.00    +0.140 C 
ATOM      3  C   UNL     1     -36.922  24.610   3.699  0.00  0.00    +0.044 C 
ATOM      4  C   UNL     1     -35.034  24.233   5.779  0.00  0.00    +0.037 C 
ATOM      5  C   UNL     1     -36.570  25.619   4.509  0.00  0.00    +0.003 C 
ATOM      6  C   UNL     1     -35.553  25.440   5.514  0.00  0.00    +0.003 C 
ENDROOT
BRANCH   2   7
ATOM      7  O   UNL     1     -36.145  22.154   5.936  0.00  0.00    -0.505 OA
ATOM      8  H   UNL     1     -36.722  21.554   5.438  0.00  0.00    +0.292 HD
ENDBRANCH   2   7
BRANCH   3  10
ATOM      9  O   UNL     1     -37.923  25.839   1.976  0.00  0.00    -0.291 OA
ATOM     10  C   UNL     1     -37.992  24.867   2.729  0.00  0.00    +0.174 C 
BRANCH  10  11
ATOM     11  C   UNL     1     -39.149  23.876   2.713  0.00  0.00    +0.081 C 
BRANCH  11  12
ATOM     12  C   UNL     1     -39.212  23.029   1.448  0.00  0.00    +0.117 C 
BRANCH  12  14
ATOM     13  O   UNL     1     -40.579  21.041   1.574  0.00  0.00    -0.250 OA
ATOM     14  C   UNL     1     -39.499  21.584   1.770  0.00  0.00    +0.314 C 
BRANCH  14  15
ATOM     15  O   UNL     1     -38.424  20.940   2.284  0.00  0.00    -0.480 OA
ATOM     16  H   UNL     1     -37.598  21.378   2.341  0.00  0.00    +0.295 HD
ENDBRANCH  14  15
ENDBRANCH  12  14
ENDBRANCH  11  12
ENDBRANCH  10  11
ENDBRANCH   3  10
BRANCH   1  18
ATOM     17  O   UNL     1     -34.596  23.909   2.185  0.00  0.00    -0.245 OA
ATOM     18  C   UNL     1     -35.448  23.107   2.539  0.00  0.00    +0.341 C 
BRANCH  18  19
ATOM     19  O   UNL     1     -35.751  21.970   1.866  0.00  0.00    -0.477 OA
ATOM     20  H   UNL     1     -36.606  21.858   1.498  0.00  0.00    +0.295 HD
ENDBRANCH  18  19
ENDBRANCH   1  18
TORSDOF 8
ENDMDL
MODEL 6
REMARK VINA RESULT:      -5.0      1.807      2.412
REMARK  Name = 5287432
REMARK  8 active torsions:
REMARK  status: ('A' for Active; 'I' for Inactive)
REMARK    1  A    between atoms: C_1  and  C_18
REMARK    2  A    between atoms: C_2  and  O_7
REMARK    3  A    between atoms: C_3  and  C_10
REMARK    4  A    between atoms: C_10  and  C_11
REMARK    5  A    between atoms: C_11  and  C_12
REMARK    6  A    between atoms: C_12  and  C_14
REMARK    7  A    between atoms: C_14  and  O_15
REMARK    8  A    between atoms: C_18  and  O_19
REMARK                            x       y       z     vdW  Elec       q    Type
REMARK                         _______ _______ _______ _____ _____    ______ ____
ROOT
ATOM      1  C   UNL     1     -38.013  24.988   3.131  0.00  0.00    +0.112 C 
ATOM      2  C   UNL     1     -39.531  24.805   2.880  0.00  0.00    +0.140 C 
ATOM      3  C   UNL     1     -37.214  23.713   3.083  0.00  0.00    +0.044 C 
ATOM      4  C   UNL     1     -39.919  23.487   2.267  0.00  0.00    +0.037 C 
ATOM      5  C   UNL     1     -37.706  22.555   2.622  0.00  0.00    +0.003 C 
ATOM      6  C   UNL     1     -39.060  22.466   2.136  0.00  0.00    +0.003 C 
ENDROOT
BRANCH   2   7
ATOM      7  O   UNL     1     -40.232  24.921   4.118  0.00  0.00    -0.505 OA
ATOM      8  H   UNL     1     -40.983  25.526   4.010  0.00  0.00    +0.292 HD
ENDBRANCH   2   7
BRANCH   3  10
ATOM      9  O   UNL     1     -34.890  23.617   2.813  0.00  0.00    -0.291 OA
ATOM     10  C   UNL     1     -35.839  23.706   3.593  0.00  0.00    +0.174 C 
BRANCH  10  11
ATOM     11  C   UNL     1     -35.672  23.821   5.103  0.00  0.00    +0.081 C 
BRANCH  11  12
ATOM     12  C   UNL     1     -34.718  24.930   5.531  0.00  0.00    +0.117 C 
BRANCH  12  14
ATOM     13  O   UNL     1     -34.619  27.063   4.401  0.00  0.00    -0.250 OA
ATOM     14  C   UNL     1     -35.235  26.286   5.118  0.00  0.00    +0.314 C 
BRANCH  14  15
ATOM     15  O   UNL     1     -36.471  26.546   5.610  0.00  0.00    -0.480 OA
ATOM     16  H   UNL     1     -37.228  26.201   5.181  0.00  0.00    +0.295 HD
ENDBRANCH  14  15
ENDBRANCH  12  14
ENDBRANCH  11  12
ENDBRANCH  10  11
ENDBRANCH   3  10
BRANCH   1  18
ATOM     17  O   UNL     1     -37.244  25.557   0.907  0.00  0.00    -0.245 OA
ATOM     18  C   UNL     1     -37.436  25.882   2.071  0.00  0.00    +0.341 C 
BRANCH  18  19
ATOM     19  O   UNL     1     -37.152  27.106   2.577  0.00  0.00    -0.477 OA
ATOM     20  H   UNL     1     -37.465  27.876   2.144  0.00  0.00    +0.295 HD
ENDBRANCH  18  19
ENDBRANCH   1  18
TORSDOF 8
ENDMDL
MODEL 7
REMARK VINA RESULT:      -5.0      1.692      2.852
REMARK  Name = 5287432
REMARK  8 active torsions:
REMARK  status: ('A' for Active; 'I' for Inactive)
REMARK    1  A    between atoms: C_1  and  C_18
REMARK    2  A    between atoms: C_2  and  O_7
REMARK    3  A    between atoms: C_3  and  C_10
REMARK    4  A    between atoms: C_10  and  C_11
REMARK    5  A    between atoms: C_11  and  C_12
REMARK    6  A    between atoms: C_12  and  C_14
REMARK    7  A    between atoms: C_14  and  O_15
REMARK    8  A    between atoms: C_18  and  O_19
REMARK                            x       y       z     vdW  Elec       q    Type
REMARK                         _______ _______ _______ _____ _____    ______ ____
ROOT
ATOM      1  C   UNL     1     -37.044  22.356   2.611  0.00  0.00    +0.112 C 
ATOM      2  C   UNL     1     -36.920  20.998   1.877  0.00  0.00    +0.140 C 
ATOM      3  C   UNL     1     -35.832  23.241   2.498  0.00  0.00    +0.044 C 
ATOM      4  C   UNL     1     -35.802  20.919   0.873  0.00  0.00    +0.037 C 
ATOM      5  C   UNL     1     -34.828  23.005   1.641  0.00  0.00    +0.003 C 
ATOM      6  C   UNL     1     -34.857  21.863   0.763  0.00  0.00    +0.003 C 
ENDROOT
BRANCH   2   7
ATOM      7  O   UNL     1     -36.706  19.960   2.835  0.00  0.00    -0.505 OA
ATOM      8  H   UNL     1     -36.687  20.342   3.726  0.00  0.00    +0.292 HD
ENDBRANCH   2   7
BRANCH   3  10
ATOM      9  O   UNL     1     -35.496  25.522   2.907  0.00  0.00    -0.291 OA
ATOM     10  C   UNL     1     -35.705  24.405   3.382  0.00  0.00    +0.174 C 
BRANCH  10  11
ATOM     11  C   UNL     1     -35.852  24.144   4.875  0.00  0.00    +0.081 C 
BRANCH  11  12
ATOM     12  C   UNL     1     -34.781  23.221   5.444  0.00  0.00    +0.117 C 
BRANCH  12  14
ATOM     13  O   UNL     1     -34.971  20.838   5.098  0.00  0.00    -0.250 OA
ATOM     14  C   UNL     1     -35.331  21.840   5.702  0.00  0.00    +0.314 C 
BRANCH  14  15
ATOM     15  O   UNL     1     -36.254  21.821   6.693  0.00  0.00    -0.480 OA
ATOM     16  H   UNL     1     -36.883  22.513   6.761  0.00  0.00    +0.295 HD
ENDBRANCH  14  15
ENDBRANCH  12  14
ENDBRANCH  11  12
ENDBRANCH  10  11
ENDBRANCH   3  10
BRANCH   1  18
ATOM     17  O   UNL     1     -38.362  23.336   0.833  0.00  0.00    -0.245 OA
ATOM     18  C   UNL     1     -38.187  23.136   2.027  0.00  0.00    +0.341 C 
BRANCH  18  19
ATOM     19  O   UNL     1     -39.005  23.596   3.005  0.00  0.00    -0.477 OA
ATOM     20  H   UNL     1     -39.774  23.113   3.237  0.00  0.00    +0.295 HD
ENDBRANCH  18  19
ENDBRANCH   1  18
TORSDOF 8
ENDMDL
MODEL 8
REMARK VINA RESULT:      -4.9      1.728      5.265
REMARK  Name = 5287432
REMARK  8 active torsions:
REMARK  status: ('A' for Active; 'I' for Inactive)
REMARK    1  A    between atoms: C_1  and  C_18
REMARK    2  A    between atoms: C_2  and  O_7
REMARK    3  A    between atoms: C_3  and  C_10
REMARK    4  A    between atoms: C_10  and  C_11
REMARK    5  A    between atoms: C_11  and  C_12
REMARK    6  A    between atoms: C_12  and  C_14
REMARK    7  A    between atoms: C_14  and  O_15
REMARK    8  A    between atoms: C_18  and  O_19
REMARK                            x       y       z     vdW  Elec       q    Type
REMARK                         _______ _______ _______ _____ _____    ______ ____
ROOT
ATOM      1  C   UNL     1     -36.979  24.947   3.903  0.00  0.00    +0.112 C 
ATOM      2  C   UNL     1     -35.804  25.949   4.036  0.00  0.00    +0.140 C 
ATOM      3  C   UNL     1     -37.968  25.285   2.820  0.00  0.00    +0.044 C 
ATOM      4  C   UNL     1     -35.617  26.868   2.859  0.00  0.00    +0.037 C 
ATOM      5  C   UNL     1     -37.743  26.217   1.883  0.00  0.00    +0.003 C 
ATOM      6  C   UNL     1     -36.511  26.965   1.864  0.00  0.00    +0.003 C 
ENDROOT
BRANCH   2   7
ATOM      7  O   UNL     1     -36.009  26.768   5.187  0.00  0.00    -0.505 OA
ATOM      8  H   UNL     1     -35.173  27.191   5.436  0.00  0.00    +0.292 HD
ENDBRANCH   2   7
BRANCH   3  10
ATOM      9  O   UNL     1     -39.934  24.496   3.817  0.00  0.00    -0.291 OA
ATOM     10  C   UNL     1     -39.264  24.597   2.789  0.00  0.00    +0.174 C 
BRANCH  10  11
ATOM     11  C   UNL     1     -39.709  24.045   1.441  0.00  0.00    +0.081 C 
BRANCH  11  12
ATOM     12  C   UNL     1     -38.946  22.800   1.007  0.00  0.00    +0.117 C 
BRANCH  12  14
ATOM     13  O   UNL     1     -40.388  21.217   2.126  0.00  0.00    -0.250 OA
ATOM     14  C   UNL     1     -39.256  21.627   1.905  0.00  0.00    +0.314 C 
BRANCH  14  15
ATOM     15  O   UNL     1     -38.142  21.059   2.425  0.00  0.00    -0.480 OA
ATOM     16  H   UNL     1     -38.170  20.177   2.741  0.00  0.00    +0.295 HD
ENDBRANCH  14  15
ENDBRANCH  12  14
ENDBRANCH  11  12
ENDBRANCH  10  11
ENDBRANCH   3  10
BRANCH   1  18
ATOM     17  O   UNL     1     -35.866  23.298   2.525  0.00  0.00    -0.245 OA
ATOM     18  C   UNL     1     -36.438  23.587   3.566  0.00  0.00    +0.341 C 
BRANCH  18  19
ATOM     19  O   UNL     1     -36.673  22.714   4.575  0.00  0.00    -0.477 OA
ATOM     20  H   UNL     1     -37.514  22.691   4.988  0.00  0.00    +0.295 HD
ENDBRANCH  18  19
ENDBRANCH   1  18
TORSDOF 8
ENDMDL
MODEL 9
REMARK VINA RESULT:      -4.9      2.671      5.583
REMARK  Name = 5287432
REMARK  8 active torsions:
REMARK  status: ('A' for Active; 'I' for Inactive)
REMARK    1  A    between atoms: C_1  and  C_18
REMARK    2  A    between atoms: C_2  and  O_7
REMARK    3  A    between atoms: C_3  and  C_10
REMARK    4  A    between atoms: C_10  and  C_11
REMARK    5  A    between atoms: C_11  and  C_12
REMARK    6  A    between atoms: C_12  and  C_14
REMARK    7  A    between atoms: C_14  and  O_15
REMARK    8  A    between atoms: C_18  and  O_19
REMARK                            x       y       z     vdW  Elec       q    Type
REMARK                         _______ _______ _______ _____ _____    ______ ____
ROOT
ATOM      1  C   UNL     1     -35.390  23.274   3.288  0.00  0.00    +0.112 C 
ATOM      2  C   UNL     1     -34.948  24.229   4.425  0.00  0.00    +0.140 C 
ATOM      3  C   UNL     1     -35.444  21.821   3.679  0.00  0.00    +0.044 C 
ATOM      4  C   UNL     1     -35.006  23.640   5.808  0.00  0.00    +0.037 C 
ATOM      5  C   UNL     1     -35.365  21.398   4.948  0.00  0.00    +0.003 C 
ATOM      6  C   UNL     1     -35.219  22.336   6.033  0.00  0.00    +0.003 C 
ENDROOT
BRANCH   2   7
ATOM      7  O   UNL     1     -33.602  24.646   4.195  0.00  0.00    -0.505 OA
ATOM      8  H   UNL     1     -33.088  23.902   3.843  0.00  0.00    +0.292 HD
ENDBRANCH   2   7
BRANCH   3  10
ATOM      9  O   UNL     1     -36.522  20.038   2.611  0.00  0.00    -0.291 OA
ATOM     10  C   UNL     1     -35.553  20.798   2.633  0.00  0.00    +0.174 C 
BRANCH  10  11
ATOM     11  C   UNL     1     -34.429  20.750   1.607  0.00  0.00    +0.081 C 
BRANCH  11  12
ATOM     12  C   UNL     1     -33.761  19.385   1.494  0.00  0.00    +0.117 C 
BRANCH  12  14
ATOM     13  O   UNL     1     -33.575  18.428  -0.717  0.00  0.00    -0.250 OA
ATOM     14  C   UNL     1     -34.254  18.635   0.281  0.00  0.00    +0.314 C 
BRANCH  14  15
ATOM     15  O   UNL     1     -35.526  18.192   0.422  0.00  0.00    -0.480 OA
ATOM     16  H   UNL     1     -36.053  18.499   1.133  0.00  0.00    +0.295 HD
ENDBRANCH  14  15
ENDBRANCH  12  14
ENDBRANCH  11  12
ENDBRANCH  10  11
ENDBRANCH   3  10
BRANCH   1  18
ATOM     17  O   UNL     1     -37.757  23.693   3.572  0.00  0.00    -0.245 OA
ATOM     18  C   UNL     1     -36.777  23.638   2.842  0.00  0.00    +0.341 C 
BRANCH  18  19
ATOM     19  O   UNL     1     -36.801  23.898   1.512  0.00  0.00    -0.477 OA
ATOM     20  H   UNL     1     -37.439  24.490   1.163  0.00  0.00    +0.295 HD
ENDBRANCH  18  19
ENDBRANCH   1  18
TORSDOF 8
ENDMDL
