MODEL 1
REMARK VINA RESULT:      -5.3      0.000      0.000
REMARK  Name = 189838
REMARK  5 active torsions:
REMARK  status: ('A' for Active; 'I' for Inactive)
REMARK    1  A    between atoms: C3*_2  and  O3*_15
REMARK    2  A    between atoms: C4*_4  and  C5*_17
REMARK    3  A    between atoms: C1*_5  and  N_7
REMARK    4  A    between atoms: C_11  and  S_13
REMARK    5  A    between atoms: C5*_17  and  O5*_18
REMARK                            x       y       z     vdW  Elec       q    Type
REMARK                         _______ _______ _______ _____ _____    ______ ____
ROOT
ATOM      1  O4* UNL     1     -35.724  23.354   2.870  0.00  0.00    -0.334 OA
ATOM      2  C3* UNL     1     -35.779  21.778   4.628  0.00  0.00    +0.144 C 
ATOM      3  C2* UNL     1     -35.257  23.081   5.184  0.00  0.00    +0.083 C 
ATOM      4  C4* UNL     1     -35.509  21.959   3.142  0.00  0.00    +0.173 C 
ATOM      5  C1* UNL     1     -35.687  24.069   4.115  0.00  0.00    +0.204 C 
ENDROOT
BRANCH   5   7
ATOM      6  O   UNL     1     -35.865  26.364   5.679  0.00  0.00    -0.206 OA
ATOM      7  N   UNL     1     -34.799  25.189   3.997  0.00  0.00    -0.208 N 
ATOM      8  N   UNL     1     -34.089  27.388   4.700  0.00  0.00    -0.162 NA
ATOM      9  C   UNL     1     -33.774  25.170   3.058  0.00  0.00    +0.139 C 
ATOM     10  C   UNL     1     -34.964  26.322   4.839  0.00  0.00    +0.218 C 
ATOM     11  C   UNL     1     -32.922  26.184   2.907  0.00  0.00    +0.044 C 
ATOM     12  C   UNL     1     -33.152  27.320   3.810  0.00  0.00    +0.116 C 
BRANCH  11  13
ATOM     13  S   UNL     1     -31.630  26.260   1.788  0.00  0.00    -0.114 S 
ATOM     14  C   UNL     1     -32.299  25.230   0.456  0.00  0.00    +0.074 C 
ENDBRANCH  11  13
ENDBRANCH   5   7
BRANCH   2  15
ATOM     15  O3* UNL     1     -35.089  20.671   5.169  0.00  0.00    -0.382 OA
ATOM     16  H3* UNL     1     -35.407  19.856   4.752  0.00  0.00    +0.210 HD
ENDBRANCH   2  15
BRANCH   4  17
ATOM     17  C5* UNL     1     -36.417  21.122   2.257  0.00  0.00    +0.169 C 
BRANCH  17  18
ATOM     18  O5* UNL     1     -36.601  19.857   2.866  0.00  0.00    -0.379 OA
ATOM     19  H5* UNL     1     -37.334  19.392   2.431  0.00  0.00    +0.211 HD
ENDBRANCH  17  18
ENDBRANCH   4  17
TORSDOF 5
ENDMDL
MODEL 2
REMARK VINA RESULT:      -5.2      2.407      3.010
REMARK  Name = 189838
REMARK  5 active torsions:
REMARK  status: ('A' for Active; 'I' for Inactive)
REMARK    1  A    between atoms: C3*_2  and  O3*_15
REMARK    2  A    between atoms: C4*_4  and  C5*_17
REMARK    3  A    between atoms: C1*_5  and  N_7
REMARK    4  A    between atoms: C_11  and  S_13
REMARK    5  A    between atoms: C5*_17  and  O5*_18
REMARK                            x       y       z     vdW  Elec       q    Type
REMARK                         _______ _______ _______ _____ _____    ______ ____
ROOT
ATOM      1  O4* UNL     1     -34.868  24.121   5.171  0.00  0.00    -0.334 OA
ATOM      2  C3* UNL     1     -35.501  22.300   3.808  0.00  0.00    +0.144 C 
ATOM      3  C2* UNL     1     -35.186  23.470   2.907  0.00  0.00    +0.083 C 
ATOM      4  C4* UNL     1     -35.771  23.004   5.128  0.00  0.00    +0.173 C 
ATOM      5  C1* UNL     1     -34.396  24.374   3.838  0.00  0.00    +0.204 C 
ENDROOT
BRANCH   5   7
ATOM      6  O   UNL     1     -32.980  26.408   5.103  0.00  0.00    -0.206 OA
ATOM      7  N   UNL     1     -34.551  25.766   3.532  0.00  0.00    -0.208 N 
ATOM      8  N   UNL     1     -33.957  28.077   3.912  0.00  0.00    -0.162 NA
ATOM      9  C   UNL     1     -35.452  26.169   2.552  0.00  0.00    +0.139 C 
ATOM     10  C   UNL     1     -33.785  26.739   4.230  0.00  0.00    +0.218 C 
ATOM     11  C   UNL     1     -35.633  27.451   2.231  0.00  0.00    +0.044 C 
ATOM     12  C   UNL     1     -34.808  28.399   2.992  0.00  0.00    +0.116 C 
BRANCH  11  13
ATOM     13  S   UNL     1     -36.711  28.050   1.045  0.00  0.00    -0.114 S 
ATOM     14  C   UNL     1     -36.311  29.816   1.112  0.00  0.00    +0.074 C 
ENDBRANCH  11  13
ENDBRANCH   5   7
BRANCH   2  15
ATOM     15  O3* UNL     1     -36.622  21.578   3.343  0.00  0.00    -0.382 OA
ATOM     16  H3* UNL     1     -37.278  22.196   2.984  0.00  0.00    +0.210 HD
ENDBRANCH   2  15
BRANCH   4  17
ATOM     17  C5* UNL     1     -35.545  22.120   6.342  0.00  0.00    +0.169 C 
BRANCH  17  18
ATOM     18  O5* UNL     1     -35.362  20.786   5.902  0.00  0.00    -0.379 OA
ATOM     19  H5* UNL     1     -35.829  20.181   6.501  0.00  0.00    +0.211 HD
ENDBRANCH  17  18
ENDBRANCH   4  17
TORSDOF 5
ENDMDL
MODEL 3
REMARK VINA RESULT:      -5.1      2.637      5.386
REMARK  Name = 189838
REMARK  5 active torsions:
REMARK  status: ('A' for Active; 'I' for Inactive)
REMARK    1  A    between atoms: C3*_2  and  O3*_15
REMARK    2  A    between atoms: C4*_4  and  C5*_17
REMARK    3  A    between atoms: C1*_5  and  N_7
REMARK    4  A    between atoms: C_11  and  S_13
REMARK    5  A    between atoms: C5*_17  and  O5*_18
REMARK                            x       y       z     vdW  Elec       q    Type
REMARK                         _______ _______ _______ _____ _____    ______ ____
ROOT
ATOM      1  O4* UNL     1     -34.111  24.620   3.750  0.00  0.00    -0.334 OA
ATOM      2  C3* UNL     1     -35.510  25.721   5.302  0.00  0.00    +0.144 C 
ATOM      3  C2* UNL     1     -36.123  24.376   4.992  0.00  0.00    +0.083 C 
ATOM      4  C4* UNL     1     -34.610  25.923   4.093  0.00  0.00    +0.173 C 
ATOM      5  C1* UNL     1     -34.950  23.635   4.376  0.00  0.00    +0.204 C 
ENDROOT
BRANCH   5   7
ATOM      6  O   UNL     1     -35.096  20.903   4.882  0.00  0.00    -0.206 OA
ATOM      7  N   UNL     1     -35.351  22.662   3.402  0.00  0.00    -0.208 N 
ATOM      8  N   UNL     1     -35.788  20.367   2.785  0.00  0.00    -0.162 NA
ATOM      9  C   UNL     1     -35.695  23.062   2.116  0.00  0.00    +0.139 C 
ATOM     10  C   UNL     1     -35.397  21.284   3.749  0.00  0.00    +0.218 C 
ATOM     11  C   UNL     1     -36.074  22.197   1.174  0.00  0.00    +0.044 C 
ATOM     12  C   UNL     1     -36.099  20.792   1.603  0.00  0.00    +0.116 C 
BRANCH  11  13
ATOM     13  S   UNL     1     -36.518  22.584  -0.432  0.00  0.00    -0.114 S 
ATOM     14  C   UNL     1     -36.326  20.963  -1.218  0.00  0.00    +0.074 C 
ENDBRANCH  11  13
ENDBRANCH   5   7
BRANCH   2  15
ATOM     15  O3* UNL     1     -36.497  26.725   5.412  0.00  0.00    -0.382 OA
ATOM     16  H3* UNL     1     -36.397  27.184   6.261  0.00  0.00    +0.210 HD
ENDBRANCH   2  15
BRANCH   4  17
ATOM     17  C5* UNL     1     -33.445  26.861   4.358  0.00  0.00    +0.169 C 
BRANCH  17  18
ATOM     18  O5* UNL     1     -33.457  27.222   5.727  0.00  0.00    -0.379 OA
ATOM     19  H5* UNL     1     -32.563  27.485   6.001  0.00  0.00    +0.211 HD
ENDBRANCH  17  18
ENDBRANCH   4  17
TORSDOF 5
ENDMDL
MODEL 4
REMARK VINA RESULT:      -4.7      2.852      5.687
REMARK  Name = 189838
REMARK  5 active torsions:
REMARK  status: ('A' for Active; 'I' for Inactive)
REMARK    1  A    between atoms: C3*_2  and  O3*_15
REMARK    2  A    between atoms: C4*_4  and  C5*_17
REMARK    3  A    between atoms: C1*_5  and  N_7
REMARK    4  A    between atoms: C_11  and  S_13
REMARK    5  A    between atoms: C5*_17  and  O5*_18
REMARK                            x       y       z     vdW  Elec       q    Type
REMARK                         _______ _______ _______ _____ _____    ______ ____
ROOT
ATOM      1  O4* UNL     1     -34.459  24.357   3.328  0.00  0.00    -0.334 OA
ATOM      2  C3* UNL     1     -35.614  25.541   5.013  0.00  0.00    +0.144 C 
ATOM      3  C2* UNL     1     -36.339  24.238   4.778  0.00  0.00    +0.083 C 
ATOM      4  C4* UNL     1     -34.836  25.688   3.715  0.00  0.00    +0.173 C 
ATOM      5  C1* UNL     1     -35.286  23.426   4.045  0.00  0.00    +0.204 C 
ENDROOT
BRANCH   5   7
ATOM      6  O   UNL     1     -35.024  20.667   4.301  0.00  0.00    -0.206 OA
ATOM      7  N   UNL     1     -35.848  22.480   3.125  0.00  0.00    -0.208 N 
ATOM      8  N   UNL     1     -36.219  20.197   2.427  0.00  0.00    -0.162 NA
ATOM      9  C   UNL     1     -36.573  22.923   2.025  0.00  0.00    +0.139 C 
ATOM     10  C   UNL     1     -35.664  21.087   3.334  0.00  0.00    +0.218 C 
ATOM     11  C   UNL     1     -37.116  22.086   1.140  0.00  0.00    +0.044 C 
ATOM     12  C   UNL     1     -36.886  20.662   1.420  0.00  0.00    +0.116 C 
BRANCH  11  13
ATOM     13  S   UNL     1     -38.024  22.526  -0.241  0.00  0.00    -0.114 S 
ATOM     14  C   UNL     1     -39.477  23.262   0.552  0.00  0.00    +0.074 C 
ENDBRANCH  11  13
ENDBRANCH   5   7
BRANCH   2  15
ATOM     15  O3* UNL     1     -36.519  26.605   5.222  0.00  0.00    -0.382 OA
ATOM     16  H3* UNL     1     -36.938  26.843   4.380  0.00  0.00    +0.210 HD
ENDBRANCH   2  15
BRANCH   4  17
ATOM     17  C5* UNL     1     -33.593  26.551   3.850  0.00  0.00    +0.169 C 
BRANCH  17  18
ATOM     18  O5* UNL     1     -33.921  27.702   4.608  0.00  0.00    -0.379 OA
ATOM     19  H5* UNL     1     -33.443  27.679   5.453  0.00  0.00    +0.211 HD
ENDBRANCH  17  18
ENDBRANCH   4  17
TORSDOF 5
ENDMDL
MODEL 5
REMARK VINA RESULT:      -4.7      3.847      6.190
REMARK  Name = 189838
REMARK  5 active torsions:
REMARK  status: ('A' for Active; 'I' for Inactive)
REMARK    1  A    between atoms: C3*_2  and  O3*_15
REMARK    2  A    between atoms: C4*_4  and  C5*_17
REMARK    3  A    between atoms: C1*_5  and  N_7
REMARK    4  A    between atoms: C_11  and  S_13
REMARK    5  A    between atoms: C5*_17  and  O5*_18
REMARK                            x       y       z     vdW  Elec       q    Type
REMARK                         _______ _______ _______ _____ _____    ______ ____
ROOT
ATOM      1  O4* UNL     1     -37.132  23.451   3.716  0.00  0.00    -0.334 OA
ATOM      2  C3* UNL     1     -37.626  25.691   3.155  0.00  0.00    +0.144 C 
ATOM      3  C2* UNL     1     -38.278  24.797   2.127  0.00  0.00    +0.083 C 
ATOM      4  C4* UNL     1     -36.557  24.768   3.718  0.00  0.00    +0.173 C 
ATOM      5  C1* UNL     1     -38.265  23.453   2.833  0.00  0.00    +0.204 C 
ENDROOT
BRANCH   5   7
ATOM      6  O   UNL     1     -40.462  22.133   1.749  0.00  0.00    -0.206 OA
ATOM      7  N   UNL     1     -38.166  22.346   1.927  0.00  0.00    -0.208 N 
ATOM      8  N   UNL     1     -39.216  20.662   0.548  0.00  0.00    -0.162 NA
ATOM      9  C   UNL     1     -36.919  21.870   1.540  0.00  0.00    +0.139 C 
ATOM     10  C   UNL     1     -39.344  21.731   1.422  0.00  0.00    +0.218 C 
ATOM     11  C   UNL     1     -36.772  20.843   0.702  0.00  0.00    +0.044 C 
ATOM     12  C   UNL     1     -38.031  20.258   0.220  0.00  0.00    +0.116 C 
BRANCH  11  13
ATOM     13  S   UNL     1     -35.289  20.184   0.163  0.00  0.00    -0.114 S 
ATOM     14  C   UNL     1     -34.474  19.885   1.753  0.00  0.00    +0.074 C 
ENDBRANCH  11  13
ENDBRANCH   5   7
BRANCH   2  15
ATOM     15  O3* UNL     1     -37.079  26.849   2.560  0.00  0.00    -0.382 OA
ATOM     16  H3* UNL     1     -37.685  27.179   1.879  0.00  0.00    +0.210 HD
ENDBRANCH   2  15
BRANCH   4  17
ATOM     17  C5* UNL     1     -36.125  25.133   5.127  0.00  0.00    +0.169 C 
BRANCH  17  18
ATOM     18  O5* UNL     1     -36.469  26.485   5.371  0.00  0.00    -0.379 OA
ATOM     19  H5* UNL     1     -36.441  26.981   4.537  0.00  0.00    +0.211 HD
ENDBRANCH  17  18
ENDBRANCH   4  17
TORSDOF 5
ENDMDL
MODEL 6
REMARK VINA RESULT:      -4.7      3.524      4.418
REMARK  Name = 189838
REMARK  5 active torsions:
REMARK  status: ('A' for Active; 'I' for Inactive)
REMARK    1  A    between atoms: C3*_2  and  O3*_15
REMARK    2  A    between atoms: C4*_4  and  C5*_17
REMARK    3  A    between atoms: C1*_5  and  N_7
REMARK    4  A    between atoms: C_11  and  S_13
REMARK    5  A    between atoms: C5*_17  and  O5*_18
REMARK                            x       y       z     vdW  Elec       q    Type
REMARK                         _______ _______ _______ _____ _____    ______ ____
ROOT
ATOM      1  O4* UNL     1     -35.877  23.852   4.078  0.00  0.00    -0.334 OA
ATOM      2  C3* UNL     1     -35.453  21.698   3.209  0.00  0.00    +0.144 C 
ATOM      3  C2* UNL     1     -35.856  22.594   2.062  0.00  0.00    +0.083 C 
ATOM      4  C4* UNL     1     -36.024  22.458   4.395  0.00  0.00    +0.173 C 
ATOM      5  C1* UNL     1     -35.660  23.974   2.663  0.00  0.00    +0.204 C 
ENDROOT
BRANCH   5   7
ATOM      6  O   UNL     1     -35.297  26.721   2.915  0.00  0.00    -0.206 OA
ATOM      7  N   UNL     1     -36.559  24.953   2.125  0.00  0.00    -0.208 N 
ATOM      8  N   UNL     1     -37.184  27.259   1.770  0.00  0.00    -0.162 NA
ATOM      9  C   UNL     1     -37.694  24.549   1.429  0.00  0.00    +0.139 C 
ATOM     10  C   UNL     1     -36.295  26.338   2.302  0.00  0.00    +0.218 C 
ATOM     11  C   UNL     1     -38.562  25.418   0.910  0.00  0.00    +0.044 C 
ATOM     12  C   UNL     1     -38.224  26.832   1.130  0.00  0.00    +0.116 C 
BRANCH  11  13
ATOM     13  S   UNL     1     -39.981  25.029   0.038  0.00  0.00    -0.114 S 
ATOM     14  C   UNL     1     -41.114  24.682   1.408  0.00  0.00    +0.074 C 
ENDBRANCH  11  13
ENDBRANCH   5   7
BRANCH   2  15
ATOM     15  O3* UNL     1     -36.011  20.408   3.076  0.00  0.00    -0.382 OA
ATOM     16  H3* UNL     1     -35.449  19.871   2.496  0.00  0.00    +0.210 HD
ENDBRANCH   2  15
BRANCH   4  17
ATOM     17  C5* UNL     1     -35.315  22.156   5.704  0.00  0.00    +0.169 C 
BRANCH  17  18
ATOM     18  O5* UNL     1     -35.312  20.754   5.904  0.00  0.00    -0.379 OA
ATOM     19  H5* UNL     1     -35.776  20.544   6.730  0.00  0.00    +0.211 HD
ENDBRANCH  17  18
ENDBRANCH   4  17
TORSDOF 5
ENDMDL
MODEL 7
REMARK VINA RESULT:      -4.6      3.265      5.549
REMARK  Name = 189838
REMARK  5 active torsions:
REMARK  status: ('A' for Active; 'I' for Inactive)
REMARK    1  A    between atoms: C3*_2  and  O3*_15
REMARK    2  A    between atoms: C4*_4  and  C5*_17
REMARK    3  A    between atoms: C1*_5  and  N_7
REMARK    4  A    between atoms: C_11  and  S_13
REMARK    5  A    between atoms: C5*_17  and  O5*_18
REMARK                            x       y       z     vdW  Elec       q    Type
REMARK                         _______ _______ _______ _____ _____    ______ ____
ROOT
ATOM      1  O4* UNL     1     -35.681  23.635   3.958  0.00  0.00    -0.334 OA
ATOM      2  C3* UNL     1     -37.649  24.937   3.880  0.00  0.00    +0.144 C 
ATOM      3  C2* UNL     1     -37.822  23.773   2.934  0.00  0.00    +0.083 C 
ATOM      4  C4* UNL     1     -36.135  24.998   4.005  0.00  0.00    +0.173 C 
ATOM      5  C1* UNL     1     -36.733  22.826   3.407  0.00  0.00    +0.204 C 
ENDROOT
BRANCH   5   7
ATOM      6  O   UNL     1     -35.261  20.503   3.833  0.00  0.00    -0.206 OA
ATOM      7  N   UNL     1     -36.205  22.009   2.353  0.00  0.00    -0.208 N 
ATOM      8  N   UNL     1     -34.965  20.068   1.623  0.00  0.00    -0.162 NA
ATOM      9  C   UNL     1     -36.416  22.361   1.025  0.00  0.00    +0.139 C 
ATOM     10  C   UNL     1     -35.463  20.837   2.664  0.00  0.00    +0.218 C 
ATOM     11  C   UNL     1     -35.947  21.636   0.009  0.00  0.00    +0.044 C 
ATOM     12  C   UNL     1     -35.190  20.440   0.404  0.00  0.00    +0.116 C 
BRANCH  11  13
ATOM     13  S   UNL     1     -36.151  21.979  -1.655  0.00  0.00    -0.114 S 
ATOM     14  C   UNL     1     -34.839  20.947  -2.359  0.00  0.00    +0.074 C 
ENDBRANCH  11  13
ENDBRANCH   5   7
BRANCH   2  15
ATOM     15  O3* UNL     1     -38.192  26.124   3.341  0.00  0.00    -0.382 OA
ATOM     16  H3* UNL     1     -38.360  26.757   4.057  0.00  0.00    +0.210 HD
ENDBRANCH   2  15
BRANCH   4  17
ATOM     17  C5* UNL     1     -35.660  25.648   5.293  0.00  0.00    +0.169 C 
BRANCH  17  18
ATOM     18  O5* UNL     1     -36.586  26.656   5.658  0.00  0.00    -0.379 OA
ATOM     19  H5* UNL     1     -36.760  26.606   6.612  0.00  0.00    +0.211 HD
ENDBRANCH  17  18
ENDBRANCH   4  17
TORSDOF 5
ENDMDL
MODEL 8
REMARK VINA RESULT:      -4.5      2.260      3.222
REMARK  Name = 189838
REMARK  5 active torsions:
REMARK  status: ('A' for Active; 'I' for Inactive)
REMARK    1  A    between atoms: C3*_2  and  O3*_15
REMARK    2  A    between atoms: C4*_4  and  C5*_17
REMARK    3  A    between atoms: C1*_5  and  N_7
REMARK    4  A    between atoms: C_11  and  S_13
REMARK    5  A    between atoms: C5*_17  and  O5*_18
REMARK                            x       y       z     vdW  Elec       q    Type
REMARK                         _______ _______ _______ _____ _____    ______ ____
ROOT
ATOM      1  O4* UNL     1     -38.054  23.002   2.823  0.00  0.00    -0.334 OA
ATOM      2  C3* UNL     1     -37.340  21.214   1.456  0.00  0.00    +0.144 C 
ATOM      3  C2* UNL     1     -36.152  21.694   2.255  0.00  0.00    +0.083 C 
ATOM      4  C4* UNL     1     -38.253  22.428   1.521  0.00  0.00    +0.173 C 
ATOM      5  C1* UNL     1     -36.823  22.489   3.361  0.00  0.00    +0.204 C 
ENDROOT
BRANCH   5   7
ATOM      6  O   UNL     1     -35.971  22.757   5.996  0.00  0.00    -0.206 OA
ATOM      7  N   UNL     1     -36.019  23.578   3.835  0.00  0.00    -0.208 N 
ATOM      8  N   UNL     1     -34.853  24.700   5.629  0.00  0.00    -0.162 NA
ATOM      9  C   UNL     1     -35.620  24.583   2.961  0.00  0.00    +0.139 C 
ATOM     10  C   UNL     1     -35.630  23.634   5.200  0.00  0.00    +0.218 C 
ATOM     11  C   UNL     1     -34.873  25.616   3.351  0.00  0.00    +0.044 C 
ATOM     12  C   UNL     1     -34.507  25.608   4.775  0.00  0.00    +0.116 C 
BRANCH  11  13
ATOM     13  S   UNL     1     -34.328  26.899   2.360  0.00  0.00    -0.114 S 
ATOM     14  C   UNL     1     -35.910  27.671   1.935  0.00  0.00    +0.074 C 
ENDBRANCH  11  13
ENDBRANCH   5   7
BRANCH   2  15
ATOM     15  O3* UNL     1     -36.973  20.886   0.132  0.00  0.00    -0.382 OA
ATOM     16  H3* UNL     1     -36.765  21.698  -0.355  0.00  0.00    +0.210 HD
ENDBRANCH   2  15
BRANCH   4  17
ATOM     17  C5* UNL     1     -39.722  22.090   1.333  0.00  0.00    +0.169 C 
BRANCH  17  18
ATOM     18  O5* UNL     1     -40.056  21.026   2.208  0.00  0.00    -0.379 OA
ATOM     19  H5* UNL     1     -39.278  20.784   2.735  0.00  0.00    +0.211 HD
ENDBRANCH  17  18
ENDBRANCH   4  17
TORSDOF 5
ENDMDL
MODEL 9
REMARK VINA RESULT:      -4.5      2.121      2.660
REMARK  Name = 189838
REMARK  5 active torsions:
REMARK  status: ('A' for Active; 'I' for Inactive)
REMARK    1  A    between atoms: C3*_2  and  O3*_15
REMARK    2  A    between atoms: C4*_4  and  C5*_17
REMARK    3  A    between atoms: C1*_5  and  N_7
REMARK    4  A    between atoms: C_11  and  S_13
REMARK    5  A    between atoms: C5*_17  and  O5*_18
REMARK                            x       y       z     vdW  Elec       q    Type
REMARK                         _______ _______ _______ _____ _____    ______ ____
ROOT
ATOM      1  O4* UNL     1     -35.119  24.143   3.019  0.00  0.00    -0.334 OA
ATOM      2  C3* UNL     1     -36.265  23.219   4.865  0.00  0.00    +0.144 C 
ATOM      3  C2* UNL     1     -35.982  24.671   5.170  0.00  0.00    +0.083 C 
ATOM      4  C4* UNL     1     -35.231  22.934   3.787  0.00  0.00    +0.173 C 
ATOM      5  C1* UNL     1     -35.672  25.223   3.790  0.00  0.00    +0.204 C 
ENDROOT
BRANCH   5   7
ATOM      6  O   UNL     1     -35.339  27.035   1.705  0.00  0.00    -0.206 OA
ATOM      7  N   UNL     1     -34.742  26.314   3.820  0.00  0.00    -0.208 N 
ATOM      8  N   UNL     1     -33.729  28.238   2.765  0.00  0.00    -0.162 NA
ATOM      9  C   UNL     1     -33.937  26.516   4.936  0.00  0.00    +0.139 C 
ATOM     10  C   UNL     1     -34.638  27.192   2.707  0.00  0.00    +0.218 C 
ATOM     11  C   UNL     1     -33.057  27.514   5.013  0.00  0.00    +0.044 C 
ATOM     12  C   UNL     1     -33.005  28.381   3.828  0.00  0.00    +0.116 C 
BRANCH  11  13
ATOM     13  S   UNL     1     -32.025  27.850   6.335  0.00  0.00    -0.114 S 
ATOM     14  C   UNL     1     -30.608  28.567   5.463  0.00  0.00    +0.074 C 
ENDBRANCH  11  13
ENDBRANCH   5   7
BRANCH   2  15
ATOM     15  O3* UNL     1     -36.090  22.408   6.007  0.00  0.00    -0.382 OA
ATOM     16  H3* UNL     1     -35.486  22.847   6.626  0.00  0.00    +0.210 HD
ENDBRANCH   2  15
BRANCH   4  17
ATOM     17  C5* UNL     1     -35.615  21.784   2.872  0.00  0.00    +0.169 C 
BRANCH  17  18
ATOM     18  O5* UNL     1     -35.820  20.626   3.661  0.00  0.00    -0.379 OA
ATOM     19  H5* UNL     1     -35.374  20.735   4.517  0.00  0.00    +0.211 HD
ENDBRANCH  17  18
ENDBRANCH   4  17
TORSDOF 5
ENDMDL
