MODEL 1
REMARK VINA RESULT:      -7.8      0.000      0.000
REMARK  Name = 5477931
REMARK  4 active torsions:
REMARK  status: ('A' for Active; 'I' for Inactive)
REMARK    1  A    between atoms: C_7  and  C_14
REMARK    2  A    between atoms: C_18  and  C_19
REMARK    3  A    between atoms: C_19  and  C_23
REMARK    4  A    between atoms: C_26  and  C_31
REMARK                            x       y       z     vdW  Elec       q    Type
REMARK                         _______ _______ _______ _____ _____    ______ ____
ROOT
ATOM      1  N   UNL     1     -36.068  26.185   1.899  0.00  0.00    -0.301 N 
ATOM      2  N   UNL     1     -35.456  27.697   3.409  0.00  0.00    -0.301 N 
ATOM      3  C   UNL     1     -35.840  25.479   3.052  0.00  0.00    +0.063 C 
ATOM      4  C   UNL     1     -35.460  26.445   3.979  0.00  0.00    +0.063 C 
ATOM      5  C   UNL     1     -35.817  27.460   2.213  0.00  0.00    +0.097 C 
ATOM      6  C   UNL     1     -35.931  24.120   3.353  0.00  0.00    +0.019 C 
ATOM      7  C   UNL     1     -35.617  23.743   4.664  0.00  0.00    +0.032 C 
ATOM      8  C   UNL     1     -35.147  26.049   5.291  0.00  0.00    +0.016 C 
ATOM      9  C   UNL     1     -35.232  24.690   5.616  0.00  0.00    +0.004 C 
ATOM     10  H   UNL     1     -36.354  25.829   1.026  0.00  0.00    +0.153 HD
ATOM     11  H   UNL     1     -35.231  28.560   3.823  0.00  0.00    +0.153 HD
ATOM     12  C   UNL     1     -36.001  28.416   1.106  0.00  0.00    +0.012 C 
ENDROOT
BRANCH   7  15
ATOM     13  N   UNL     1     -35.922  21.954   6.359  0.00  0.00    -0.343 N 
ATOM     14  N   UNL     1     -35.539  21.405   4.120  0.00  0.00    -0.285 NA
ATOM     15  C   UNL     1     -35.693  22.340   5.039  0.00  0.00    +0.117 C 
ATOM     16  H   UNL     1     -35.970  20.999   6.590  0.00  0.00    +0.144 HD
ATOM     17  H   UNL     1     -36.036  22.638   7.058  0.00  0.00    +0.144 HD
ATOM     18  H   UNL     1     -35.589  20.454   4.372  0.00  0.00    +0.188 HD
ENDBRANCH   7  15
BRANCH  12  19
ATOM     19  C   UNL     1     -35.776  29.774   1.148  0.00  0.00    +0.093 C 
BRANCH  19  23
ATOM     20  O   UNL     1     -37.895  30.763   0.504  0.00  0.00    -0.457 OA
ATOM     21  C   UNL     1     -37.929  32.612   1.801  0.00  0.00    +0.037 C 
ATOM     22  C   UNL     1     -38.611  31.872   0.841  0.00  0.00    +0.145 C 
ATOM     23  C   UNL     1     -36.757  30.788   1.244  0.00  0.00    +0.127 C 
ATOM     24  C   UNL     1     -36.727  31.898   2.054  0.00  0.00    +0.036 C 
ATOM     25  C   UNL     1     -38.515  33.798   2.276  0.00  0.00    +0.006 C 
ATOM     26  C   UNL     1     -39.759  34.186   1.763  0.00  0.00    +0.031 C 
ATOM     27  C   UNL     1     -39.850  32.232   0.312  0.00  0.00    +0.038 C 
ATOM     28  C   UNL     1     -40.413  33.416   0.798  0.00  0.00    +0.006 C 
BRANCH  26  31
ATOM     29  N   UNL     1     -40.154  35.879   3.537  0.00  0.00    -0.343 N 
ATOM     30  N   UNL     1     -41.179  36.100   1.448  0.00  0.00    -0.285 NA
ATOM     31  C   UNL     1     -40.380  35.412   2.244  0.00  0.00    +0.117 C 
ATOM     32  H   UNL     1     -40.583  36.710   3.842  0.00  0.00    +0.144 HD
ATOM     33  H   UNL     1     -39.563  35.378   4.145  0.00  0.00    +0.144 HD
ATOM     34  H   UNL     1     -41.599  36.929   1.772  0.00  0.00    +0.188 HD
ENDBRANCH  26  31
ENDBRANCH  19  23
ENDBRANCH  12  19
TORSDOF 4
ENDMDL
MODEL 2
REMARK VINA RESULT:      -7.4      1.519      2.372
REMARK  Name = 5477931
REMARK  4 active torsions:
REMARK  status: ('A' for Active; 'I' for Inactive)
REMARK    1  A    between atoms: C_7  and  C_14
REMARK    2  A    between atoms: C_18  and  C_19
REMARK    3  A    between atoms: C_19  and  C_23
REMARK    4  A    between atoms: C_26  and  C_31
REMARK                            x       y       z     vdW  Elec       q    Type
REMARK                         _______ _______ _______ _____ _____    ______ ____
ROOT
ATOM      1  N   UNL     1     -34.783  28.372   3.349  0.00  0.00    -0.301 N 
ATOM      2  N   UNL     1     -36.201  28.506   1.643  0.00  0.00    -0.301 N 
ATOM      3  C   UNL     1     -35.431  27.165   3.316  0.00  0.00    +0.063 C 
ATOM      4  C   UNL     1     -36.311  27.273   2.244  0.00  0.00    +0.063 C 
ATOM      5  C   UNL     1     -35.303  29.076   2.338  0.00  0.00    +0.097 C 
ATOM      6  C   UNL     1     -35.328  26.022   4.110  0.00  0.00    +0.019 C 
ATOM      7  C   UNL     1     -36.164  24.949   3.783  0.00  0.00    +0.032 C 
ATOM      8  C   UNL     1     -37.145  26.186   1.928  0.00  0.00    +0.016 C 
ATOM      9  C   UNL     1     -37.057  25.029   2.712  0.00  0.00    +0.004 C 
ATOM     10  H   UNL     1     -34.085  28.660   3.982  0.00  0.00    +0.153 HD
ATOM     11  H   UNL     1     -36.695  28.859   0.869  0.00  0.00    +0.153 HD
ATOM     12  C   UNL     1     -34.745  30.431   2.180  0.00  0.00    +0.012 C 
ENDROOT
BRANCH   7  15
ATOM     13  N   UNL     1     -36.683  22.545   4.125  0.00  0.00    -0.343 N 
ATOM     14  N   UNL     1     -35.487  23.736   5.742  0.00  0.00    -0.285 NA
ATOM     15  C   UNL     1     -36.101  23.730   4.574  0.00  0.00    +0.117 C 
ATOM     16  H   UNL     1     -36.629  21.732   4.677  0.00  0.00    +0.144 HD
ATOM     17  H   UNL     1     -37.148  22.523   3.258  0.00  0.00    +0.144 HD
ATOM     18  H   UNL     1     -35.444  22.912   6.280  0.00  0.00    +0.188 HD
ENDBRANCH   7  15
BRANCH  12  19
ATOM     19  C   UNL     1     -35.126  31.372   1.249  0.00  0.00    +0.093 C 
BRANCH  19  23
ATOM     20  O   UNL     1     -35.873  33.676   1.118  0.00  0.00    -0.457 OA
ATOM     21  C   UNL     1     -37.998  33.490   1.862  0.00  0.00    +0.037 C 
ATOM     22  C   UNL     1     -37.021  34.359   1.389  0.00  0.00    +0.145 C 
ATOM     23  C   UNL     1     -36.111  32.372   1.416  0.00  0.00    +0.127 C 
ATOM     24  C   UNL     1     -37.396  32.204   1.875  0.00  0.00    +0.036 C 
ATOM     25  C   UNL     1     -39.259  34.015   2.197  0.00  0.00    +0.006 C 
ATOM     26  C   UNL     1     -39.478  35.390   2.041  0.00  0.00    +0.031 C 
ATOM     27  C   UNL     1     -37.209  35.731   1.223  0.00  0.00    +0.038 C 
ATOM     28  C   UNL     1     -38.470  36.230   1.563  0.00  0.00    +0.006 C 
BRANCH  26  31
ATOM     29  N   UNL     1     -41.219  36.000   3.703  0.00  0.00    -0.343 N 
ATOM     30  N   UNL     1     -41.563  36.417   1.429  0.00  0.00    -0.285 NA
ATOM     31  C   UNL     1     -40.777  35.950   2.383  0.00  0.00    +0.117 C 
ATOM     32  H   UNL     1     -42.102  36.383   3.912  0.00  0.00    +0.144 HD
ATOM     33  H   UNL     1     -40.649  35.654   4.427  0.00  0.00    +0.144 HD
ATOM     34  H   UNL     1     -42.442  36.796   1.658  0.00  0.00    +0.188 HD
ENDBRANCH  26  31
ENDBRANCH  19  23
ENDBRANCH  12  19
TORSDOF 4
ENDMDL
MODEL 3
REMARK VINA RESULT:      -7.4      6.849     13.072
REMARK  Name = 5477931
REMARK  4 active torsions:
REMARK  status: ('A' for Active; 'I' for Inactive)
REMARK    1  A    between atoms: C_7  and  C_14
REMARK    2  A    between atoms: C_18  and  C_19
REMARK    3  A    between atoms: C_19  and  C_23
REMARK    4  A    between atoms: C_26  and  C_31
REMARK                            x       y       z     vdW  Elec       q    Type
REMARK                         _______ _______ _______ _____ _____    ______ ____
ROOT
ATOM      1  N   UNL     1     -36.714  22.750   1.780  0.00  0.00    -0.301 N 
ATOM      2  N   UNL     1     -36.006  20.922   2.828  0.00  0.00    -0.301 N 
ATOM      3  C   UNL     1     -36.249  23.182   2.996  0.00  0.00    +0.063 C 
ATOM      4  C   UNL     1     -35.813  22.023   3.631  0.00  0.00    +0.063 C 
ATOM      5  C   UNL     1     -36.527  21.425   1.784  0.00  0.00    +0.097 C 
ATOM      6  C   UNL     1     -36.176  24.448   3.576  0.00  0.00    +0.019 C 
ATOM      7  C   UNL     1     -35.631  24.521   4.863  0.00  0.00    +0.032 C 
ATOM      8  C   UNL     1     -35.268  22.113   4.923  0.00  0.00    +0.016 C 
ATOM      9  C   UNL     1     -35.185  23.375   5.525  0.00  0.00    +0.004 C 
ATOM     10  H   UNL     1     -37.103  23.297   1.059  0.00  0.00    +0.153 HD
ATOM     11  H   UNL     1     -35.793  19.980   3.015  0.00  0.00    +0.153 HD
ATOM     12  C   UNL     1     -36.962  20.738   0.555  0.00  0.00    +0.012 C 
ENDROOT
BRANCH   7  15
ATOM     13  N   UNL     1     -34.329  26.246   6.086  0.00  0.00    -0.343 N 
ATOM     14  N   UNL     1     -36.587  26.600   5.594  0.00  0.00    -0.285 NA
ATOM     15  C   UNL     1     -35.528  25.814   5.521  0.00  0.00    +0.117 C 
ATOM     16  H   UNL     1     -34.283  27.125   6.526  0.00  0.00    +0.144 HD
ATOM     17  H   UNL     1     -33.531  25.672   6.044  0.00  0.00    +0.144 HD
ATOM     18  H   UNL     1     -36.520  27.476   6.039  0.00  0.00    +0.188 HD
ENDBRANCH   7  15
BRANCH  12  19
ATOM     19  C   UNL     1     -36.917  19.383   0.313  0.00  0.00    +0.093 C 
BRANCH  19  23
ATOM     20  O   UNL     1     -34.563  18.984   0.740  0.00  0.00    -0.457 OA
ATOM     21  C   UNL     1     -34.298  16.926  -0.154  0.00  0.00    +0.037 C 
ATOM     22  C   UNL     1     -33.672  17.980   0.504  0.00  0.00    +0.145 C 
ATOM     23  C   UNL     1     -35.758  18.578   0.236  0.00  0.00    +0.127 C 
ATOM     24  C   UNL     1     -35.651  17.326  -0.322  0.00  0.00    +0.036 C 
ATOM     25  C   UNL     1     -33.535  15.793  -0.484  0.00  0.00    +0.006 C 
ATOM     26  C   UNL     1     -32.177  15.772  -0.137  0.00  0.00    +0.031 C 
ATOM     27  C   UNL     1     -32.325  17.988   0.862  0.00  0.00    +0.038 C 
ATOM     28  C   UNL     1     -31.585  16.851   0.523  0.00  0.00    +0.006 C 
BRANCH  26  31
ATOM     29  N   UNL     1     -30.860  14.424  -1.753  0.00  0.00    -0.343 N 
ATOM     30  N   UNL     1     -31.122  13.694   0.452  0.00  0.00    -0.285 NA
ATOM     31  C   UNL     1     -31.373  14.606  -0.471  0.00  0.00    +0.117 C 
ATOM     32  H   UNL     1     -30.317  13.628  -1.958  0.00  0.00    +0.144 HD
ATOM     33  H   UNL     1     -31.038  15.091  -2.455  0.00  0.00    +0.144 HD
ATOM     34  H   UNL     1     -30.578  12.905   0.228  0.00  0.00    +0.188 HD
ENDBRANCH  26  31
ENDBRANCH  19  23
ENDBRANCH  12  19
TORSDOF 4
ENDMDL
MODEL 4
REMARK VINA RESULT:      -7.3      8.819     12.959
REMARK  Name = 5477931
REMARK  4 active torsions:
REMARK  status: ('A' for Active; 'I' for Inactive)
REMARK    1  A    between atoms: C_7  and  C_14
REMARK    2  A    between atoms: C_18  and  C_19
REMARK    3  A    between atoms: C_19  and  C_23
REMARK    4  A    between atoms: C_26  and  C_31
REMARK                            x       y       z     vdW  Elec       q    Type
REMARK                         _______ _______ _______ _____ _____    ______ ____
ROOT
ATOM      1  N   UNL     1     -34.298  40.920  -0.404  0.00  0.00    -0.301 N 
ATOM      2  N   UNL     1     -34.518  39.509   1.299  0.00  0.00    -0.301 N 
ATOM      3  C   UNL     1     -33.974  41.643   0.715  0.00  0.00    +0.063 C 
ATOM      4  C   UNL     1     -34.119  40.740   1.764  0.00  0.00    +0.063 C 
ATOM      5  C   UNL     1     -34.599  39.696   0.044  0.00  0.00    +0.097 C 
ATOM      6  C   UNL     1     -33.579  42.969   0.893  0.00  0.00    +0.019 C 
ATOM      7  C   UNL     1     -33.322  43.379   2.206  0.00  0.00    +0.032 C 
ATOM      8  C   UNL     1     -33.858  41.168   3.077  0.00  0.00    +0.016 C 
ATOM      9  C   UNL     1     -33.459  42.495   3.280  0.00  0.00    +0.004 C 
ATOM     10  H   UNL     1     -34.310  41.235  -1.338  0.00  0.00    +0.153 HD
ATOM     11  H   UNL     1     -34.697  38.687   1.809  0.00  0.00    +0.153 HD
ATOM     12  C   UNL     1     -34.984  38.734  -1.003  0.00  0.00    +0.012 C 
ENDROOT
BRANCH   7  15
ATOM     13  N   UNL     1     -32.437  45.564   1.427  0.00  0.00    -0.343 N 
ATOM     14  N   UNL     1     -32.968  45.242   3.680  0.00  0.00    -0.285 NA
ATOM     15  C   UNL     1     -32.906  44.750   2.456  0.00  0.00    +0.117 C 
ATOM     16  H   UNL     1     -32.161  46.489   1.619  0.00  0.00    +0.144 HD
ATOM     17  H   UNL     1     -32.382  45.213   0.509  0.00  0.00    +0.144 HD
ATOM     18  H   UNL     1     -32.687  46.170   3.852  0.00  0.00    +0.188 HD
ENDBRANCH   7  15
BRANCH  12  19
ATOM     19  C   UNL     1     -35.374  37.426  -0.813  0.00  0.00    +0.093 C 
BRANCH  19  23
ATOM     20  O   UNL     1     -37.649  36.634  -1.091  0.00  0.00    -0.457 OA
ATOM     21  C   UNL     1     -38.285  36.364   1.060  0.00  0.00    +0.037 C 
ATOM     22  C   UNL     1     -38.671  36.257  -0.272  0.00  0.00    +0.145 C 
ATOM     23  C   UNL     1     -36.610  36.983  -0.290  0.00  0.00    +0.127 C 
ATOM     24  C   UNL     1     -36.946  36.837   1.036  0.00  0.00    +0.036 C 
ATOM     25  C   UNL     1     -39.212  36.016   2.058  0.00  0.00    +0.006 C 
ATOM     26  C   UNL     1     -40.485  35.576   1.670  0.00  0.00    +0.031 C 
ATOM     27  C   UNL     1     -39.929  35.823  -0.689  0.00  0.00    +0.038 C 
ATOM     28  C   UNL     1     -40.834  35.483   0.320  0.00  0.00    +0.006 C 
BRANCH  26  31
ATOM     29  N   UNL     1     -41.473  35.842   3.932  0.00  0.00    -0.343 N 
ATOM     30  N   UNL     1     -42.341  34.262   2.445  0.00  0.00    -0.285 NA
ATOM     31  C   UNL     1     -41.456  35.211   2.690  0.00  0.00    +0.117 C 
ATOM     32  H   UNL     1     -42.139  35.580   4.608  0.00  0.00    +0.144 HD
ATOM     33  H   UNL     1     -40.820  36.550   4.134  0.00  0.00    +0.144 HD
ATOM     34  H   UNL     1     -43.000  34.014   3.134  0.00  0.00    +0.188 HD
ENDBRANCH  26  31
ENDBRANCH  19  23
ENDBRANCH  12  19
TORSDOF 4
ENDMDL
MODEL 5
REMARK VINA RESULT:      -7.3      1.515      2.003
REMARK  Name = 5477931
REMARK  4 active torsions:
REMARK  status: ('A' for Active; 'I' for Inactive)
REMARK    1  A    between atoms: C_7  and  C_14
REMARK    2  A    between atoms: C_18  and  C_19
REMARK    3  A    between atoms: C_19  and  C_23
REMARK    4  A    between atoms: C_26  and  C_31
REMARK                            x       y       z     vdW  Elec       q    Type
REMARK                         _______ _______ _______ _____ _____    ______ ____
ROOT
ATOM      1  N   UNL     1     -34.547  26.086   2.127  0.00  0.00    -0.301 N 
ATOM      2  N   UNL     1     -34.465  27.538   3.808  0.00  0.00    -0.301 N 
ATOM      3  C   UNL     1     -34.810  25.354   3.256  0.00  0.00    +0.063 C 
ATOM      4  C   UNL     1     -34.752  26.283   4.291  0.00  0.00    +0.063 C 
ATOM      5  C   UNL     1     -34.362  27.339   2.557  0.00  0.00    +0.097 C 
ATOM      6  C   UNL     1     -35.083  24.001   3.454  0.00  0.00    +0.019 C 
ATOM      7  C   UNL     1     -35.308  23.590   4.772  0.00  0.00    +0.032 C 
ATOM      8  C   UNL     1     -34.980  25.853   5.610  0.00  0.00    +0.016 C 
ATOM      9  C   UNL     1     -35.257  24.498   5.832  0.00  0.00    +0.004 C 
ATOM     10  H   UNL     1     -34.503  25.760   1.198  0.00  0.00    +0.153 HD
ATOM     11  H   UNL     1     -34.364  28.380   4.306  0.00  0.00    +0.153 HD
ATOM     12  C   UNL     1     -34.061  28.317   1.496  0.00  0.00    +0.012 C 
ENDROOT
BRANCH   7  15
ATOM     13  N   UNL     1     -35.939  21.755   6.322  0.00  0.00    -0.343 N 
ATOM     14  N   UNL     1     -35.536  21.305   4.064  0.00  0.00    -0.285 NA
ATOM     15  C   UNL     1     -35.598  22.190   5.043  0.00  0.00    +0.117 C 
ATOM     16  H   UNL     1     -36.131  20.803   6.483  0.00  0.00    +0.144 HD
ATOM     17  H   UNL     1     -35.986  22.400   7.065  0.00  0.00    +0.144 HD
ATOM     18  H   UNL     1     -35.731  20.357   4.245  0.00  0.00    +0.188 HD
ENDBRANCH   7  15
BRANCH  12  19
ATOM     19  C   UNL     1     -33.793  29.657   1.666  0.00  0.00    +0.093 C 
BRANCH  19  23
ATOM     20  O   UNL     1     -34.380  31.975   1.259  0.00  0.00    -0.457 OA
ATOM     21  C   UNL     1     -36.587  31.960   1.745  0.00  0.00    +0.037 C 
ATOM     22  C   UNL     1     -35.510  32.735   1.329  0.00  0.00    +0.145 C 
ATOM     23  C   UNL     1     -34.730  30.715   1.629  0.00  0.00    +0.127 C 
ATOM     24  C   UNL     1     -36.068  30.651   1.937  0.00  0.00    +0.036 C 
ATOM     25  C   UNL     1     -37.845  32.574   1.878  0.00  0.00    +0.006 C 
ATOM     26  C   UNL     1     -37.961  33.939   1.585  0.00  0.00    +0.031 C 
ATOM     27  C   UNL     1     -35.594  34.095   1.031  0.00  0.00    +0.038 C 
ATOM     28  C   UNL     1     -36.854  34.684   1.170  0.00  0.00    +0.006 C 
BRANCH  26  31
ATOM     29  N   UNL     1     -39.371  35.978   1.720  0.00  0.00    -0.343 N 
ATOM     30  N   UNL     1     -40.349  33.859   1.841  0.00  0.00    -0.285 NA
ATOM     31  C   UNL     1     -39.256  34.590   1.717  0.00  0.00    +0.117 C 
ATOM     32  H   UNL     1     -40.257  36.398   1.809  0.00  0.00    +0.144 HD
ATOM     33  H   UNL     1     -38.567  36.540   1.631  0.00  0.00    +0.144 HD
ATOM     34  H   UNL     1     -41.226  34.297   1.930  0.00  0.00    +0.188 HD
ENDBRANCH  26  31
ENDBRANCH  19  23
ENDBRANCH  12  19
TORSDOF 4
ENDMDL
MODEL 6
REMARK VINA RESULT:      -7.3      6.917      9.132
REMARK  Name = 5477931
REMARK  4 active torsions:
REMARK  status: ('A' for Active; 'I' for Inactive)
REMARK    1  A    between atoms: C_7  and  C_14
REMARK    2  A    between atoms: C_18  and  C_19
REMARK    3  A    between atoms: C_19  and  C_23
REMARK    4  A    between atoms: C_26  and  C_31
REMARK                            x       y       z     vdW  Elec       q    Type
REMARK                         _______ _______ _______ _____ _____    ______ ____
ROOT
ATOM      1  N   UNL     1     -34.837  18.935   1.110  0.00  0.00    -0.301 N 
ATOM      2  N   UNL     1     -33.709  20.825   0.802  0.00  0.00    -0.301 N 
ATOM      3  C   UNL     1     -33.566  18.551   0.770  0.00  0.00    +0.063 C 
ATOM      4  C   UNL     1     -32.881  19.748   0.583  0.00  0.00    +0.063 C 
ATOM      5  C   UNL     1     -34.813  20.272   1.100  0.00  0.00    +0.097 C 
ATOM      6  C   UNL     1     -32.974  17.297   0.614  0.00  0.00    +0.019 C 
ATOM      7  C   UNL     1     -31.623  17.278   0.252  0.00  0.00    +0.032 C 
ATOM      8  C   UNL     1     -31.524  19.711   0.218  0.00  0.00    +0.016 C 
ATOM      9  C   UNL     1     -30.910  18.463   0.056  0.00  0.00    +0.004 C 
ATOM     10  H   UNL     1     -35.604  18.352   1.317  0.00  0.00    +0.153 HD
ATOM     11  H   UNL     1     -33.498  21.784   0.743  0.00  0.00    +0.153 HD
ATOM     12  C   UNL     1     -36.095  20.913   1.443  0.00  0.00    +0.012 C 
ENDROOT
BRANCH   7  15
ATOM     13  N   UNL     1     -31.648  14.796   0.163  0.00  0.00    -0.343 N 
ATOM     14  N   UNL     1     -29.654  15.969  -0.174  0.00  0.00    -0.285 NA
ATOM     15  C   UNL     1     -30.951  16.000   0.074  0.00  0.00    +0.117 C 
ATOM     16  H   UNL     1     -31.172  13.943   0.039  0.00  0.00    +0.144 HD
ATOM     17  H   UNL     1     -32.614  14.800   0.350  0.00  0.00    +0.144 HD
ATOM     18  H   UNL     1     -29.197  15.105  -0.294  0.00  0.00    +0.188 HD
ENDBRANCH   7  15
BRANCH  12  19
ATOM     19  C   UNL     1     -36.355  22.266   1.471  0.00  0.00    +0.093 C 
BRANCH  19  23
ATOM     20  O   UNL     1     -36.449  23.481   3.568  0.00  0.00    -0.457 OA
ATOM     21  C   UNL     1     -34.578  24.740   3.430  0.00  0.00    +0.037 C 
ATOM     22  C   UNL     1     -35.687  24.415   4.204  0.00  0.00    +0.145 C 
ATOM     23  C   UNL     1     -35.833  23.205   2.389  0.00  0.00    +0.127 C 
ATOM     24  C   UNL     1     -34.684  23.949   2.255  0.00  0.00    +0.036 C 
ATOM     25  C   UNL     1     -33.670  25.693   3.924  0.00  0.00    +0.006 C 
ATOM     26  C   UNL     1     -33.920  26.275   5.174  0.00  0.00    +0.031 C 
ATOM     27  C   UNL     1     -35.962  24.977   5.450  0.00  0.00    +0.038 C 
ATOM     28  C   UNL     1     -35.046  25.922   5.921  0.00  0.00    +0.006 C 
BRANCH  26  31
ATOM     29  N   UNL     1     -32.698  28.430   4.997  0.00  0.00    -0.343 N 
ATOM     30  N   UNL     1     -32.401  27.056   6.864  0.00  0.00    -0.285 NA
ATOM     31  C   UNL     1     -32.990  27.263   5.700  0.00  0.00    +0.117 C 
ATOM     32  H   UNL     1     -32.067  29.085   5.372  0.00  0.00    +0.144 HD
ATOM     33  H   UNL     1     -33.126  28.600   4.126  0.00  0.00    +0.144 HD
ATOM     34  H   UNL     1     -31.771  27.723   7.222  0.00  0.00    +0.188 HD
ENDBRANCH  26  31
ENDBRANCH  19  23
ENDBRANCH  12  19
TORSDOF 4
ENDMDL
MODEL 7
REMARK VINA RESULT:      -7.3      7.129     11.066
REMARK  Name = 5477931
REMARK  4 active torsions:
REMARK  status: ('A' for Active; 'I' for Inactive)
REMARK    1  A    between atoms: C_7  and  C_14
REMARK    2  A    between atoms: C_18  and  C_19
REMARK    3  A    between atoms: C_19  and  C_23
REMARK    4  A    between atoms: C_26  and  C_31
REMARK                            x       y       z     vdW  Elec       q    Type
REMARK                         _______ _______ _______ _____ _____    ______ ____
ROOT
ATOM      1  N   UNL     1     -38.283  18.642  -1.207  0.00  0.00    -0.301 N 
ATOM      2  N   UNL     1     -37.381  17.344   0.356  0.00  0.00    -0.301 N 
ATOM      3  C   UNL     1     -38.869  17.413  -1.368  0.00  0.00    +0.063 C 
ATOM      4  C   UNL     1     -38.290  16.621  -0.381  0.00  0.00    +0.063 C 
ATOM      5  C   UNL     1     -37.437  18.494  -0.181  0.00  0.00    +0.097 C 
ATOM      6  C   UNL     1     -39.827  16.941  -2.266  0.00  0.00    +0.019 C 
ATOM      7  C   UNL     1     -40.202  15.599  -2.140  0.00  0.00    +0.032 C 
ATOM      8  C   UNL     1     -38.677  15.275  -0.268  0.00  0.00    +0.016 C 
ATOM      9  C   UNL     1     -39.638  14.780  -1.159  0.00  0.00    +0.004 C 
ATOM     10  H   UNL     1     -38.449  19.458  -1.733  0.00  0.00    +0.153 HD
ATOM     11  H   UNL     1     -36.827  17.046   1.112  0.00  0.00    +0.153 HD
ATOM     12  C   UNL     1     -36.684  19.710   0.176  0.00  0.00    +0.012 C 
ENDROOT
BRANCH   7  15
ATOM     13  N   UNL     1     -41.728  13.775  -2.853  0.00  0.00    -0.343 N 
ATOM     14  N   UNL     1     -41.608  15.760  -4.081  0.00  0.00    -0.285 NA
ATOM     15  C   UNL     1     -41.197  15.048  -3.047  0.00  0.00    +0.117 C 
ATOM     16  H   UNL     1     -42.400  13.422  -3.480  0.00  0.00    +0.144 HD
ATOM     17  H   UNL     1     -41.431  13.229  -2.090  0.00  0.00    +0.144 HD
ATOM     18  H   UNL     1     -42.280  15.389  -4.697  0.00  0.00    +0.188 HD
ENDBRANCH   7  15
BRANCH  12  19
ATOM     19  C   UNL     1     -35.728  19.824   1.161  0.00  0.00    +0.093 C 
BRANCH  19  23
ATOM     20  O   UNL     1     -35.461  20.577   3.451  0.00  0.00    -0.457 OA
ATOM     21  C   UNL     1     -35.551  22.820   3.187  0.00  0.00    +0.037 C 
ATOM     22  C   UNL     1     -35.410  21.777   4.097  0.00  0.00    +0.145 C 
ATOM     23  C   UNL     1     -35.635  20.848   2.131  0.00  0.00    +0.127 C 
ATOM     24  C   UNL     1     -35.697  22.204   1.915  0.00  0.00    +0.036 C 
ATOM     25  C   UNL     1     -35.523  24.140   3.670  0.00  0.00    +0.006 C 
ATOM     26  C   UNL     1     -35.355  24.350   5.045  0.00  0.00    +0.031 C 
ATOM     27  C   UNL     1     -35.241  21.954   5.469  0.00  0.00    +0.038 C 
ATOM     28  C   UNL     1     -35.217  23.275   5.926  0.00  0.00    +0.006 C 
BRANCH  26  31
ATOM     29  N   UNL     1     -36.469  26.503   5.583  0.00  0.00    -0.343 N 
ATOM     30  N   UNL     1     -34.190  26.214   6.016  0.00  0.00    -0.285 NA
ATOM     31  C   UNL     1     -35.323  25.710   5.561  0.00  0.00    +0.117 C 
ATOM     32  H   UNL     1     -36.426  27.420   5.937  0.00  0.00    +0.144 HD
ATOM     33  H   UNL     1     -37.322  26.145   5.246  0.00  0.00    +0.144 HD
ATOM     34  H   UNL     1     -34.167  27.134   6.366  0.00  0.00    +0.188 HD
ENDBRANCH  26  31
ENDBRANCH  19  23
ENDBRANCH  12  19
TORSDOF 4
ENDMDL
MODEL 8
REMARK VINA RESULT:      -7.2      1.898      2.143
REMARK  Name = 5477931
REMARK  4 active torsions:
REMARK  status: ('A' for Active; 'I' for Inactive)
REMARK    1  A    between atoms: C_7  and  C_14
REMARK    2  A    between atoms: C_18  and  C_19
REMARK    3  A    between atoms: C_19  and  C_23
REMARK    4  A    between atoms: C_26  and  C_31
REMARK                            x       y       z     vdW  Elec       q    Type
REMARK                         _______ _______ _______ _____ _____    ______ ____
ROOT
ATOM      1  N   UNL     1     -35.498  26.274   2.401  0.00  0.00    -0.301 N 
ATOM      2  N   UNL     1     -35.015  27.293   4.315  0.00  0.00    -0.301 N 
ATOM      3  C   UNL     1     -35.404  25.274   3.334  0.00  0.00    +0.063 C 
ATOM      4  C   UNL     1     -35.102  25.936   4.520  0.00  0.00    +0.063 C 
ATOM      5  C   UNL     1     -35.256  27.405   3.073  0.00  0.00    +0.097 C 
ATOM      6  C   UNL     1     -35.552  23.890   3.244  0.00  0.00    +0.019 C 
ATOM      7  C   UNL     1     -35.383  23.160   4.425  0.00  0.00    +0.032 C 
ATOM      8  C   UNL     1     -34.934  25.188   5.698  0.00  0.00    +0.016 C 
ATOM      9  C   UNL     1     -35.079  23.796   5.631  0.00  0.00    +0.004 C 
ATOM     10  H   UNL     1     -35.700  26.181   1.441  0.00  0.00    +0.153 HD
ATOM     11  H   UNL     1     -34.817  28.002   4.969  0.00  0.00    +0.153 HD
ATOM     12  C   UNL     1     -35.305  28.631   2.255  0.00  0.00    +0.012 C 
ENDROOT
BRANCH   7  15
ATOM     13  N   UNL     1     -35.988  21.054   3.258  0.00  0.00    -0.343 N 
ATOM     14  N   UNL     1     -35.215  21.000   5.463  0.00  0.00    -0.285 NA
ATOM     15  C   UNL     1     -35.525  21.713   4.395  0.00  0.00    +0.117 C 
ATOM     16  H   UNL     1     -36.076  20.073   3.260  0.00  0.00    +0.144 HD
ATOM     17  H   UNL     1     -36.227  21.569   2.454  0.00  0.00    +0.144 HD
ATOM     18  H   UNL     1     -35.310  20.020   5.445  0.00  0.00    +0.188 HD
ENDBRANCH   7  15
BRANCH  12  19
ATOM     19  C   UNL     1     -35.059  29.915   2.687  0.00  0.00    +0.093 C 
BRANCH  19  23
ATOM     20  O   UNL     1     -37.008  31.271   2.188  0.00  0.00    -0.457 OA
ATOM     21  C   UNL     1     -36.044  33.128   1.338  0.00  0.00    +0.037 C 
ATOM     22  C   UNL     1     -37.244  32.506   1.664  0.00  0.00    +0.145 C 
ATOM     23  C   UNL     1     -35.660  31.098   2.199  0.00  0.00    +0.127 C 
ATOM     24  C   UNL     1     -35.023  32.205   1.689  0.00  0.00    +0.036 C 
ATOM     25  C   UNL     1     -36.085  34.419   0.781  0.00  0.00    +0.006 C 
ATOM     26  C   UNL     1     -37.333  35.023   0.578  0.00  0.00    +0.031 C 
ATOM     27  C   UNL     1     -38.500  33.082   1.474  0.00  0.00    +0.038 C 
ATOM     28  C   UNL     1     -38.517  34.365   0.919  0.00  0.00    +0.006 C 
BRANCH  26  31
ATOM     29  N   UNL     1     -36.720  37.430   0.585  0.00  0.00    -0.343 N 
ATOM     30  N   UNL     1     -38.103  36.571  -1.091  0.00  0.00    -0.285 NA
ATOM     31  C   UNL     1     -37.394  36.359   0.003  0.00  0.00    +0.117 C 
ATOM     32  H   UNL     1     -36.774  38.325   0.180  0.00  0.00    +0.144 HD
ATOM     33  H   UNL     1     -36.188  37.291   1.402  0.00  0.00    +0.144 HD
ATOM     34  H   UNL     1     -38.146  37.474  -1.482  0.00  0.00    +0.188 HD
ENDBRANCH  26  31
ENDBRANCH  19  23
ENDBRANCH  12  19
TORSDOF 4
ENDMDL
MODEL 9
REMARK VINA RESULT:      -7.1      4.303      5.206
REMARK  Name = 5477931
REMARK  4 active torsions:
REMARK  status: ('A' for Active; 'I' for Inactive)
REMARK    1  A    between atoms: C_7  and  C_14
REMARK    2  A    between atoms: C_18  and  C_19
REMARK    3  A    between atoms: C_19  and  C_23
REMARK    4  A    between atoms: C_26  and  C_31
REMARK                            x       y       z     vdW  Elec       q    Type
REMARK                         _______ _______ _______ _____ _____    ______ ____
ROOT
ATOM      1  N   UNL     1     -33.282  29.490   3.719  0.00  0.00    -0.301 N 
ATOM      2  N   UNL     1     -32.550  31.477   3.045  0.00  0.00    -0.301 N 
ATOM      3  C   UNL     1     -32.131  29.715   4.428  0.00  0.00    +0.063 C 
ATOM      4  C   UNL     1     -31.693  30.961   3.989  0.00  0.00    +0.063 C 
ATOM      5  C   UNL     1     -33.435  30.571   2.946  0.00  0.00    +0.097 C 
ATOM      6  C   UNL     1     -31.455  28.958   5.385  0.00  0.00    +0.019 C 
ATOM      7  C   UNL     1     -30.282  29.509   5.911  0.00  0.00    +0.032 C 
ATOM      8  C   UNL     1     -30.512  31.501   4.528  0.00  0.00    +0.016 C 
ATOM      9  C   UNL     1     -29.818  30.758   5.491  0.00  0.00    +0.004 C 
ATOM     10  H   UNL     1     -33.870  28.700   3.766  0.00  0.00    +0.153 HD
ATOM     11  H   UNL     1     -32.492  32.334   2.566  0.00  0.00    +0.153 HD
ATOM     12  C   UNL     1     -34.630  30.547   2.083  0.00  0.00    +0.012 C 
ENDROOT
BRANCH   7  15
ATOM     13  N   UNL     1     -28.953  29.409   8.006  0.00  0.00    -0.343 N 
ATOM     14  N   UNL     1     -29.390  27.460   6.792  0.00  0.00    -0.285 NA
ATOM     15  C   UNL     1     -29.532  28.767   6.913  0.00  0.00    +0.117 C 
ATOM     16  H   UNL     1     -28.450  28.887   8.673  0.00  0.00    +0.144 HD
ATOM     17  H   UNL     1     -29.046  30.383   8.111  0.00  0.00    +0.144 HD
ATOM     18  H   UNL     1     -28.883  26.956   7.469  0.00  0.00    +0.188 HD
ENDBRANCH   7  15
BRANCH  12  19
ATOM     19  C   UNL     1     -35.002  31.510   1.171  0.00  0.00    +0.093 C 
BRANCH  19  23
ATOM     20  O   UNL     1     -35.820  33.791   1.056  0.00  0.00    -0.457 OA
ATOM     21  C   UNL     1     -37.950  33.529   1.765  0.00  0.00    +0.037 C 
ATOM     22  C   UNL     1     -36.993  34.434   1.318  0.00  0.00    +0.145 C 
ATOM     23  C   UNL     1     -36.021  32.477   1.335  0.00  0.00    +0.127 C 
ATOM     24  C   UNL     1     -37.307  32.262   1.772  0.00  0.00    +0.036 C 
ATOM     25  C   UNL     1     -39.231  34.010   2.087  0.00  0.00    +0.006 C 
ATOM     26  C   UNL     1     -39.491  35.379   1.943  0.00  0.00    +0.031 C 
ATOM     27  C   UNL     1     -37.222  35.801   1.165  0.00  0.00    +0.038 C 
ATOM     28  C   UNL     1     -38.502  36.257   1.491  0.00  0.00    +0.006 C 
BRANCH  26  31
ATOM     29  N   UNL     1     -41.298  35.860   3.576  0.00  0.00    -0.343 N 
ATOM     30  N   UNL     1     -41.575  36.400   1.319  0.00  0.00    -0.285 NA
ATOM     31  C   UNL     1     -40.812  35.894   2.272  0.00  0.00    +0.117 C 
ATOM     32  H   UNL     1     -42.195  36.214   3.777  0.00  0.00    +0.144 HD
ATOM     33  H   UNL     1     -40.745  35.484   4.299  0.00  0.00    +0.144 HD
ATOM     34  H   UNL     1     -42.469  36.748   1.539  0.00  0.00    +0.188 HD
ENDBRANCH  26  31
ENDBRANCH  19  23
ENDBRANCH  12  19
TORSDOF 4
ENDMDL
