MODEL 1
REMARK VINA RESULT:      -5.9      0.000      0.000
REMARK  Name = 5326
REMARK  4 active torsions:
REMARK  status: ('A' for Active; 'I' for Inactive)
REMARK    1  A    between atoms: S_1  and  N_4
REMARK    2  A    between atoms: S_1  and  C_14
REMARK    3  A    between atoms: C_8  and  O_12
REMARK    4  A    between atoms: C_17  and  N_20
REMARK                            x       y       z     vdW  Elec       q    Type
REMARK                         _______ _______ _______ _____ _____    ______ ____
ROOT
ATOM      1  S   UNL     1     -36.317  25.942   3.038  0.00  0.00    +0.081 S 
ATOM      2  O   UNL     1     -36.372  25.634   1.614  0.00  0.00    -0.149 OA
ATOM      3  O   UNL     1     -35.413  26.990   3.495  0.00  0.00    -0.149 OA
ENDROOT
BRANCH   1   4
ATOM      4  N   UNL     1     -37.919  26.289   3.572  0.00  0.00    -0.158 N 
ATOM      5  N   UNL     1     -39.143  24.385   2.906  0.00  0.00    -0.199 NA
ATOM      6  N   UNL     1     -39.788  26.586   2.166  0.00  0.00    -0.176 NA
ATOM      7  C   UNL     1     -39.015  25.719   2.837  0.00  0.00    +0.106 C 
ATOM      8  C   UNL     1     -41.055  24.660   1.470  0.00  0.00    +0.161 C 
ATOM      9  C   UNL     1     -40.182  23.885   2.205  0.00  0.00    +0.203 C 
ATOM     10  C   UNL     1     -40.808  26.018   1.488  0.00  0.00    +0.145 C 
ATOM     11  H   UNL     1     -38.078  26.860   4.358  0.00  0.00    +0.186 HD
BRANCH   8  12
ATOM     12  O   UNL     1     -42.085  24.125   0.780  0.00  0.00    -0.472 OA
ATOM     13  C   UNL     1     -43.280  24.906   0.668  0.00  0.00    +0.252 C 
ENDBRANCH   8  12
ENDBRANCH   1   4
BRANCH   1  14
ATOM     14  C   UNL     1     -35.937  24.465   3.888  0.00  0.00    +0.126 C 
ATOM     15  C   UNL     1     -35.838  23.264   3.187  0.00  0.00    +0.021 C 
ATOM     16  C   UNL     1     -35.735  24.488   5.268  0.00  0.00    +0.021 C 
ATOM     17  C   UNL     1     -35.333  22.105   5.247  0.00  0.00    +0.042 C 
ATOM     18  C   UNL     1     -35.536  22.083   3.867  0.00  0.00    +0.015 C 
ATOM     19  C   UNL     1     -35.433  23.308   5.947  0.00  0.00    +0.015 C 
BRANCH  17  20
ATOM     20  N   UNL     1     -35.026  20.913   5.934  0.00  0.00    -0.357 N 
ATOM     21  H   UNL     1     -35.263  20.042   5.541  0.00  0.00    +0.142 HD
ATOM     22  H   UNL     1     -34.573  20.951   6.808  0.00  0.00    +0.142 HD
ENDBRANCH  17  20
ENDBRANCH   1  14
TORSDOF 4
ENDMDL
MODEL 2
REMARK VINA RESULT:      -5.8      2.694      3.584
REMARK  Name = 5326
REMARK  4 active torsions:
REMARK  status: ('A' for Active; 'I' for Inactive)
REMARK    1  A    between atoms: S_1  and  N_4
REMARK    2  A    between atoms: S_1  and  C_14
REMARK    3  A    between atoms: C_8  and  O_12
REMARK    4  A    between atoms: C_17  and  N_20
REMARK                            x       y       z     vdW  Elec       q    Type
REMARK                         _______ _______ _______ _____ _____    ______ ____
ROOT
ATOM      1  S   UNL     1     -35.638  22.135   3.350  0.00  0.00    +0.081 S 
ATOM      2  O   UNL     1     -35.326  21.131   4.360  0.00  0.00    -0.149 OA
ATOM      3  O   UNL     1     -35.194  21.912   1.979  0.00  0.00    -0.149 OA
ENDROOT
BRANCH   1   4
ATOM      4  N   UNL     1     -37.340  22.400   3.368  0.00  0.00    -0.158 N 
ATOM      5  N   UNL     1     -37.703  23.756   1.471  0.00  0.00    -0.199 NA
ATOM      6  N   UNL     1     -38.389  24.492   3.661  0.00  0.00    -0.176 NA
ATOM      7  C   UNL     1     -37.840  23.623   2.800  0.00  0.00    +0.106 C 
ATOM      8  C   UNL     1     -38.771  25.896   1.743  0.00  0.00    +0.161 C 
ATOM      9  C   UNL     1     -38.183  24.915   0.973  0.00  0.00    +0.203 C 
ATOM     10  C   UNL     1     -38.848  25.628   3.095  0.00  0.00    +0.145 C 
ATOM     11  H   UNL     1     -37.953  21.733   3.755  0.00  0.00    +0.186 HD
BRANCH   8  12
ATOM     12  O   UNL     1     -39.241  27.045   1.210  0.00  0.00    -0.472 OA
ATOM     13  C   UNL     1     -40.592  27.048   0.738  0.00  0.00    +0.252 C 
ENDBRANCH   8  12
ENDBRANCH   1   4
BRANCH   1  14
ATOM     14  C   UNL     1     -35.002  23.663   3.903  0.00  0.00    +0.126 C 
ATOM     15  C   UNL     1     -34.391  24.532   2.999  0.00  0.00    +0.021 C 
ATOM     16  C   UNL     1     -35.103  24.014   5.250  0.00  0.00    +0.021 C 
ATOM     17  C   UNL     1     -33.983  26.104   4.789  0.00  0.00    +0.042 C 
ATOM     18  C   UNL     1     -33.881  25.753   3.442  0.00  0.00    +0.015 C 
ATOM     19  C   UNL     1     -34.593  25.234   5.692  0.00  0.00    +0.015 C 
BRANCH  17  20
ATOM     20  N   UNL     1     -33.469  27.339   5.236  0.00  0.00    -0.357 N 
ATOM     21  H   UNL     1     -33.180  27.443   6.171  0.00  0.00    +0.142 HD
ATOM     22  H   UNL     1     -33.401  28.099   4.612  0.00  0.00    +0.142 HD
ENDBRANCH  17  20
ENDBRANCH   1  14
TORSDOF 4
ENDMDL
MODEL 3
REMARK VINA RESULT:      -5.8      5.776      8.896
REMARK  Name = 5326
REMARK  4 active torsions:
REMARK  status: ('A' for Active; 'I' for Inactive)
REMARK    1  A    between atoms: S_1  and  N_4
REMARK    2  A    between atoms: S_1  and  C_14
REMARK    3  A    between atoms: C_8  and  O_12
REMARK    4  A    between atoms: C_17  and  N_20
REMARK                            x       y       z     vdW  Elec       q    Type
REMARK                         _______ _______ _______ _____ _____    ______ ____
ROOT
ATOM      1  S   UNL     1     -33.138  27.409   4.099  0.00  0.00    +0.081 S 
ATOM      2  O   UNL     1     -34.050  28.469   3.686  0.00  0.00    -0.149 OA
ATOM      3  O   UNL     1     -31.987  27.106   3.257  0.00  0.00    -0.149 OA
ENDROOT
BRANCH   1   4
ATOM      4  N   UNL     1     -32.604  27.757   5.700  0.00  0.00    -0.158 N 
ATOM      5  N   UNL     1     -31.354  29.741   5.443  0.00  0.00    -0.199 NA
ATOM      6  N   UNL     1     -30.356  27.773   6.413  0.00  0.00    -0.176 NA
ATOM      7  C   UNL     1     -31.364  28.466   5.861  0.00  0.00    +0.106 C 
ATOM      8  C   UNL     1     -29.057  29.785   6.161  0.00  0.00    +0.161 C 
ATOM      9  C   UNL     1     -30.175  30.375   5.609  0.00  0.00    +0.203 C 
ATOM     10  C   UNL     1     -29.208  28.468   6.550  0.00  0.00    +0.145 C 
ATOM     11  H   UNL     1     -33.134  27.478   6.482  0.00  0.00    +0.186 HD
BRANCH   8  12
ATOM     12  O   UNL     1     -27.892  30.450   6.313  0.00  0.00    -0.472 OA
ATOM     13  C   UNL     1     -27.311  30.473   7.621  0.00  0.00    +0.252 C 
ENDBRANCH   8  12
ENDBRANCH   1   4
BRANCH   1  14
ATOM     14  C   UNL     1     -34.075  25.952   4.310  0.00  0.00    +0.126 C 
ATOM     15  C   UNL     1     -34.122  24.999   3.293  0.00  0.00    +0.021 C 
ATOM     16  C   UNL     1     -34.779  25.742   5.497  0.00  0.00    +0.021 C 
ATOM     17  C   UNL     1     -35.576  23.625   4.648  0.00  0.00    +0.042 C 
ATOM     18  C   UNL     1     -34.873  23.835   3.462  0.00  0.00    +0.015 C 
ATOM     19  C   UNL     1     -35.529  24.579   5.665  0.00  0.00    +0.015 C 
BRANCH  17  20
ATOM     20  N   UNL     1     -36.333  22.448   4.820  0.00  0.00    -0.357 N 
ATOM     21  H   UNL     1     -37.128  22.287   4.262  0.00  0.00    +0.142 HD
ATOM     22  H   UNL     1     -36.067  21.786   5.499  0.00  0.00    +0.142 HD
ENDBRANCH  17  20
ENDBRANCH   1  14
TORSDOF 4
ENDMDL
MODEL 4
REMARK VINA RESULT:      -5.7      3.684      6.165
REMARK  Name = 5326
REMARK  4 active torsions:
REMARK  status: ('A' for Active; 'I' for Inactive)
REMARK    1  A    between atoms: S_1  and  N_4
REMARK    2  A    between atoms: S_1  and  C_14
REMARK    3  A    between atoms: C_8  and  O_12
REMARK    4  A    between atoms: C_17  and  N_20
REMARK                            x       y       z     vdW  Elec       q    Type
REMARK                         _______ _______ _______ _____ _____    ______ ____
ROOT
ATOM      1  S   UNL     1     -37.243  21.978   2.153  0.00  0.00    +0.081 S 
ATOM      2  O   UNL     1     -38.626  21.516   2.149  0.00  0.00    -0.149 OA
ATOM      3  O   UNL     1     -36.915  23.219   1.462  0.00  0.00    -0.149 OA
ENDROOT
BRANCH   1   4
ATOM      4  N   UNL     1     -36.715  22.072   3.790  0.00  0.00    -0.158 N 
ATOM      5  N   UNL     1     -36.978  24.357   4.319  0.00  0.00    -0.199 NA
ATOM      6  N   UNL     1     -34.835  23.278   4.548  0.00  0.00    -0.176 NA
ATOM      7  C   UNL     1     -36.142  23.310   4.246  0.00  0.00    +0.106 C 
ATOM      8  C   UNL     1     -35.076  25.611   5.094  0.00  0.00    +0.161 C 
ATOM      9  C   UNL     1     -36.407  25.501   4.750  0.00  0.00    +0.203 C 
ATOM     10  C   UNL     1     -34.330  24.455   4.972  0.00  0.00    +0.145 C 
ATOM     11  H   UNL     1     -36.805  21.301   4.397  0.00  0.00    +0.186 HD
BRANCH   8  12
ATOM     12  O   UNL     1     -34.537  26.773   5.522  0.00  0.00    -0.472 OA
ATOM     13  C   UNL     1     -33.330  26.697   6.289  0.00  0.00    +0.252 C 
ENDBRANCH   8  12
ENDBRANCH   1   4
BRANCH   1  14
ATOM     14  C   UNL     1     -36.253  20.696   1.501  0.00  0.00    +0.126 C 
ATOM     15  C   UNL     1     -34.956  20.506   1.978  0.00  0.00    +0.021 C 
ATOM     16  C   UNL     1     -36.758  19.864   0.501  0.00  0.00    +0.021 C 
ATOM     17  C   UNL     1     -34.669  18.650   0.457  0.00  0.00    +0.042 C 
ATOM     18  C   UNL     1     -34.164  19.483   1.456  0.00  0.00    +0.015 C 
ATOM     19  C   UNL     1     -35.966  18.842  -0.020  0.00  0.00    +0.015 C 
BRANCH  17  20
ATOM     20  N   UNL     1     -33.870  17.615  -0.070  0.00  0.00    -0.357 N 
ATOM     21  H   UNL     1     -33.095  17.830  -0.637  0.00  0.00    +0.142 HD
ATOM     22  H   UNL     1     -34.087  16.675   0.131  0.00  0.00    +0.142 HD
ENDBRANCH  17  20
ENDBRANCH   1  14
TORSDOF 4
ENDMDL
MODEL 5
REMARK VINA RESULT:      -5.6      3.910      6.238
REMARK  Name = 5326
REMARK  4 active torsions:
REMARK  status: ('A' for Active; 'I' for Inactive)
REMARK    1  A    between atoms: S_1  and  N_4
REMARK    2  A    between atoms: S_1  and  C_14
REMARK    3  A    between atoms: C_8  and  O_12
REMARK    4  A    between atoms: C_17  and  N_20
REMARK                            x       y       z     vdW  Elec       q    Type
REMARK                         _______ _______ _______ _____ _____    ______ ____
ROOT
ATOM      1  S   UNL     1     -36.514  21.245   1.309  0.00  0.00    +0.081 S 
ATOM      2  O   UNL     1     -37.818  20.891   0.762  0.00  0.00    -0.149 OA
ATOM      3  O   UNL     1     -35.882  22.485   0.874  0.00  0.00    -0.149 OA
ENDROOT
BRANCH   1   4
ATOM      4  N   UNL     1     -36.635  21.232   3.028  0.00  0.00    -0.158 N 
ATOM      5  N   UNL     1     -37.196  23.462   3.554  0.00  0.00    -0.199 NA
ATOM      6  N   UNL     1     -35.235  22.430   4.501  0.00  0.00    -0.176 NA
ATOM      7  C   UNL     1     -36.337  22.448   3.736  0.00  0.00    +0.106 C 
ATOM      8  C   UNL     1     -35.784  24.708   5.054  0.00  0.00    +0.161 C 
ATOM      9  C   UNL     1     -36.887  24.586   4.234  0.00  0.00    +0.203 C 
ATOM     10  C   UNL     1     -34.986  23.585   5.151  0.00  0.00    +0.145 C 
ATOM     11  H   UNL     1     -36.901  20.416   3.511  0.00  0.00    +0.186 HD
BRANCH   8  12
ATOM     12  O   UNL     1     -35.504  25.849   5.719  0.00  0.00    -0.472 OA
ATOM     13  C   UNL     1     -34.125  26.173   5.922  0.00  0.00    +0.252 C 
ENDBRANCH   8  12
ENDBRANCH   1   4
BRANCH   1  14
ATOM     14  C   UNL     1     -35.425  19.919   0.988  0.00  0.00    +0.126 C 
ATOM     15  C   UNL     1     -35.750  18.969   0.020  0.00  0.00    +0.021 C 
ATOM     16  C   UNL     1     -34.231  19.809   1.701  0.00  0.00    +0.021 C 
ATOM     17  C   UNL     1     -33.686  17.799   0.477  0.00  0.00    +0.042 C 
ATOM     18  C   UNL     1     -34.880  17.908  -0.236  0.00  0.00    +0.015 C 
ATOM     19  C   UNL     1     -33.362  18.749   1.445  0.00  0.00    +0.015 C 
BRANCH  17  20
ATOM     20  N   UNL     1     -32.805  16.728   0.217  0.00  0.00    -0.357 N 
ATOM     21  H   UNL     1     -31.994  16.877  -0.320  0.00  0.00    +0.142 HD
ATOM     22  H   UNL     1     -33.002  15.831   0.574  0.00  0.00    +0.142 HD
ENDBRANCH  17  20
ENDBRANCH   1  14
TORSDOF 4
ENDMDL
MODEL 6
REMARK VINA RESULT:      -5.6      3.848      6.585
REMARK  Name = 5326
REMARK  4 active torsions:
REMARK  status: ('A' for Active; 'I' for Inactive)
REMARK    1  A    between atoms: S_1  and  N_4
REMARK    2  A    between atoms: S_1  and  C_14
REMARK    3  A    between atoms: C_8  and  O_12
REMARK    4  A    between atoms: C_17  and  N_20
REMARK                            x       y       z     vdW  Elec       q    Type
REMARK                         _______ _______ _______ _____ _____    ______ ____
ROOT
ATOM      1  S   UNL     1     -35.988  24.011   4.166  0.00  0.00    +0.081 S 
ATOM      2  O   UNL     1     -36.075  23.654   5.577  0.00  0.00    -0.149 OA
ATOM      3  O   UNL     1     -36.835  25.084   3.660  0.00  0.00    -0.149 OA
ENDROOT
BRANCH   1   4
ATOM      4  N   UNL     1     -34.340  24.359   3.804  0.00  0.00    -0.158 N 
ATOM      5  N   UNL     1     -33.677  25.772   5.572  0.00  0.00    -0.199 NA
ATOM      6  N   UNL     1     -33.481  26.492   3.280  0.00  0.00    -0.176 NA
ATOM      7  C   UNL     1     -33.801  25.616   4.245  0.00  0.00    +0.106 C 
ATOM      8  C   UNL     1     -32.797  27.955   5.066  0.00  0.00    +0.161 C 
ATOM      9  C   UNL     1     -33.167  26.963   5.950  0.00  0.00    +0.203 C 
ATOM     10  C   UNL     1     -32.978  27.661   3.729  0.00  0.00    +0.145 C 
ATOM     11  H   UNL     1     -33.783  23.714   3.309  0.00  0.00    +0.186 HD
BRANCH   8  12
ATOM     12  O   UNL     1     -32.291  29.136   5.480  0.00  0.00    -0.472 OA
ATOM     13  C   UNL     1     -31.717  29.185   6.791  0.00  0.00    +0.252 C 
ENDBRANCH   8  12
ENDBRANCH   1   4
BRANCH   1  14
ATOM     14  C   UNL     1     -36.294  22.569   3.232  0.00  0.00    +0.126 C 
ATOM     15  C   UNL     1     -37.496  22.430   2.537  0.00  0.00    +0.021 C 
ATOM     16  C   UNL     1     -35.337  21.555   3.180  0.00  0.00    +0.021 C 
ATOM     17  C   UNL     1     -36.784  20.263   1.740  0.00  0.00    +0.042 C 
ATOM     18  C   UNL     1     -37.741  21.276   1.791  0.00  0.00    +0.015 C 
ATOM     19  C   UNL     1     -35.583  20.402   2.435  0.00  0.00    +0.015 C 
BRANCH  17  20
ATOM     20  N   UNL     1     -37.031  19.098   0.985  0.00  0.00    -0.357 N 
ATOM     21  H   UNL     1     -36.405  18.339   1.030  0.00  0.00    +0.142 HD
ATOM     22  H   UNL     1     -37.830  19.042   0.412  0.00  0.00    +0.142 HD
ENDBRANCH  17  20
ENDBRANCH   1  14
TORSDOF 4
ENDMDL
MODEL 7
REMARK VINA RESULT:      -5.6      4.133      7.134
REMARK  Name = 5326
REMARK  4 active torsions:
REMARK  status: ('A' for Active; 'I' for Inactive)
REMARK    1  A    between atoms: S_1  and  N_4
REMARK    2  A    between atoms: S_1  and  C_14
REMARK    3  A    between atoms: C_8  and  O_12
REMARK    4  A    between atoms: C_17  and  N_20
REMARK                            x       y       z     vdW  Elec       q    Type
REMARK                         _______ _______ _______ _____ _____    ______ ____
ROOT
ATOM      1  S   UNL     1     -35.373  26.193   3.606  0.00  0.00    +0.081 S 
ATOM      2  O   UNL     1     -35.828  27.080   4.669  0.00  0.00    -0.149 OA
ATOM      3  O   UNL     1     -36.086  26.198   2.334  0.00  0.00    -0.149 OA
ENDROOT
BRANCH   1   4
ATOM      4  N   UNL     1     -33.700  26.505   3.329  0.00  0.00    -0.158 N 
ATOM      5  N   UNL     1     -32.844  26.863   5.498  0.00  0.00    -0.199 NA
ATOM      6  N   UNL     1     -32.601  28.541   3.786  0.00  0.00    -0.176 NA
ATOM      7  C   UNL     1     -33.008  27.354   4.260  0.00  0.00    +0.106 C 
ATOM      8  C   UNL     1     -31.719  28.932   5.992  0.00  0.00    +0.161 C 
ATOM      9  C   UNL     1     -32.190  27.685   6.345  0.00  0.00    +0.203 C 
ATOM     10  C   UNL     1     -31.955  29.312   4.685  0.00  0.00    +0.145 C 
ATOM     11  H   UNL     1     -33.233  26.112   2.556  0.00  0.00    +0.186 HD
BRANCH   8  12
ATOM     12  O   UNL     1     -31.068  29.730   6.866  0.00  0.00    -0.472 OA
ATOM     13  C   UNL     1     -29.660  29.526   7.022  0.00  0.00    +0.252 C 
ENDBRANCH   8  12
ENDBRANCH   1   4
BRANCH   1  14
ATOM     14  C   UNL     1     -35.363  24.565   4.236  0.00  0.00    +0.126 C 
ATOM     15  C   UNL     1     -35.266  24.351   5.611  0.00  0.00    +0.021 C 
ATOM     16  C   UNL     1     -35.453  23.479   3.365  0.00  0.00    +0.021 C 
ATOM     17  C   UNL     1     -35.346  21.964   5.244  0.00  0.00    +0.042 C 
ATOM     18  C   UNL     1     -35.257  23.050   6.115  0.00  0.00    +0.015 C 
ATOM     19  C   UNL     1     -35.444  22.179   3.869  0.00  0.00    +0.015 C 
BRANCH  17  20
ATOM     20  N   UNL     1     -35.340  20.649   5.753  0.00  0.00    -0.357 N 
ATOM     21  H   UNL     1     -35.842  19.940   5.292  0.00  0.00    +0.142 HD
ATOM     22  H   UNL     1     -34.831  20.441   6.571  0.00  0.00    +0.142 HD
ENDBRANCH  17  20
ENDBRANCH   1  14
TORSDOF 4
ENDMDL
MODEL 8
REMARK VINA RESULT:      -5.5      5.559      6.941
REMARK  Name = 5326
REMARK  4 active torsions:
REMARK  status: ('A' for Active; 'I' for Inactive)
REMARK    1  A    between atoms: S_1  and  N_4
REMARK    2  A    between atoms: S_1  and  C_14
REMARK    3  A    between atoms: C_8  and  O_12
REMARK    4  A    between atoms: C_17  and  N_20
REMARK                            x       y       z     vdW  Elec       q    Type
REMARK                         _______ _______ _______ _____ _____    ______ ____
ROOT
ATOM      1  S   UNL     1     -32.517  27.914   4.371  0.00  0.00    +0.081 S 
ATOM      2  O   UNL     1     -32.060  26.917   3.411  0.00  0.00    -0.149 OA
ATOM      3  O   UNL     1     -33.327  29.028   3.895  0.00  0.00    -0.149 OA
ENDROOT
BRANCH   1   4
ATOM      4  N   UNL     1     -33.351  27.095   5.637  0.00  0.00    -0.158 N 
ATOM      5  N   UNL     1     -33.712  24.939   4.749  0.00  0.00    -0.199 NA
ATOM      6  N   UNL     1     -35.562  26.284   5.509  0.00  0.00    -0.176 NA
ATOM      7  C   UNL     1     -34.263  26.043   5.277  0.00  0.00    +0.106 C 
ATOM      8  C   UNL     1     -35.959  24.088   4.606  0.00  0.00    +0.161 C 
ATOM      9  C   UNL     1     -34.597  23.974   4.423  0.00  0.00    +0.203 C 
ATOM     10  C   UNL     1     -36.389  25.278   5.159  0.00  0.00    +0.145 C 
ATOM     11  H   UNL     1     -33.206  27.340   6.580  0.00  0.00    +0.186 HD
BRANCH   8  12
ATOM     12  O   UNL     1     -36.816  23.101   4.268  0.00  0.00    -0.472 OA
ATOM     13  C   UNL     1     -37.162  22.973   2.885  0.00  0.00    +0.252 C 
ENDBRANCH   8  12
ENDBRANCH   1   4
BRANCH   1  14
ATOM     14  C   UNL     1     -31.110  28.553   5.185  0.00  0.00    +0.126 C 
ATOM     15  C   UNL     1     -29.862  28.499   4.565  0.00  0.00    +0.021 C 
ATOM     16  C   UNL     1     -31.236  29.116   6.455  0.00  0.00    +0.021 C 
ATOM     17  C   UNL     1     -28.863  29.571   6.486  0.00  0.00    +0.042 C 
ATOM     18  C   UNL     1     -28.738  29.008   5.216  0.00  0.00    +0.015 C 
ATOM     19  C   UNL     1     -30.112  29.625   7.105  0.00  0.00    +0.015 C 
BRANCH  17  20
ATOM     20  N   UNL     1     -27.727  30.088   7.144  0.00  0.00    -0.357 N 
ATOM     21  H   UNL     1     -27.227  29.526   7.778  0.00  0.00    +0.142 HD
ATOM     22  H   UNL     1     -27.435  31.012   6.967  0.00  0.00    +0.142 HD
ENDBRANCH  17  20
ENDBRANCH   1  14
TORSDOF 4
ENDMDL
MODEL 9
REMARK VINA RESULT:      -5.4      5.004      6.798
REMARK  Name = 5326
REMARK  4 active torsions:
REMARK  status: ('A' for Active; 'I' for Inactive)
REMARK    1  A    between atoms: S_1  and  N_4
REMARK    2  A    between atoms: S_1  and  C_14
REMARK    3  A    between atoms: C_8  and  O_12
REMARK    4  A    between atoms: C_17  and  N_20
REMARK                            x       y       z     vdW  Elec       q    Type
REMARK                         _______ _______ _______ _____ _____    ______ ____
ROOT
ATOM      1  S   UNL     1     -35.793  19.658   0.246  0.00  0.00    +0.081 S 
ATOM      2  O   UNL     1     -36.792  19.033  -0.612  0.00  0.00    -0.149 OA
ATOM      3  O   UNL     1     -35.349  21.012  -0.064  0.00  0.00    -0.149 OA
ENDROOT
BRANCH   1   4
ATOM      4  N   UNL     1     -36.371  19.599   1.869  0.00  0.00    -0.158 N 
ATOM      5  N   UNL     1     -37.271  21.753   2.209  0.00  0.00    -0.199 NA
ATOM      6  N   UNL     1     -35.545  20.896   3.657  0.00  0.00    -0.176 NA
ATOM      7  C   UNL     1     -36.397  20.823   2.623  0.00  0.00    +0.106 C 
ATOM      8  C   UNL     1     -36.446  23.099   4.026  0.00  0.00    +0.161 C 
ATOM      9  C   UNL     1     -37.269  22.887   2.940  0.00  0.00    +0.203 C 
ATOM     10  C   UNL     1     -35.596  22.057   4.342  0.00  0.00    +0.145 C 
ATOM     11  H   UNL     1     -36.675  18.751   2.267  0.00  0.00    +0.186 HD
BRANCH   8  12
ATOM     12  O   UNL     1     -36.470  24.248   4.735  0.00  0.00    -0.472 OA
ATOM     13  C   UNL     1     -36.883  25.436   4.051  0.00  0.00    +0.252 C 
ENDBRANCH   8  12
ENDBRANCH   1   4
BRANCH   1  14
ATOM     14  C   UNL     1     -34.399  18.609   0.293  0.00  0.00    +0.126 C 
ATOM     15  C   UNL     1     -34.370  17.453  -0.487  0.00  0.00    +0.021 C 
ATOM     16  C   UNL     1     -33.314  18.926   1.112  0.00  0.00    +0.021 C 
ATOM     17  C   UNL     1     -32.172  16.931   0.370  0.00  0.00    +0.042 C 
ATOM     18  C   UNL     1     -33.256  16.613  -0.448  0.00  0.00    +0.015 C 
ATOM     19  C   UNL     1     -32.202  18.087   1.150  0.00  0.00    +0.015 C 
BRANCH  17  20
ATOM     20  N   UNL     1     -31.045  16.084   0.408  0.00  0.00    -0.357 N 
ATOM     21  H   UNL     1     -30.218  16.343  -0.060  0.00  0.00    +0.142 HD
ATOM     22  H   UNL     1     -31.085  15.233   0.903  0.00  0.00    +0.142 HD
ENDBRANCH  17  20
ENDBRANCH   1  14
TORSDOF 4
ENDMDL
