MODEL 1
REMARK VINA RESULT:      -5.2      0.000      0.000
REMARK  Name = 195135
REMARK  13 active torsions:
REMARK  status: ('A' for Active; 'I' for Inactive)
REMARK    1  A    between atoms: C_1  and  O_2
REMARK    2  A    between atoms: C_1  and  C_9
REMARK    3  A    between atoms: C_1  and  C_17
REMARK    4  A    between atoms: O_2  and  C_3
REMARK    5  A    between atoms: C_3  and  C_6
REMARK    6  A    between atoms: C_6  and  O_7
REMARK    7  A    between atoms: C_9  and  O_10
REMARK    8  A    between atoms: C_9  and  C_12
REMARK    9  A    between atoms: C_12  and  O_13
REMARK   10  A    between atoms: C_12  and  C_16
REMARK   11  A    between atoms: C_17  and  O_18
REMARK   12  A    between atoms: C_17  and  C_20
REMARK   13  A    between atoms: C_20  and  O_21
REMARK                            x       y       z     vdW  Elec       q    Type
REMARK                         _______ _______ _______ _____ _____    ______ ____
ROOT
ATOM      1  C   UNL     1     -36.287  24.700   4.207  0.00  0.00    +0.174 C 
ENDROOT
BRANCH   1   2
ATOM      2  O   UNL     1     -36.596  23.414   4.754  0.00  0.00    -0.342 OA
BRANCH   2   3
ATOM      3  C   UNL     1     -35.502  22.523   4.615  0.00  0.00    +0.213 C 
ATOM      4  C   UNL     1     -35.234  21.896   5.972  0.00  0.00    +0.044 C 
BRANCH   3   6
ATOM      5  O   UNL     1     -35.178  20.499   3.308  0.00  0.00    -0.248 OA
ATOM      6  C   UNL     1     -35.867  21.473   3.588  0.00  0.00    +0.341 C 
BRANCH   6   7
ATOM      7  O   UNL     1     -37.072  21.715   3.009  0.00  0.00    -0.479 OA
ATOM      8  H   UNL     1     -37.811  21.935   3.542  0.00  0.00    +0.295 HD
ENDBRANCH   6   7
ENDBRANCH   3   6
ENDBRANCH   2   3
ENDBRANCH   1   2
BRANCH   1   9
ATOM      9  C   UNL     1     -35.633  25.579   5.287  0.00  0.00    +0.174 C 
BRANCH   9  10
ATOM     10  O   UNL     1     -36.549  26.638   5.586  0.00  0.00    -0.379 OA
ATOM     11  H   UNL     1     -37.353  26.530   5.055  0.00  0.00    +0.211 HD
ENDBRANCH   9  10
BRANCH   9  12
ATOM     12  C   UNL     1     -34.252  26.166   4.965  0.00  0.00    +0.205 C 
BRANCH  12  13
ATOM     13  O   UNL     1     -33.360  25.082   4.727  0.00  0.00    -0.375 OA
ATOM     14  H   UNL     1     -33.860  24.317   4.403  0.00  0.00    +0.211 HD
ENDBRANCH  12  13
BRANCH  12  16
ATOM     15  O   UNL     1     -34.898  28.078   3.617  0.00  0.00    -0.286 OA
ATOM     16  C   UNL     1     -34.234  27.054   3.738  0.00  0.00    +0.239 C 
ENDBRANCH  12  16
ENDBRANCH   9  12
ENDBRANCH   1   9
BRANCH   1  17
ATOM     17  C   UNL     1     -37.579  25.257   3.591  0.00  0.00    +0.169 C 
BRANCH  17  18
ATOM     18  O   UNL     1     -38.528  24.184   3.512  0.00  0.00    -0.379 OA
ATOM     19  H   UNL     1     -38.380  23.566   4.245  0.00  0.00    +0.211 HD
ENDBRANCH  17  18
BRANCH  17  20
ATOM     20  C   UNL     1     -37.408  25.806   2.179  0.00  0.00    +0.169 C 
BRANCH  20  21
ATOM     21  O   UNL     1     -37.420  27.231   2.235  0.00  0.00    -0.379 OA
ATOM     22  H   UNL     1     -36.522  27.568   2.087  0.00  0.00    +0.211 HD
ENDBRANCH  20  21
ENDBRANCH  17  20
ENDBRANCH   1  17
TORSDOF 13
ENDMDL
MODEL 2
REMARK VINA RESULT:      -5.1      2.577      4.833
REMARK  Name = 195135
REMARK  13 active torsions:
REMARK  status: ('A' for Active; 'I' for Inactive)
REMARK    1  A    between atoms: C_1  and  O_2
REMARK    2  A    between atoms: C_1  and  C_9
REMARK    3  A    between atoms: C_1  and  C_17
REMARK    4  A    between atoms: O_2  and  C_3
REMARK    5  A    between atoms: C_3  and  C_6
REMARK    6  A    between atoms: C_6  and  O_7
REMARK    7  A    between atoms: C_9  and  O_10
REMARK    8  A    between atoms: C_9  and  C_12
REMARK    9  A    between atoms: C_12  and  O_13
REMARK   10  A    between atoms: C_12  and  C_16
REMARK   11  A    between atoms: C_17  and  O_18
REMARK   12  A    between atoms: C_17  and  C_20
REMARK   13  A    between atoms: C_20  and  O_21
REMARK                            x       y       z     vdW  Elec       q    Type
REMARK                         _______ _______ _______ _____ _____    ______ ____
ROOT
ATOM      1  C   UNL     1     -37.218  22.463   3.053  0.00  0.00    +0.174 C 
ENDROOT
BRANCH   1   2
ATOM      2  O   UNL     1     -36.714  23.249   4.138  0.00  0.00    -0.342 OA
BRANCH   2   3
ATOM      3  C   UNL     1     -35.407  22.837   4.504  0.00  0.00    +0.213 C 
ATOM      4  C   UNL     1     -34.620  24.075   4.899  0.00  0.00    +0.044 C 
BRANCH   3   6
ATOM      5  O   UNL     1     -35.966  22.141   6.764  0.00  0.00    -0.248 OA
ATOM      6  C   UNL     1     -35.517  21.865   5.658  0.00  0.00    +0.341 C 
BRANCH   6   7
ATOM      7  O   UNL     1     -35.077  20.623   5.329  0.00  0.00    -0.479 OA
ATOM      8  H   UNL     1     -35.193  19.911   5.927  0.00  0.00    +0.295 HD
ENDBRANCH   6   7
ENDBRANCH   3   6
ENDBRANCH   2   3
ENDBRANCH   1   2
BRANCH   1   9
ATOM      9  C   UNL     1     -36.060  22.065   2.121  0.00  0.00    +0.174 C 
BRANCH   9  10
ATOM     10  O   UNL     1     -36.222  22.800   0.903  0.00  0.00    -0.379 OA
ATOM     11  H   UNL     1     -36.418  22.187   0.178  0.00  0.00    +0.211 HD
ENDBRANCH   9  10
BRANCH   9  12
ATOM     12  C   UNL     1     -35.903  20.571   1.806  0.00  0.00    +0.205 C 
BRANCH  12  13
ATOM     13  O   UNL     1     -36.656  19.839   2.768  0.00  0.00    -0.375 OA
ATOM     14  H   UNL     1     -36.659  20.320   3.610  0.00  0.00    +0.211 HD
ENDBRANCH  12  13
BRANCH  12  16
ATOM     15  O   UNL     1     -37.570  20.289   0.064  0.00  0.00    -0.286 OA
ATOM     16  C   UNL     1     -36.405  20.177   0.433  0.00  0.00    +0.239 C 
ENDBRANCH  12  16
ENDBRANCH   9  12
ENDBRANCH   1   9
BRANCH   1  17
ATOM     17  C   UNL     1     -38.352  23.264   2.397  0.00  0.00    +0.169 C 
BRANCH  17  18
ATOM     18  O   UNL     1     -38.805  24.243   3.342  0.00  0.00    -0.379 OA
ATOM     19  H   UNL     1     -38.134  24.937   3.436  0.00  0.00    +0.211 HD
ENDBRANCH  17  18
BRANCH  17  20
ATOM     20  C   UNL     1     -39.564  22.422   2.011  0.00  0.00    +0.169 C 
BRANCH  20  21
ATOM     21  O   UNL     1     -39.306  21.062   2.353  0.00  0.00    -0.379 OA
ATOM     22  H   UNL     1     -39.880  20.482   1.827  0.00  0.00    +0.211 HD
ENDBRANCH  20  21
ENDBRANCH  17  20
ENDBRANCH   1  17
TORSDOF 13
ENDMDL
MODEL 3
REMARK VINA RESULT:      -5.0      2.146      4.374
REMARK  Name = 195135
REMARK  13 active torsions:
REMARK  status: ('A' for Active; 'I' for Inactive)
REMARK    1  A    between atoms: C_1  and  O_2
REMARK    2  A    between atoms: C_1  and  C_9
REMARK    3  A    between atoms: C_1  and  C_17
REMARK    4  A    between atoms: O_2  and  C_3
REMARK    5  A    between atoms: C_3  and  C_6
REMARK    6  A    between atoms: C_6  and  O_7
REMARK    7  A    between atoms: C_9  and  O_10
REMARK    8  A    between atoms: C_9  and  C_12
REMARK    9  A    between atoms: C_12  and  O_13
REMARK   10  A    between atoms: C_12  and  C_16
REMARK   11  A    between atoms: C_17  and  O_18
REMARK   12  A    between atoms: C_17  and  C_20
REMARK   13  A    between atoms: C_20  and  O_21
REMARK                            x       y       z     vdW  Elec       q    Type
REMARK                         _______ _______ _______ _____ _____    ______ ____
ROOT
ATOM      1  C   UNL     1     -36.761  23.154   2.576  0.00  0.00    +0.174 C 
ENDROOT
BRANCH   1   2
ATOM      2  O   UNL     1     -36.906  22.889   3.975  0.00  0.00    -0.342 OA
BRANCH   2   3
ATOM      3  C   UNL     1     -35.657  22.959   4.641  0.00  0.00    +0.213 C 
ATOM      4  C   UNL     1     -35.540  24.335   5.274  0.00  0.00    +0.044 C 
BRANCH   3   6
ATOM      5  O   UNL     1     -36.014  21.984   6.838  0.00  0.00    -0.248 OA
ATOM      6  C   UNL     1     -35.610  21.867   5.688  0.00  0.00    +0.341 C 
BRANCH   6   7
ATOM      7  O   UNL     1     -35.080  20.713   5.205  0.00  0.00    -0.479 OA
ATOM      8  H   UNL     1     -35.246  20.457   4.320  0.00  0.00    +0.295 HD
ENDBRANCH   6   7
ENDBRANCH   3   6
ENDBRANCH   2   3
ENDBRANCH   1   2
BRANCH   1   9
ATOM      9  C   UNL     1     -37.506  24.451   2.215  0.00  0.00    +0.174 C 
BRANCH   9  10
ATOM     10  O   UNL     1     -36.527  25.493   2.127  0.00  0.00    -0.379 OA
ATOM     11  H   UNL     1     -35.938  25.322   1.376  0.00  0.00    +0.211 HD
ENDBRANCH   9  10
BRANCH   9  12
ATOM     12  C   UNL     1     -38.641  24.886   3.152  0.00  0.00    +0.205 C 
BRANCH  12  13
ATOM     13  O   UNL     1     -38.540  26.294   3.340  0.00  0.00    -0.375 OA
ATOM     14  H   UNL     1     -37.682  26.506   3.739  0.00  0.00    +0.211 HD
ENDBRANCH  12  13
BRANCH  12  16
ATOM     15  O   UNL     1     -40.408  23.480   2.261  0.00  0.00    -0.286 OA
ATOM     16  C   UNL     1     -40.026  24.591   2.616  0.00  0.00    +0.239 C 
ENDBRANCH  12  16
ENDBRANCH   9  12
ENDBRANCH   1   9
BRANCH   1  17
ATOM     17  C   UNL     1     -37.217  21.896   1.822  0.00  0.00    +0.169 C 
BRANCH  17  18
ATOM     18  O   UNL     1     -38.408  21.409   2.457  0.00  0.00    -0.379 OA
ATOM     19  H   UNL     1     -38.575  21.919   3.266  0.00  0.00    +0.211 HD
ENDBRANCH  17  18
BRANCH  17  20
ATOM     20  C   UNL     1     -36.203  20.757   1.844  0.00  0.00    +0.169 C 
BRANCH  20  21
ATOM     21  O   UNL     1     -36.576  19.828   2.860  0.00  0.00    -0.379 OA
ATOM     22  H   UNL     1     -37.035  19.075   2.455  0.00  0.00    +0.211 HD
ENDBRANCH  20  21
ENDBRANCH  17  20
ENDBRANCH   1  17
TORSDOF 13
ENDMDL
MODEL 4
REMARK VINA RESULT:      -4.8      1.372      3.875
REMARK  Name = 195135
REMARK  13 active torsions:
REMARK  status: ('A' for Active; 'I' for Inactive)
REMARK    1  A    between atoms: C_1  and  O_2
REMARK    2  A    between atoms: C_1  and  C_9
REMARK    3  A    between atoms: C_1  and  C_17
REMARK    4  A    between atoms: O_2  and  C_3
REMARK    5  A    between atoms: C_3  and  C_6
REMARK    6  A    between atoms: C_6  and  O_7
REMARK    7  A    between atoms: C_9  and  O_10
REMARK    8  A    between atoms: C_9  and  C_12
REMARK    9  A    between atoms: C_12  and  O_13
REMARK   10  A    between atoms: C_12  and  C_16
REMARK   11  A    between atoms: C_17  and  O_18
REMARK   12  A    between atoms: C_17  and  C_20
REMARK   13  A    between atoms: C_20  and  O_21
REMARK                            x       y       z     vdW  Elec       q    Type
REMARK                         _______ _______ _______ _____ _____    ______ ____
ROOT
ATOM      1  C   UNL     1     -36.416  24.493   4.565  0.00  0.00    +0.174 C 
ENDROOT
BRANCH   1   2
ATOM      2  O   UNL     1     -36.680  24.905   3.220  0.00  0.00    -0.342 OA
BRANCH   2   3
ATOM      3  C   UNL     1     -37.914  25.597   3.131  0.00  0.00    +0.213 C 
ATOM      4  C   UNL     1     -37.924  26.369   1.822  0.00  0.00    +0.044 C 
BRANCH   3   6
ATOM      5  O   UNL     1     -39.077  23.553   2.519  0.00  0.00    -0.248 OA
ATOM      6  C   UNL     1     -39.038  24.584   3.179  0.00  0.00    +0.341 C 
BRANCH   6   7
ATOM      7  O   UNL     1     -40.008  24.933   4.063  0.00  0.00    -0.479 OA
ATOM      8  H   UNL     1     -40.218  25.836   4.195  0.00  0.00    +0.295 HD
ENDBRANCH   6   7
ENDBRANCH   3   6
ENDBRANCH   2   3
ENDBRANCH   1   2
BRANCH   1   9
ATOM      9  C   UNL     1     -35.578  25.569   5.280  0.00  0.00    +0.174 C 
BRANCH   9  10
ATOM     10  O   UNL     1     -36.493  26.480   5.898  0.00  0.00    -0.379 OA
ATOM     11  H   UNL     1     -37.141  26.783   5.243  0.00  0.00    +0.211 HD
ENDBRANCH   9  10
BRANCH   9  12
ATOM     12  C   UNL     1     -34.570  26.348   4.424  0.00  0.00    +0.205 C 
BRANCH  12  13
ATOM     13  O   UNL     1     -35.229  27.504   3.915  0.00  0.00    -0.375 OA
ATOM     14  H   UNL     1     -35.261  28.187   4.604  0.00  0.00    +0.211 HD
ENDBRANCH  12  13
BRANCH  12  16
ATOM     15  O   UNL     1     -33.314  26.984   6.401  0.00  0.00    -0.286 OA
ATOM     16  C   UNL     1     -33.348  26.814   5.186  0.00  0.00    +0.239 C 
ENDBRANCH  12  16
ENDBRANCH   9  12
ENDBRANCH   1   9
BRANCH   1  17
ATOM     17  C   UNL     1     -35.784  23.095   4.500  0.00  0.00    +0.169 C 
BRANCH  17  18
ATOM     18  O   UNL     1     -36.750  22.201   3.931  0.00  0.00    -0.379 OA
ATOM     19  H   UNL     1     -36.906  21.462   4.539  0.00  0.00    +0.211 HD
ENDBRANCH  17  18
BRANCH  17  20
ATOM     20  C   UNL     1     -35.395  22.525   5.861  0.00  0.00    +0.169 C 
BRANCH  20  21
ATOM     21  O   UNL     1     -35.435  21.101   5.791  0.00  0.00    -0.379 OA
ATOM     22  H   UNL     1     -36.299  20.819   5.452  0.00  0.00    +0.211 HD
ENDBRANCH  20  21
ENDBRANCH  17  20
ENDBRANCH   1  17
TORSDOF 13
ENDMDL
MODEL 5
REMARK VINA RESULT:      -4.7      1.520      2.685
REMARK  Name = 195135
REMARK  13 active torsions:
REMARK  status: ('A' for Active; 'I' for Inactive)
REMARK    1  A    between atoms: C_1  and  O_2
REMARK    2  A    between atoms: C_1  and  C_9
REMARK    3  A    between atoms: C_1  and  C_17
REMARK    4  A    between atoms: O_2  and  C_3
REMARK    5  A    between atoms: C_3  and  C_6
REMARK    6  A    between atoms: C_6  and  O_7
REMARK    7  A    between atoms: C_9  and  O_10
REMARK    8  A    between atoms: C_9  and  C_12
REMARK    9  A    between atoms: C_12  and  O_13
REMARK   10  A    between atoms: C_12  and  C_16
REMARK   11  A    between atoms: C_17  and  O_18
REMARK   12  A    between atoms: C_17  and  C_20
REMARK   13  A    between atoms: C_20  and  O_21
REMARK                            x       y       z     vdW  Elec       q    Type
REMARK                         _______ _______ _______ _____ _____    ______ ____
ROOT
ATOM      1  C   UNL     1     -37.045  24.056   3.020  0.00  0.00    +0.174 C 
ENDROOT
BRANCH   1   2
ATOM      2  O   UNL     1     -36.948  23.177   4.145  0.00  0.00    -0.342 OA
BRANCH   2   3
ATOM      3  C   UNL     1     -35.598  22.838   4.414  0.00  0.00    +0.213 C 
ATOM      4  C   UNL     1     -35.258  23.342   5.806  0.00  0.00    +0.044 C 
BRANCH   3   6
ATOM      5  O   UNL     1     -35.503  20.688   3.285  0.00  0.00    -0.248 OA
ATOM      6  C   UNL     1     -35.454  21.334   4.325  0.00  0.00    +0.341 C 
BRANCH   6   7
ATOM      7  O   UNL     1     -35.242  20.764   5.539  0.00  0.00    -0.479 OA
ATOM      8  H   UNL     1     -35.173  19.833   5.613  0.00  0.00    +0.295 HD
ENDBRANCH   6   7
ENDBRANCH   3   6
ENDBRANCH   2   3
ENDBRANCH   1   2
BRANCH   1   9
ATOM      9  C   UNL     1     -37.010  25.518   3.502  0.00  0.00    +0.174 C 
BRANCH   9  10
ATOM     10  O   UNL     1     -38.358  26.003   3.487  0.00  0.00    -0.379 OA
ATOM     11  H   UNL     1     -38.391  26.878   3.903  0.00  0.00    +0.211 HD
ENDBRANCH   9  10
BRANCH   9  12
ATOM     12  C   UNL     1     -36.105  26.484   2.726  0.00  0.00    +0.205 C 
BRANCH  12  13
ATOM     13  O   UNL     1     -36.910  27.564   2.264  0.00  0.00    -0.375 OA
ATOM     14  H   UNL     1     -37.827  27.264   2.165  0.00  0.00    +0.211 HD
ENDBRANCH  12  13
BRANCH  12  16
ATOM     15  O   UNL     1     -34.912  26.996   4.777  0.00  0.00    -0.286 OA
ATOM     16  C   UNL     1     -34.980  27.070   3.554  0.00  0.00    +0.239 C 
ENDBRANCH  12  16
ENDBRANCH   9  12
ENDBRANCH   1   9
BRANCH   1  17
ATOM     17  C   UNL     1     -38.296  23.649   2.228  0.00  0.00    +0.169 C 
BRANCH  17  18
ATOM     18  O   UNL     1     -39.383  23.521   3.156  0.00  0.00    -0.379 OA
ATOM     19  H   UNL     1     -40.149  23.131   2.706  0.00  0.00    +0.211 HD
ENDBRANCH  17  18
BRANCH  17  20
ATOM     20  C   UNL     1     -38.166  22.312   1.506  0.00  0.00    +0.169 C 
BRANCH  20  21
ATOM     21  O   UNL     1     -38.380  21.260   2.444  0.00  0.00    -0.379 OA
ATOM     22  H   UNL     1     -37.743  20.546   2.279  0.00  0.00    +0.211 HD
ENDBRANCH  20  21
ENDBRANCH  17  20
ENDBRANCH   1  17
TORSDOF 13
ENDMDL
MODEL 6
REMARK VINA RESULT:      -4.6      1.853      3.925
REMARK  Name = 195135
REMARK  13 active torsions:
REMARK  status: ('A' for Active; 'I' for Inactive)
REMARK    1  A    between atoms: C_1  and  O_2
REMARK    2  A    between atoms: C_1  and  C_9
REMARK    3  A    between atoms: C_1  and  C_17
REMARK    4  A    between atoms: O_2  and  C_3
REMARK    5  A    between atoms: C_3  and  C_6
REMARK    6  A    between atoms: C_6  and  O_7
REMARK    7  A    between atoms: C_9  and  O_10
REMARK    8  A    between atoms: C_9  and  C_12
REMARK    9  A    between atoms: C_12  and  O_13
REMARK   10  A    between atoms: C_12  and  C_16
REMARK   11  A    between atoms: C_17  and  O_18
REMARK   12  A    between atoms: C_17  and  C_20
REMARK   13  A    between atoms: C_20  and  O_21
REMARK                            x       y       z     vdW  Elec       q    Type
REMARK                         _______ _______ _______ _____ _____    ______ ____
ROOT
ATOM      1  C   UNL     1     -36.411  23.375   4.166  0.00  0.00    +0.174 C 
ENDROOT
BRANCH   1   2
ATOM      2  O   UNL     1     -35.544  22.752   3.213  0.00  0.00    -0.342 OA
BRANCH   2   3
ATOM      3  C   UNL     1     -36.278  21.947   2.305  0.00  0.00    +0.213 C 
ATOM      4  C   UNL     1     -35.926  22.391   0.896  0.00  0.00    +0.044 C 
BRANCH   3   6
ATOM      5  O   UNL     1     -34.761  20.098   2.738  0.00  0.00    -0.248 OA
ATOM      6  C   UNL     1     -35.900  20.499   2.535  0.00  0.00    +0.341 C 
BRANCH   6   7
ATOM      7  O   UNL     1     -36.980  19.676   2.512  0.00  0.00    -0.479 OA
ATOM      8  H   UNL     1     -36.861  18.747   2.553  0.00  0.00    +0.295 HD
ENDBRANCH   6   7
ENDBRANCH   3   6
ENDBRANCH   2   3
ENDBRANCH   1   2
BRANCH   1   9
ATOM      9  C   UNL     1     -36.852  24.753   3.641  0.00  0.00    +0.174 C 
BRANCH   9  10
ATOM     10  O   UNL     1     -36.774  25.671   4.737  0.00  0.00    -0.379 OA
ATOM     11  H   UNL     1     -37.323  26.448   4.548  0.00  0.00    +0.211 HD
ENDBRANCH   9  10
BRANCH   9  12
ATOM     12  C   UNL     1     -38.241  24.838   2.993  0.00  0.00    +0.205 C 
BRANCH  12  13
ATOM     13  O   UNL     1     -39.214  24.705   4.024  0.00  0.00    -0.375 OA
ATOM     14  H   UNL     1     -39.607  25.572   4.212  0.00  0.00    +0.211 HD
ENDBRANCH  12  13
BRANCH  12  16
ATOM     15  O   UNL     1     -37.650  26.997   2.055  0.00  0.00    -0.286 OA
ATOM     16  C   UNL     1     -38.505  26.146   2.277  0.00  0.00    +0.239 C 
ENDBRANCH  12  16
ENDBRANCH   9  12
ENDBRANCH   1   9
BRANCH   1  17
ATOM     17  C   UNL     1     -35.675  23.385   5.515  0.00  0.00    +0.169 C 
BRANCH  17  18
ATOM     18  O   UNL     1     -34.294  23.675   5.261  0.00  0.00    -0.379 OA
ATOM     19  H   UNL     1     -34.146  23.740   4.305  0.00  0.00    +0.211 HD
ENDBRANCH  17  18
BRANCH  17  20
ATOM     20  C   UNL     1     -35.723  22.053   6.257  0.00  0.00    +0.169 C 
BRANCH  20  21
ATOM     21  O   UNL     1     -34.836  21.138   5.616  0.00  0.00    -0.379 OA
ATOM     22  H   UNL     1     -35.191  20.238   5.692  0.00  0.00    +0.211 HD
ENDBRANCH  20  21
ENDBRANCH  17  20
ENDBRANCH   1  17
TORSDOF 13
ENDMDL
MODEL 7
REMARK VINA RESULT:      -4.6      1.448      2.140
REMARK  Name = 195135
REMARK  13 active torsions:
REMARK  status: ('A' for Active; 'I' for Inactive)
REMARK    1  A    between atoms: C_1  and  O_2
REMARK    2  A    between atoms: C_1  and  C_9
REMARK    3  A    between atoms: C_1  and  C_17
REMARK    4  A    between atoms: O_2  and  C_3
REMARK    5  A    between atoms: C_3  and  C_6
REMARK    6  A    between atoms: C_6  and  O_7
REMARK    7  A    between atoms: C_9  and  O_10
REMARK    8  A    between atoms: C_9  and  C_12
REMARK    9  A    between atoms: C_12  and  O_13
REMARK   10  A    between atoms: C_12  and  C_16
REMARK   11  A    between atoms: C_17  and  O_18
REMARK   12  A    between atoms: C_17  and  C_20
REMARK   13  A    between atoms: C_20  and  O_21
REMARK                            x       y       z     vdW  Elec       q    Type
REMARK                         _______ _______ _______ _____ _____    ______ ____
ROOT
ATOM      1  C   UNL     1     -36.930  25.003   3.484  0.00  0.00    +0.174 C 
ENDROOT
BRANCH   1   2
ATOM      2  O   UNL     1     -37.222  23.639   3.805  0.00  0.00    -0.342 OA
BRANCH   2   3
ATOM      3  C   UNL     1     -36.876  22.777   2.734  0.00  0.00    +0.213 C 
ATOM      4  C   UNL     1     -35.770  21.854   3.216  0.00  0.00    +0.044 C 
BRANCH   3   6
ATOM      5  O   UNL     1     -39.201  22.490   2.089  0.00  0.00    -0.248 OA
ATOM      6  C   UNL     1     -38.107  21.995   2.332  0.00  0.00    +0.341 C 
BRANCH   6   7
ATOM      7  O   UNL     1     -37.865  20.661   2.245  0.00  0.00    -0.479 OA
ATOM      8  H   UNL     1     -38.468  20.104   1.795  0.00  0.00    +0.295 HD
ENDBRANCH   6   7
ENDBRANCH   3   6
ENDBRANCH   2   3
ENDBRANCH   1   2
BRANCH   1   9
ATOM      9  C   UNL     1     -35.961  25.585   4.530  0.00  0.00    +0.174 C 
BRANCH   9  10
ATOM     10  O   UNL     1     -36.748  26.304   5.486  0.00  0.00    -0.379 OA
ATOM     11  H   UNL     1     -37.669  26.001   5.440  0.00  0.00    +0.211 HD
ENDBRANCH   9  10
BRANCH   9  12
ATOM     12  C   UNL     1     -34.833  26.484   4.008  0.00  0.00    +0.205 C 
BRANCH  12  13
ATOM     13  O   UNL     1     -35.376  27.781   3.778  0.00  0.00    -0.375 OA
ATOM     14  H   UNL     1     -35.015  28.141   2.954  0.00  0.00    +0.211 HD
ENDBRANCH  12  13
BRANCH  12  16
ATOM     15  O   UNL     1     -33.786  26.649   6.191  0.00  0.00    -0.286 OA
ATOM     16  C   UNL     1     -33.673  26.635   4.970  0.00  0.00    +0.239 C 
ENDBRANCH  12  16
ENDBRANCH   9  12
ENDBRANCH   1   9
BRANCH   1  17
ATOM     17  C   UNL     1     -38.272  25.737   3.343  0.00  0.00    +0.169 C 
BRANCH  17  18
ATOM     18  O   UNL     1     -39.287  24.918   3.939  0.00  0.00    -0.379 OA
ATOM     19  H   UNL     1     -40.136  25.385   3.915  0.00  0.00    +0.211 HD
ENDBRANCH  17  18
BRANCH  17  20
ATOM     20  C   UNL     1     -38.692  25.990   1.899  0.00  0.00    +0.169 C 
BRANCH  20  21
ATOM     21  O   UNL     1     -38.153  27.240   1.475  0.00  0.00    -0.379 OA
ATOM     22  H   UNL     1     -38.084  27.250   0.507  0.00  0.00    +0.211 HD
ENDBRANCH  20  21
ENDBRANCH  17  20
ENDBRANCH   1  17
TORSDOF 13
ENDMDL
MODEL 8
REMARK VINA RESULT:      -4.6      1.439      4.541
REMARK  Name = 195135
REMARK  13 active torsions:
REMARK  status: ('A' for Active; 'I' for Inactive)
REMARK    1  A    between atoms: C_1  and  O_2
REMARK    2  A    between atoms: C_1  and  C_9
REMARK    3  A    between atoms: C_1  and  C_17
REMARK    4  A    between atoms: O_2  and  C_3
REMARK    5  A    between atoms: C_3  and  C_6
REMARK    6  A    between atoms: C_6  and  O_7
REMARK    7  A    between atoms: C_9  and  O_10
REMARK    8  A    between atoms: C_9  and  C_12
REMARK    9  A    between atoms: C_12  and  O_13
REMARK   10  A    between atoms: C_12  and  C_16
REMARK   11  A    between atoms: C_17  and  O_18
REMARK   12  A    between atoms: C_17  and  C_20
REMARK   13  A    between atoms: C_20  and  O_21
REMARK                            x       y       z     vdW  Elec       q    Type
REMARK                         _______ _______ _______ _____ _____    ______ ____
ROOT
ATOM      1  C   UNL     1     -37.302  23.254   3.470  0.00  0.00    +0.174 C 
ENDROOT
BRANCH   1   2
ATOM      2  O   UNL     1     -36.096  23.956   3.786  0.00  0.00    -0.342 OA
BRANCH   2   3
ATOM      3  C   UNL     1     -36.008  24.222   5.176  0.00  0.00    +0.213 C 
ATOM      4  C   UNL     1     -35.051  23.212   5.786  0.00  0.00    +0.044 C 
BRANCH   3   6
ATOM      5  O   UNL     1     -34.327  25.949   5.495  0.00  0.00    -0.248 OA
ATOM      6  C   UNL     1     -35.505  25.638   5.362  0.00  0.00    +0.341 C 
BRANCH   6   7
ATOM      7  O   UNL     1     -36.512  26.548   5.346  0.00  0.00    -0.479 OA
ATOM      8  H   UNL     1     -37.219  26.474   5.956  0.00  0.00    +0.295 HD
ENDBRANCH   6   7
ENDBRANCH   3   6
ENDBRANCH   2   3
ENDBRANCH   1   2
BRANCH   1   9
ATOM      9  C   UNL     1     -37.016  22.190   2.396  0.00  0.00    +0.174 C 
BRANCH   9  10
ATOM     10  O   UNL     1     -38.078  21.231   2.453  0.00  0.00    -0.379 OA
ATOM     11  H   UNL     1     -37.964  20.667   3.233  0.00  0.00    +0.211 HD
ENDBRANCH   9  10
BRANCH   9  12
ATOM     12  C   UNL     1     -35.663  21.468   2.475  0.00  0.00    +0.205 C 
BRANCH  12  13
ATOM     13  O   UNL     1     -35.642  20.709   3.680  0.00  0.00    -0.375 OA
ATOM     14  H   UNL     1     -36.398  20.960   4.233  0.00  0.00    +0.211 HD
ENDBRANCH  12  13
BRANCH  12  16
ATOM     15  O   UNL     1     -36.073  19.509   1.102  0.00  0.00    -0.286 OA
ATOM     16  C   UNL     1     -35.408  20.515   1.326  0.00  0.00    +0.239 C 
ENDBRANCH  12  16
ENDBRANCH   9  12
ENDBRANCH   1   9
BRANCH   1  17
ATOM     17  C   UNL     1     -38.358  24.305   3.097  0.00  0.00    +0.169 C 
BRANCH  17  18
ATOM     18  O   UNL     1     -39.452  23.625   2.466  0.00  0.00    -0.379 OA
ATOM     19  H   UNL     1     -39.576  22.757   2.879  0.00  0.00    +0.211 HD
ENDBRANCH  17  18
BRANCH  17  20
ATOM     20  C   UNL     1     -37.863  25.362   2.114  0.00  0.00    +0.169 C 
BRANCH  20  21
ATOM     21  O   UNL     1     -37.767  26.612   2.793  0.00  0.00    -0.379 OA
ATOM     22  H   UNL     1     -38.658  26.963   2.949  0.00  0.00    +0.211 HD
ENDBRANCH  20  21
ENDBRANCH  17  20
ENDBRANCH   1  17
TORSDOF 13
ENDMDL
MODEL 9
REMARK VINA RESULT:      -4.6      2.649      5.091
REMARK  Name = 195135
REMARK  13 active torsions:
REMARK  status: ('A' for Active; 'I' for Inactive)
REMARK    1  A    between atoms: C_1  and  O_2
REMARK    2  A    between atoms: C_1  and  C_9
REMARK    3  A    between atoms: C_1  and  C_17
REMARK    4  A    between atoms: O_2  and  C_3
REMARK    5  A    between atoms: C_3  and  C_6
REMARK    6  A    between atoms: C_6  and  O_7
REMARK    7  A    between atoms: C_9  and  O_10
REMARK    8  A    between atoms: C_9  and  C_12
REMARK    9  A    between atoms: C_12  and  O_13
REMARK   10  A    between atoms: C_12  and  C_16
REMARK   11  A    between atoms: C_17  and  O_18
REMARK   12  A    between atoms: C_17  and  C_20
REMARK   13  A    between atoms: C_20  and  O_21
REMARK                            x       y       z     vdW  Elec       q    Type
REMARK                         _______ _______ _______ _____ _____    ______ ____
ROOT
ATOM      1  C   UNL     1     -36.492  22.125   2.025  0.00  0.00    +0.174 C 
ENDROOT
BRANCH   1   2
ATOM      2  O   UNL     1     -36.804  22.180   3.420  0.00  0.00    -0.342 OA
BRANCH   2   3
ATOM      3  C   UNL     1     -35.717  22.701   4.167  0.00  0.00    +0.213 C 
ATOM      4  C   UNL     1     -36.023  24.155   4.486  0.00  0.00    +0.044 C 
BRANCH   3   6
ATOM      5  O   UNL     1     -35.860  22.270   6.554  0.00  0.00    -0.248 OA
ATOM      6  C   UNL     1     -35.566  21.882   5.430  0.00  0.00    +0.341 C 
BRANCH   6   7
ATOM      7  O   UNL     1     -35.081  20.638   5.182  0.00  0.00    -0.479 OA
ATOM      8  H   UNL     1     -34.173  20.454   5.320  0.00  0.00    +0.295 HD
ENDBRANCH   6   7
ENDBRANCH   3   6
ENDBRANCH   2   3
ENDBRANCH   1   2
BRANCH   1   9
ATOM      9  C   UNL     1     -37.592  22.840   1.220  0.00  0.00    +0.174 C 
BRANCH   9  10
ATOM     10  O   UNL     1     -37.391  24.248   1.384  0.00  0.00    -0.379 OA
ATOM     11  H   UNL     1     -38.040  24.732   0.849  0.00  0.00    +0.211 HD
ENDBRANCH   9  10
BRANCH   9  12
ATOM     12  C   UNL     1     -39.045  22.482   1.557  0.00  0.00    +0.205 C 
BRANCH  12  13
ATOM     13  O   UNL     1     -39.030  21.325   2.388  0.00  0.00    -0.375 OA
ATOM     14  H   UNL     1     -39.453  21.531   3.236  0.00  0.00    +0.211 HD
ENDBRANCH  12  13
BRANCH  12  16
ATOM     15  O   UNL     1     -39.410  24.074   3.353  0.00  0.00    -0.286 OA
ATOM     16  C   UNL     1     -39.789  23.572   2.300  0.00  0.00    +0.239 C 
ENDBRANCH  12  16
ENDBRANCH   9  12
ENDBRANCH   1   9
BRANCH   1  17
ATOM     17  C   UNL     1     -36.260  20.649   1.666  0.00  0.00    +0.169 C 
BRANCH  17  18
ATOM     18  O   UNL     1     -36.720  19.851   2.766  0.00  0.00    -0.379 OA
ATOM     19  H   UNL     1     -36.790  20.404   3.560  0.00  0.00    +0.211 HD
ENDBRANCH  17  18
BRANCH  17  20
ATOM     20  C   UNL     1     -34.797  20.289   1.433  0.00  0.00    +0.169 C 
BRANCH  20  21
ATOM     21  O   UNL     1     -34.342  19.487   2.521  0.00  0.00    -0.379 OA
ATOM     22  H   UNL     1     -34.609  19.899   3.358  0.00  0.00    +0.211 HD
ENDBRANCH  20  21
ENDBRANCH  17  20
ENDBRANCH   1  17
TORSDOF 13
ENDMDL
