MODEL 1
REMARK VINA RESULT:      -6.8      0.000      0.000
REMARK  Name = 21118291
REMARK  7 active torsions:
REMARK  status: ('A' for Active; 'I' for Inactive)
REMARK    1  A    between atoms: C_6  and  C_26
REMARK    2  A    between atoms: C_8  and  O_22
REMARK    3  A    between atoms: C_10  and  O_18
REMARK    4  A    between atoms: C_13  and  O_20
REMARK    5  A    between atoms: O_22  and  C_24
REMARK    6  A    between atoms: C_26  and  O_27
REMARK    7  A    between atoms: O_27  and  C_29
REMARK                            x       y       z     vdW  Elec       q    Type
REMARK                         _______ _______ _______ _____ _____    ______ ____
ROOT
ATOM      1  O   UNL     1     -38.230  26.000   0.103  0.00  0.00    -0.351 OA
ATOM      2  O   UNL     1     -37.648  26.213   3.694  0.00  0.00    -0.349 OA
ATOM      3  O   UNL     1     -32.713  25.680   3.621  0.00  0.00    -0.289 OA
ATOM      4  C   UNL     1     -37.096  24.341   1.604  0.00  0.00    +0.075 C 
ATOM      5  C   UNL     1     -37.615  25.750   1.377  0.00  0.00    +0.151 C 
ATOM      6  C   UNL     1     -36.056  24.462   2.829  0.00  0.00    +0.107 C 
ATOM      7  C   UNL     1     -38.487  26.038   2.548  0.00  0.00    +0.173 C 
ATOM      8  C   UNL     1     -38.431  23.633   2.102  0.00  0.00    +0.200 C 
ATOM      9  C   UNL     1     -37.077  26.792   0.426  0.00  0.00    +0.172 C 
ATOM     10  C   UNL     1     -39.354  24.773   2.604  0.00  0.00    +0.180 C 
ATOM     11  C   UNL     1     -36.808  25.101   4.052  0.00  0.00    +0.143 C 
ATOM     12  C   UNL     1     -36.528  23.674   0.345  0.00  0.00    +0.007 C 
ATOM     13  C   UNL     1     -34.832  25.374   2.506  0.00  0.00    +0.178 C 
ATOM     14  C   UNL     1     -35.908  25.605   5.146  0.00  0.00    +0.002 C 
ATOM     15  C   UNL     1     -33.938  25.615   3.719  0.00  0.00    +0.196 C 
ATOM     16  C   UNL     1     -34.592  25.829   5.040  0.00  0.00    +0.013 C 
ATOM     17  C   UNL     1     -33.738  26.287   6.179  0.00  0.00    +0.034 C 
ENDROOT
BRANCH  10  18
ATOM     18  O   UNL     1     -39.861  24.531   3.902  0.00  0.00    -0.379 OA
ATOM     19  H   UNL     1     -39.924  23.575   4.052  0.00  0.00    +0.211 HD
ENDBRANCH  10  18
BRANCH  13  20
ATOM     20  O   UNL     1     -34.006  24.813   1.498  0.00  0.00    -0.377 OA
ATOM     21  H   UNL     1     -33.784  25.496   0.846  0.00  0.00    +0.211 HD
ENDBRANCH  13  20
BRANCH   8  22
ATOM     22  O   UNL     1     -39.104  22.949   1.045  0.00  0.00    -0.450 OA
BRANCH  22  24
ATOM     23  O   UNL     1     -40.146  21.323   2.314  0.00  0.00    -0.250 OA
ATOM     24  C   UNL     1     -39.508  21.677   1.331  0.00  0.00    +0.318 C 
ATOM     25  C   UNL     1     -39.052  20.747   0.248  0.00  0.00    +0.121 C 
ENDBRANCH  22  24
ENDBRANCH   8  22
BRANCH   6  26
ATOM     26  C   UNL     1     -35.524  23.054   3.223  0.00  0.00    +0.214 C 
BRANCH  26  27
ATOM     27  O   UNL     1     -36.157  22.688   4.425  0.00  0.00    -0.448 OA
BRANCH  27  29
ATOM     28  O   UNL     1     -35.076  20.683   4.812  0.00  0.00    -0.250 OA
ATOM     29  C   UNL     1     -35.503  21.761   5.202  0.00  0.00    +0.318 C 
ATOM     30  C   UNL     1     -35.375  22.254   6.611  0.00  0.00    +0.121 C 
ENDBRANCH  27  29
ENDBRANCH  26  27
ENDBRANCH   6  26
TORSDOF 7
ENDMDL
MODEL 2
REMARK VINA RESULT:      -6.0      2.352      5.704
REMARK  Name = 21118291
REMARK  7 active torsions:
REMARK  status: ('A' for Active; 'I' for Inactive)
REMARK    1  A    between atoms: C_6  and  C_26
REMARK    2  A    between atoms: C_8  and  O_22
REMARK    3  A    between atoms: C_10  and  O_18
REMARK    4  A    between atoms: C_13  and  O_20
REMARK    5  A    between atoms: O_22  and  C_24
REMARK    6  A    between atoms: C_26  and  O_27
REMARK    7  A    between atoms: O_27  and  C_29
REMARK                            x       y       z     vdW  Elec       q    Type
REMARK                         _______ _______ _______ _____ _____    ______ ____
ROOT
ATOM      1  O   UNL     1     -32.910  26.833   0.740  0.00  0.00    -0.351 OA
ATOM      2  O   UNL     1     -33.113  25.667   4.187  0.00  0.00    -0.349 OA
ATOM      3  O   UNL     1     -36.417  22.029   3.485  0.00  0.00    -0.289 OA
ATOM      4  C   UNL     1     -34.935  26.639   2.208  0.00  0.00    +0.075 C 
ATOM      5  C   UNL     1     -33.485  26.280   1.935  0.00  0.00    +0.151 C 
ATOM      6  C   UNL     1     -35.454  25.538   3.264  0.00  0.00    +0.107 C 
ATOM      7  C   UNL     1     -32.755  26.625   3.185  0.00  0.00    +0.173 C 
ATOM      8  C   UNL     1     -34.739  28.036   2.942  0.00  0.00    +0.200 C 
ATOM      9  C   UNL     1     -32.941  25.402   0.834  0.00  0.00    +0.172 C 
ATOM     10  C   UNL     1     -33.281  28.040   3.467  0.00  0.00    +0.180 C 
ATOM     11  C   UNL     1     -34.510  25.577   4.519  0.00  0.00    +0.143 C 
ATOM     12  C   UNL     1     -35.795  26.770   0.944  0.00  0.00    +0.007 C 
ATOM     13  C   UNL     1     -35.421  24.084   2.700  0.00  0.00    +0.178 C 
ATOM     14  C   UNL     1     -34.636  24.389   5.433  0.00  0.00    +0.002 C 
ATOM     15  C   UNL     1     -35.758  23.034   3.755  0.00  0.00    +0.196 C 
ATOM     16  C   UNL     1     -35.218  23.222   5.130  0.00  0.00    +0.013 C 
ATOM     17  C   UNL     1     -35.354  22.090   6.098  0.00  0.00    +0.034 C 
ENDROOT
BRANCH  10  18
ATOM     18  O   UNL     1     -33.196  28.377   4.838  0.00  0.00    -0.379 OA
ATOM     19  H   UNL     1     -33.507  27.631   5.374  0.00  0.00    +0.211 HD
ENDBRANCH  10  18
BRANCH  13  20
ATOM     20  O   UNL     1     -36.348  23.907   1.640  0.00  0.00    -0.377 OA
ATOM     21  H   UNL     1     -36.883  23.116   1.809  0.00  0.00    +0.211 HD
ENDBRANCH  13  20
BRANCH   8  22
ATOM     22  O   UNL     1     -34.893  29.140   2.049  0.00  0.00    -0.450 OA
BRANCH  22  24
ATOM     23  O   UNL     1     -35.077  30.715   3.729  0.00  0.00    -0.250 OA
ATOM     24  C   UNL     1     -35.353  30.294   2.614  0.00  0.00    +0.318 C 
ATOM     25  C   UNL     1     -36.268  30.995   1.655  0.00  0.00    +0.121 C 
ENDBRANCH  22  24
ENDBRANCH   8  22
BRANCH   6  26
ATOM     26  C   UNL     1     -36.913  25.859   3.701  0.00  0.00    +0.214 C 
BRANCH  26  27
ATOM     27  O   UNL     1     -37.653  26.121   2.533  0.00  0.00    -0.448 OA
BRANCH  27  29
ATOM     28  O   UNL     1     -39.855  26.740   2.215  0.00  0.00    -0.250 OA
ATOM     29  C   UNL     1     -39.014  25.952   2.622  0.00  0.00    +0.318 C 
ATOM     30  C   UNL     1     -39.337  24.651   3.293  0.00  0.00    +0.121 C 
ENDBRANCH  27  29
ENDBRANCH  26  27
ENDBRANCH   6  26
TORSDOF 7
ENDMDL
MODEL 3
REMARK VINA RESULT:      -6.0      1.967      4.649
REMARK  Name = 21118291
REMARK  7 active torsions:
REMARK  status: ('A' for Active; 'I' for Inactive)
REMARK    1  A    between atoms: C_6  and  C_26
REMARK    2  A    between atoms: C_8  and  O_22
REMARK    3  A    between atoms: C_10  and  O_18
REMARK    4  A    between atoms: C_13  and  O_20
REMARK    5  A    between atoms: O_22  and  C_24
REMARK    6  A    between atoms: C_26  and  O_27
REMARK    7  A    between atoms: O_27  and  C_29
REMARK                            x       y       z     vdW  Elec       q    Type
REMARK                         _______ _______ _______ _____ _____    ______ ____
ROOT
ATOM      1  O   UNL     1     -33.395  25.991   0.305  0.00  0.00    -0.351 OA
ATOM      2  O   UNL     1     -34.193  25.684   3.847  0.00  0.00    -0.349 OA
ATOM      3  O   UNL     1     -35.481  20.889   3.844  0.00  0.00    -0.289 OA
ATOM      4  C   UNL     1     -35.540  25.239   1.364  0.00  0.00    +0.075 C 
ATOM      5  C   UNL     1     -34.055  25.527   1.493  0.00  0.00    +0.151 C 
ATOM      6  C   UNL     1     -35.902  24.297   2.620  0.00  0.00    +0.107 C 
ATOM      7  C   UNL     1     -33.934  26.441   2.661  0.00  0.00    +0.173 C 
ATOM      8  C   UNL     1     -36.125  26.699   1.602  0.00  0.00    +0.200 C 
ATOM      9  C   UNL     1     -32.908  24.767   0.872  0.00  0.00    +0.172 C 
ATOM     10  C   UNL     1     -35.016  27.485   2.346  0.00  0.00    +0.180 C 
ATOM     11  C   UNL     1     -35.480  25.046   3.935  0.00  0.00    +0.143 C 
ATOM     12  C   UNL     1     -35.950  24.672  -0.001  0.00  0.00    +0.007 C 
ATOM     13  C   UNL     1     -35.148  22.931   2.600  0.00  0.00    +0.178 C 
ATOM     14  C   UNL     1     -35.421  24.176   5.160  0.00  0.00    +0.002 C 
ATOM     15  C   UNL     1     -35.370  22.115   3.870  0.00  0.00    +0.196 C 
ATOM     16  C   UNL     1     -35.394  22.837   5.172  0.00  0.00    +0.013 C 
ATOM     17  C   UNL     1     -35.383  22.023   6.427  0.00  0.00    +0.034 C 
ENDROOT
BRANCH  10  18
ATOM     18  O   UNL     1     -35.492  28.127   3.513  0.00  0.00    -0.379 OA
ATOM     19  H   UNL     1     -36.379  28.482   3.347  0.00  0.00    +0.211 HD
ENDBRANCH  10  18
BRANCH  13  20
ATOM     20  O   UNL     1     -35.563  22.115   1.516  0.00  0.00    -0.377 OA
ATOM     21  H   UNL     1     -35.265  22.512   0.682  0.00  0.00    +0.211 HD
ENDBRANCH  13  20
BRANCH   8  22
ATOM     22  O   UNL     1     -36.402  27.375   0.375  0.00  0.00    -0.450 OA
BRANCH  22  24
ATOM     23  O   UNL     1     -37.644  29.290   0.734  0.00  0.00    -0.250 OA
ATOM     24  C   UNL     1     -37.540  28.128   0.362  0.00  0.00    +0.318 C 
ATOM     25  C   UNL     1     -38.676  27.318  -0.185  0.00  0.00    +0.121 C 
ENDBRANCH  22  24
ENDBRANCH   8  22
BRANCH   6  26
ATOM     26  C   UNL     1     -37.431  24.010   2.653  0.00  0.00    +0.214 C 
BRANCH  26  27
ATOM     27  O   UNL     1     -38.041  25.066   3.354  0.00  0.00    -0.448 OA
BRANCH  27  29
ATOM     28  O   UNL     1     -39.816  26.516   3.063  0.00  0.00    -0.250 OA
ATOM     29  C   UNL     1     -39.313  25.406   2.958  0.00  0.00    +0.318 C 
ATOM     30  C   UNL     1     -40.014  24.220   2.369  0.00  0.00    +0.121 C 
ENDBRANCH  27  29
ENDBRANCH  26  27
ENDBRANCH   6  26
TORSDOF 7
ENDMDL
MODEL 4
REMARK VINA RESULT:      -5.6      1.833      4.869
REMARK  Name = 21118291
REMARK  7 active torsions:
REMARK  status: ('A' for Active; 'I' for Inactive)
REMARK    1  A    between atoms: C_6  and  C_26
REMARK    2  A    between atoms: C_8  and  O_22
REMARK    3  A    between atoms: C_10  and  O_18
REMARK    4  A    between atoms: C_13  and  O_20
REMARK    5  A    between atoms: O_22  and  C_24
REMARK    6  A    between atoms: C_26  and  O_27
REMARK    7  A    between atoms: O_27  and  C_29
REMARK                            x       y       z     vdW  Elec       q    Type
REMARK                         _______ _______ _______ _____ _____    ______ ____
ROOT
ATOM      1  O   UNL     1     -39.757  24.825   1.957  0.00  0.00    -0.351 OA
ATOM      2  O   UNL     1     -37.231  22.964   0.104  0.00  0.00    -0.349 OA
ATOM      3  O   UNL     1     -35.231  20.522   3.935  0.00  0.00    -0.289 OA
ATOM      4  C   UNL     1     -37.273  24.792   2.302  0.00  0.00    +0.075 C 
ATOM      5  C   UNL     1     -38.510  24.163   1.688  0.00  0.00    +0.151 C 
ATOM      6  C   UNL     1     -36.151  23.636   2.279  0.00  0.00    +0.107 C 
ATOM      7  C   UNL     1     -38.195  24.013   0.241  0.00  0.00    +0.173 C 
ATOM      8  C   UNL     1     -36.940  25.885   1.194  0.00  0.00    +0.200 C 
ATOM      9  C   UNL     1     -39.644  23.465   2.399  0.00  0.00    +0.172 C 
ATOM     10  C   UNL     1     -37.645  25.405  -0.100  0.00  0.00    +0.180 C 
ATOM     11  C   UNL     1     -35.982  23.144   0.796  0.00  0.00    +0.143 C 
ATOM     12  C   UNL     1     -37.511  25.426   3.679  0.00  0.00    +0.007 C 
ATOM     13  C   UNL     1     -36.533  22.394   3.143  0.00  0.00    +0.178 C 
ATOM     14  C   UNL     1     -35.244  21.842   0.650  0.00  0.00    +0.002 C 
ATOM     15  C   UNL     1     -35.546  21.240   2.987  0.00  0.00    +0.196 C 
ATOM     16  C   UNL     1     -35.004  20.960   1.628  0.00  0.00    +0.013 C 
ATOM     17  C   UNL     1     -34.221  19.701   1.431  0.00  0.00    +0.034 C 
ENDROOT
BRANCH  10  18
ATOM     18  O   UNL     1     -36.777  25.377  -1.216  0.00  0.00    -0.379 OA
ATOM     19  H   UNL     1     -36.754  26.254  -1.630  0.00  0.00    +0.211 HD
ENDBRANCH  10  18
BRANCH  13  20
ATOM     20  O   UNL     1     -36.578  22.706   4.526  0.00  0.00    -0.377 OA
ATOM     21  H   UNL     1     -36.590  23.669   4.639  0.00  0.00    +0.211 HD
ENDBRANCH  13  20
BRANCH   8  22
ATOM     22  O   UNL     1     -37.459  27.171   1.533  0.00  0.00    -0.450 OA
BRANCH  22  24
ATOM     23  O   UNL     1     -36.884  29.381   1.181  0.00  0.00    -0.250 OA
ATOM     24  C   UNL     1     -36.588  28.213   1.396  0.00  0.00    +0.318 C 
ATOM     25  C   UNL     1     -35.182  27.717   1.547  0.00  0.00    +0.121 C 
ENDBRANCH  22  24
ENDBRANCH   8  22
BRANCH   6  26
ATOM     26  C   UNL     1     -34.794  24.194   2.799  0.00  0.00    +0.214 C 
BRANCH  26  27
ATOM     27  O   UNL     1     -35.053  24.871   4.004  0.00  0.00    -0.448 OA
BRANCH  27  29
ATOM     28  O   UNL     1     -32.957  25.841   3.968  0.00  0.00    -0.250 OA
ATOM     29  C   UNL     1     -34.008  25.586   4.539  0.00  0.00    +0.318 C 
ATOM     30  C   UNL     1     -34.332  26.022   5.936  0.00  0.00    +0.121 C 
ENDBRANCH  27  29
ENDBRANCH  26  27
ENDBRANCH   6  26
TORSDOF 7
ENDMDL
MODEL 5
REMARK VINA RESULT:      -5.6      1.889      6.104
REMARK  Name = 21118291
REMARK  7 active torsions:
REMARK  status: ('A' for Active; 'I' for Inactive)
REMARK    1  A    between atoms: C_6  and  C_26
REMARK    2  A    between atoms: C_8  and  O_22
REMARK    3  A    between atoms: C_10  and  O_18
REMARK    4  A    between atoms: C_13  and  O_20
REMARK    5  A    between atoms: O_22  and  C_24
REMARK    6  A    between atoms: C_26  and  O_27
REMARK    7  A    between atoms: O_27  and  C_29
REMARK                            x       y       z     vdW  Elec       q    Type
REMARK                         _______ _______ _______ _____ _____    ______ ____
ROOT
ATOM      1  O   UNL     1     -34.941  22.910   3.789  0.00  0.00    -0.351 OA
ATOM      2  O   UNL     1     -38.059  24.755   4.178  0.00  0.00    -0.349 OA
ATOM      3  O   UNL     1     -39.902  23.946  -0.360  0.00  0.00    -0.289 OA
ATOM      4  C   UNL     1     -35.817  24.808   2.404  0.00  0.00    +0.075 C 
ATOM      5  C   UNL     1     -36.073  23.717   3.428  0.00  0.00    +0.151 C 
ATOM      6  C   UNL     1     -37.269  25.200   1.827  0.00  0.00    +0.107 C 
ATOM      7  C   UNL     1     -36.730  24.403   4.573  0.00  0.00    +0.173 C 
ATOM      8  C   UNL     1     -35.289  25.965   3.360  0.00  0.00    +0.200 C 
ATOM      9  C   UNL     1     -36.060  22.223   3.211  0.00  0.00    +0.172 C 
ATOM     10  C   UNL     1     -35.805  25.612   4.778  0.00  0.00    +0.180 C 
ATOM     11  C   UNL     1     -38.182  25.621   3.035  0.00  0.00    +0.143 C 
ATOM     12  C   UNL     1     -34.783  24.431   1.334  0.00  0.00    +0.007 C 
ATOM     13  C   UNL     1     -37.979  24.018   1.096  0.00  0.00    +0.178 C 
ATOM     14  C   UNL     1     -39.651  25.675   2.720  0.00  0.00    +0.002 C 
ATOM     15  C   UNL     1     -39.414  24.347   0.697  0.00  0.00    +0.196 C 
ATOM     16  C   UNL     1     -40.247  25.127   1.653  0.00  0.00    +0.013 C 
ATOM     17  C   UNL     1     -41.710  25.255   1.368  0.00  0.00    +0.034 C 
ENDROOT
BRANCH  10  18
ATOM     18  O   UNL     1     -36.472  26.694   5.400  0.00  0.00    -0.379 OA
ATOM     19  H   UNL     1     -36.005  27.520   5.200  0.00  0.00    +0.211 HD
ENDBRANCH  10  18
BRANCH  13  20
ATOM     20  O   UNL     1     -37.300  23.649  -0.094  0.00  0.00    -0.377 OA
ATOM     21  H   UNL     1     -36.608  24.302  -0.286  0.00  0.00    +0.211 HD
ENDBRANCH  13  20
BRANCH   8  22
ATOM     22  O   UNL     1     -33.863  26.017   3.405  0.00  0.00    -0.450 OA
BRANCH  22  24
ATOM     23  O   UNL     1     -33.798  28.186   4.201  0.00  0.00    -0.250 OA
ATOM     24  C   UNL     1     -33.324  27.263   3.552  0.00  0.00    +0.318 C 
ATOM     25  C   UNL     1     -32.037  27.348   2.788  0.00  0.00    +0.121 C 
ENDBRANCH  22  24
ENDBRANCH   8  22
BRANCH   6  26
ATOM     26  C   UNL     1     -37.148  26.388   0.828  0.00  0.00    +0.214 C 
BRANCH  26  27
ATOM     27  O   UNL     1     -37.282  27.576   1.571  0.00  0.00    -0.448 OA
BRANCH  27  29
ATOM     28  O   UNL     1     -36.926  29.830   1.213  0.00  0.00    -0.250 OA
ATOM     29  C   UNL     1     -36.575  28.663   1.115  0.00  0.00    +0.318 C 
ATOM     30  C   UNL     1     -35.293  28.223   0.475  0.00  0.00    +0.121 C 
ENDBRANCH  27  29
ENDBRANCH  26  27
ENDBRANCH   6  26
TORSDOF 7
ENDMDL
MODEL 6
REMARK VINA RESULT:      -5.6      2.762      4.777
REMARK  Name = 21118291
REMARK  7 active torsions:
REMARK  status: ('A' for Active; 'I' for Inactive)
REMARK    1  A    between atoms: C_6  and  C_26
REMARK    2  A    between atoms: C_8  and  O_22
REMARK    3  A    between atoms: C_10  and  O_18
REMARK    4  A    between atoms: C_13  and  O_20
REMARK    5  A    between atoms: O_22  and  C_24
REMARK    6  A    between atoms: C_26  and  O_27
REMARK    7  A    between atoms: O_27  and  C_29
REMARK                            x       y       z     vdW  Elec       q    Type
REMARK                         _______ _______ _______ _____ _____    ______ ____
ROOT
ATOM      1  O   UNL     1     -35.282  21.884  -2.071  0.00  0.00    -0.351 OA
ATOM      2  O   UNL     1     -37.762  21.600   0.584  0.00  0.00    -0.349 OA
ATOM      3  O   UNL     1     -37.612  26.302   2.167  0.00  0.00    -0.289 OA
ATOM      4  C   UNL     1     -35.028  22.409   0.368  0.00  0.00    +0.075 C 
ATOM      5  C   UNL     1     -35.936  22.137  -0.817  0.00  0.00    +0.151 C 
ATOM      6  C   UNL     1     -35.963  23.128   1.466  0.00  0.00    +0.107 C 
ATOM      7  C   UNL     1     -36.847  21.049  -0.368  0.00  0.00    +0.173 C 
ATOM      8  C   UNL     1     -34.715  20.917   0.824  0.00  0.00    +0.200 C 
ATOM      9  C   UNL     1     -36.168  23.011  -2.025  0.00  0.00    +0.172 C 
ATOM     10  C   UNL     1     -35.854  20.046   0.236  0.00  0.00    +0.180 C 
ATOM     11  C   UNL     1     -37.184  22.186   1.765  0.00  0.00    +0.143 C 
ATOM     12  C   UNL     1     -33.749  23.180   0.012  0.00  0.00    +0.007 C 
ATOM     13  C   UNL     1     -36.537  24.496   0.981  0.00  0.00    +0.178 C 
ATOM     14  C   UNL     1     -38.323  22.849   2.490  0.00  0.00    +0.002 C 
ATOM     15  C   UNL     1     -37.548  25.091   1.957  0.00  0.00    +0.196 C 
ATOM     16  C   UNL     1     -38.511  24.168   2.619  0.00  0.00    +0.013 C 
ATOM     17  C   UNL     1     -39.640  24.770   3.394  0.00  0.00    +0.034 C 
ENDROOT
BRANCH  10  18
ATOM     18  O   UNL     1     -36.460  19.214   1.206  0.00  0.00    -0.379 OA
ATOM     19  H   UNL     1     -37.233  19.664   1.581  0.00  0.00    +0.211 HD
ENDBRANCH  10  18
BRANCH  13  20
ATOM     20  O   UNL     1     -35.516  25.466   0.811  0.00  0.00    -0.377 OA
ATOM     21  H   UNL     1     -34.658  25.075   1.037  0.00  0.00    +0.211 HD
ENDBRANCH  13  20
BRANCH   8  22
ATOM     22  O   UNL     1     -33.475  20.442   0.300  0.00  0.00    -0.450 OA
BRANCH  22  24
ATOM     23  O   UNL     1     -33.448  18.731   1.852  0.00  0.00    -0.250 OA
ATOM     24  C   UNL     1     -32.919  19.388   0.965  0.00  0.00    +0.318 C 
ATOM     25  C   UNL     1     -31.534  19.140   0.450  0.00  0.00    +0.121 C 
ENDBRANCH  22  24
ENDBRANCH   8  22
BRANCH   6  26
ATOM     26  C   UNL     1     -35.161  23.373   2.778  0.00  0.00    +0.214 C 
BRANCH  26  27
ATOM     27  O   UNL     1     -35.559  22.389   3.702  0.00  0.00    -0.448 OA
BRANCH  27  29
ATOM     28  O   UNL     1     -36.242  23.820   5.381  0.00  0.00    -0.250 OA
ATOM     29  C   UNL     1     -35.688  22.796   5.008  0.00  0.00    +0.318 C 
ATOM     30  C   UNL     1     -35.051  21.802   5.932  0.00  0.00    +0.121 C 
ENDBRANCH  27  29
ENDBRANCH  26  27
ENDBRANCH   6  26
TORSDOF 7
ENDMDL
MODEL 7
REMARK VINA RESULT:      -5.5      1.614      5.325
REMARK  Name = 21118291
REMARK  7 active torsions:
REMARK  status: ('A' for Active; 'I' for Inactive)
REMARK    1  A    between atoms: C_6  and  C_26
REMARK    2  A    between atoms: C_8  and  O_22
REMARK    3  A    between atoms: C_10  and  O_18
REMARK    4  A    between atoms: C_13  and  O_20
REMARK    5  A    between atoms: O_22  and  C_24
REMARK    6  A    between atoms: C_26  and  O_27
REMARK    7  A    between atoms: O_27  and  C_29
REMARK                            x       y       z     vdW  Elec       q    Type
REMARK                         _______ _______ _______ _____ _____    ______ ____
ROOT
ATOM      1  O   UNL     1     -38.814  26.942   1.578  0.00  0.00    -0.351 OA
ATOM      2  O   UNL     1     -36.837  24.522  -0.296  0.00  0.00    -0.349 OA
ATOM      3  O   UNL     1     -39.856  20.617   0.231  0.00  0.00    -0.289 OA
ATOM      4  C   UNL     1     -37.923  24.726   2.342  0.00  0.00    +0.075 C 
ATOM      5  C   UNL     1     -38.256  25.673   1.203  0.00  0.00    +0.151 C 
ATOM      6  C   UNL     1     -37.806  23.269   1.664  0.00  0.00    +0.107 C 
ATOM      7  C   UNL     1     -37.011  25.764   0.394  0.00  0.00    +0.173 C 
ATOM      8  C   UNL     1     -36.474  25.257   2.727  0.00  0.00    +0.200 C 
ATOM      9  C   UNL     1     -39.622  26.111   0.733  0.00  0.00    +0.172 C 
ATOM     10  C   UNL     1     -35.957  26.020   1.481  0.00  0.00    +0.180 C 
ATOM     11  C   UNL     1     -36.729  23.343   0.522  0.00  0.00    +0.143 C 
ATOM     12  C   UNL     1     -38.896  24.805   3.526  0.00  0.00    +0.007 C 
ATOM     13  C   UNL     1     -39.141  22.785   1.016  0.00  0.00    +0.178 C 
ATOM     14  C   UNL     1     -36.750  22.182  -0.433  0.00  0.00    +0.002 C 
ATOM     15  C   UNL     1     -38.981  21.482   0.237  0.00  0.00    +0.196 C 
ATOM     16  C   UNL     1     -37.746  21.298  -0.576  0.00  0.00    +0.013 C 
ATOM     17  C   UNL     1     -37.690  20.133  -1.512  0.00  0.00    +0.034 C 
ENDROOT
BRANCH  10  18
ATOM     18  O   UNL     1     -34.666  25.601   1.082  0.00  0.00    -0.379 OA
ATOM     19  H   UNL     1     -34.640  25.509   0.117  0.00  0.00    +0.211 HD
ENDBRANCH  10  18
BRANCH  13  20
ATOM     20  O   UNL     1     -40.147  22.555   1.989  0.00  0.00    -0.377 OA
ATOM     21  H   UNL     1     -39.774  22.046   2.725  0.00  0.00    +0.211 HD
ENDBRANCH  13  20
BRANCH   8  22
ATOM     22  O   UNL     1     -36.508  26.169   3.825  0.00  0.00    -0.450 OA
BRANCH  22  24
ATOM     23  O   UNL     1     -34.727  26.814   5.148  0.00  0.00    -0.250 OA
ATOM     24  C   UNL     1     -35.545  25.984   4.774  0.00  0.00    +0.318 C 
ATOM     25  C   UNL     1     -35.627  24.587   5.311  0.00  0.00    +0.121 C 
ENDBRANCH  22  24
ENDBRANCH   8  22
BRANCH   6  26
ATOM     26  C   UNL     1     -37.368  22.217   2.724  0.00  0.00    +0.214 C 
BRANCH  26  27
ATOM     27  O   UNL     1     -35.962  22.190   2.733  0.00  0.00    -0.448 OA
BRANCH  27  29
ATOM     28  O   UNL     1     -35.198  20.765   4.382  0.00  0.00    -0.250 OA
ATOM     29  C   UNL     1     -35.377  21.039   3.204  0.00  0.00    +0.318 C 
ATOM     30  C   UNL     1     -34.982  20.147   2.066  0.00  0.00    +0.121 C 
ENDBRANCH  27  29
ENDBRANCH  26  27
ENDBRANCH   6  26
TORSDOF 7
ENDMDL
MODEL 8
REMARK VINA RESULT:      -5.5      2.529      4.753
REMARK  Name = 21118291
REMARK  7 active torsions:
REMARK  status: ('A' for Active; 'I' for Inactive)
REMARK    1  A    between atoms: C_6  and  C_26
REMARK    2  A    between atoms: C_8  and  O_22
REMARK    3  A    between atoms: C_10  and  O_18
REMARK    4  A    between atoms: C_13  and  O_20
REMARK    5  A    between atoms: O_22  and  C_24
REMARK    6  A    between atoms: C_26  and  O_27
REMARK    7  A    between atoms: O_27  and  C_29
REMARK                            x       y       z     vdW  Elec       q    Type
REMARK                         _______ _______ _______ _____ _____    ______ ____
ROOT
ATOM      1  O   UNL     1     -39.152  22.693  -0.755  0.00  0.00    -0.351 OA
ATOM      2  O   UNL     1     -35.544  23.099  -0.434  0.00  0.00    -0.349 OA
ATOM      3  O   UNL     1     -34.430  18.405   0.737  0.00  0.00    -0.289 OA
ATOM      4  C   UNL     1     -37.690  22.176   1.216  0.00  0.00    +0.075 C 
ATOM      5  C   UNL     1     -37.818  22.477  -0.266  0.00  0.00    +0.151 C 
ATOM      6  C   UNL     1     -36.236  21.504   1.390  0.00  0.00    +0.107 C 
ATOM      7  C   UNL     1     -36.880  23.605  -0.518  0.00  0.00    +0.173 C 
ATOM      8  C   UNL     1     -37.670  23.656   1.797  0.00  0.00    +0.200 C 
ATOM      9  C   UNL     1     -38.423  21.604  -1.339  0.00  0.00    +0.172 C 
ATOM     10  C   UNL     1     -37.249  24.570   0.618  0.00  0.00    +0.180 C 
ATOM     11  C   UNL     1     -35.163  22.497   0.817  0.00  0.00    +0.143 C 
ATOM     12  C   UNL     1     -38.849  21.350   1.789  0.00  0.00    +0.007 C 
ATOM     13  C   UNL     1     -36.086  20.157   0.615  0.00  0.00    +0.178 C 
ATOM     14  C   UNL     1     -33.809  21.888   0.579  0.00  0.00    +0.002 C 
ATOM     15  C   UNL     1     -34.661  19.611   0.651  0.00  0.00    +0.196 C 
ATOM     16  C   UNL     1     -33.536  20.578   0.520  0.00  0.00    +0.013 C 
ATOM     17  C   UNL     1     -32.158  20.029   0.327  0.00  0.00    +0.034 C 
ENDROOT
BRANCH  10  18
ATOM     18  O   UNL     1     -36.179  25.433   0.952  0.00  0.00    -0.379 OA
ATOM     19  H   UNL     1     -35.642  25.027   1.650  0.00  0.00    +0.211 HD
ENDBRANCH  10  18
BRANCH  13  20
ATOM     20  O   UNL     1     -36.923  19.144   1.150  0.00  0.00    -0.377 OA
ATOM     21  H   UNL     1     -37.289  19.443   1.997  0.00  0.00    +0.211 HD
ENDBRANCH  13  20
BRANCH   8  22
ATOM     22  O   UNL     1     -38.958  24.076   2.248  0.00  0.00    -0.450 OA
BRANCH  22  24
ATOM     23  O   UNL     1     -38.020  25.837   3.412  0.00  0.00    -0.250 OA
ATOM     24  C   UNL     1     -38.986  25.252   2.939  0.00  0.00    +0.318 C 
ATOM     25  C   UNL     1     -40.398  25.742   3.044  0.00  0.00    +0.121 C 
ENDBRANCH  22  24
ENDBRANCH   8  22
BRANCH   6  26
ATOM     26  C   UNL     1     -35.944  21.235   2.895  0.00  0.00    +0.214 C 
BRANCH  26  27
ATOM     27  O   UNL     1     -35.369  22.404   3.426  0.00  0.00    -0.448 OA
BRANCH  27  29
ATOM     28  O   UNL     1     -36.420  23.609   5.093  0.00  0.00    -0.250 OA
ATOM     29  C   UNL     1     -35.686  22.702   4.730  0.00  0.00    +0.318 C 
ATOM     30  C   UNL     1     -35.004  21.749   5.665  0.00  0.00    +0.121 C 
ENDBRANCH  27  29
ENDBRANCH  26  27
ENDBRANCH   6  26
TORSDOF 7
ENDMDL
MODEL 9
REMARK VINA RESULT:      -5.3      1.961      4.499
REMARK  Name = 21118291
REMARK  7 active torsions:
REMARK  status: ('A' for Active; 'I' for Inactive)
REMARK    1  A    between atoms: C_6  and  C_26
REMARK    2  A    between atoms: C_8  and  O_22
REMARK    3  A    between atoms: C_10  and  O_18
REMARK    4  A    between atoms: C_13  and  O_20
REMARK    5  A    between atoms: O_22  and  C_24
REMARK    6  A    between atoms: C_26  and  O_27
REMARK    7  A    between atoms: O_27  and  C_29
REMARK                            x       y       z     vdW  Elec       q    Type
REMARK                         _______ _______ _______ _____ _____    ______ ____
ROOT
ATOM      1  O   UNL     1     -36.520  22.207  -1.478  0.00  0.00    -0.351 OA
ATOM      2  O   UNL     1     -39.387  22.825   0.685  0.00  0.00    -0.349 OA
ATOM      3  O   UNL     1     -39.191  27.786   0.679  0.00  0.00    -0.289 OA
ATOM      4  C   UNL     1     -36.608  23.496   0.671  0.00  0.00    +0.075 C 
ATOM      5  C   UNL     1     -37.340  22.860  -0.496  0.00  0.00    +0.151 C 
ATOM      6  C   UNL     1     -37.652  24.542   1.312  0.00  0.00    +0.107 C 
ATOM      7  C   UNL     1     -38.374  21.986   0.122  0.00  0.00    +0.173 C 
ATOM      8  C   UNL     1     -36.460  22.232   1.626  0.00  0.00    +0.200 C 
ATOM      9  C   UNL     1     -37.332  23.295  -1.942  0.00  0.00    +0.172 C 
ATOM     10  C   UNL     1     -37.548  21.227   1.170  0.00  0.00    +0.180 C 
ATOM     11  C   UNL     1     -38.960  23.760   1.693  0.00  0.00    +0.143 C 
ATOM     12  C   UNL     1     -35.245  24.098   0.301  0.00  0.00    +0.007 C 
ATOM     13  C   UNL     1     -38.061  25.682   0.327  0.00  0.00    +0.178 C 
ATOM     14  C   UNL     1     -40.153  24.632   1.970  0.00  0.00    +0.002 C 
ATOM     15  C   UNL     1     -39.170  26.572   0.881  0.00  0.00    +0.196 C 
ATOM     16  C   UNL     1     -40.277  25.924   1.638  0.00  0.00    +0.013 C 
ATOM     17  C   UNL     1     -41.472  26.755   1.983  0.00  0.00    +0.034 C 
ENDROOT
BRANCH  10  18
ATOM     18  O   UNL     1     -38.344  20.762   2.242  0.00  0.00    -0.379 OA
ATOM     19  H   UNL     1     -38.269  21.374   2.990  0.00  0.00    +0.211 HD
ENDBRANCH  10  18
BRANCH  13  20
ATOM     20  O   UNL     1     -36.968  26.535   0.025  0.00  0.00    -0.377 OA
ATOM     21  H   UNL     1     -37.299  27.426  -0.170  0.00  0.00    +0.211 HD
ENDBRANCH  13  20
BRANCH   8  22
ATOM     22  O   UNL     1     -35.186  21.601   1.492  0.00  0.00    -0.450 OA
BRANCH  22  24
ATOM     23  O   UNL     1     -35.376  20.393   3.452  0.00  0.00    -0.250 OA
ATOM     24  C   UNL     1     -34.974  20.525   2.303  0.00  0.00    +0.318 C 
ATOM     25  C   UNL     1     -34.158  19.499   1.577  0.00  0.00    +0.121 C 
ENDBRANCH  22  24
ENDBRANCH   8  22
BRANCH   6  26
ATOM     26  C   UNL     1     -37.046  25.194   2.589  0.00  0.00    +0.214 C 
BRANCH  26  27
ATOM     27  O   UNL     1     -37.377  24.368   3.678  0.00  0.00    -0.448 OA
BRANCH  27  29
ATOM     28  O   UNL     1     -36.131  23.377   5.352  0.00  0.00    -0.250 OA
ATOM     29  C   UNL     1     -36.493  24.366   4.732  0.00  0.00    +0.318 C 
ATOM     30  C   UNL     1     -36.022  25.759   5.023  0.00  0.00    +0.121 C 
ENDBRANCH  27  29
ENDBRANCH  26  27
ENDBRANCH   6  26
TORSDOF 7
ENDMDL
