MODEL 1
REMARK VINA RESULT:      -5.2      0.000      0.000
REMARK  Name = 5299
REMARK  11 active torsions:
REMARK  status: ('A' for Active; 'I' for Inactive)
REMARK    1  A    between atoms: C_1  and  O_2
REMARK    2  A    between atoms: C_1  and  C_4
REMARK    3  A    between atoms: C_1  and  CA_13
REMARK    4  A    between atoms: C_4  and  O_5
REMARK    5  A    between atoms: C_4  and  C_7
REMARK    6  A    between atoms: C_7  and  O_8
REMARK    7  A    between atoms: C_7  and  C_10
REMARK    8  A    between atoms: C_10  and  O_11
REMARK    9  A    between atoms: CA_13  and  N_15
REMARK   10  A    between atoms: CA_13  and  C_23
REMARK   11  A    between atoms: N_16  and  N_21
REMARK                            x       y       z     vdW  Elec       q    Type
REMARK                         _______ _______ _______ _____ _____    ______ ____
ROOT
ATOM      1  C   UNL     1     -35.431  22.138   3.602  0.00  0.00    +0.165 C 
ENDROOT
BRANCH   1   2
ATOM      2  O   UNL     1     -35.403  20.872   4.275  0.00  0.00    -0.380 OA
ATOM      3  H   UNL     1     -34.990  20.209   3.701  0.00  0.00    +0.211 HD
ENDBRANCH   1   2
BRANCH   1   4
ATOM      4  C   UNL     1     -36.502  22.059   2.495  0.00  0.00    +0.168 C 
BRANCH   4   5
ATOM      5  O   UNL     1     -37.782  22.166   3.135  0.00  0.00    -0.379 OA
ATOM      6  H   UNL     1     -37.874  21.457   3.790  0.00  0.00    +0.211 HD
ENDBRANCH   4   5
BRANCH   4   7
ATOM      7  C   UNL     1     -36.477  20.784   1.635  0.00  0.00    +0.169 C 
BRANCH   7   8
ATOM      8  O   UNL     1     -36.882  19.657   2.413  0.00  0.00    -0.379 OA
ATOM      9  H   UNL     1     -37.850  19.598   2.416  0.00  0.00    +0.211 HD
ENDBRANCH   7   8
BRANCH   7  10
ATOM     10  C   UNL     1     -35.079  20.486   1.093  0.00  0.00    +0.169 C 
BRANCH  10  11
ATOM     11  O   UNL     1     -34.553  19.352   1.776  0.00  0.00    -0.379 OA
ATOM     12  H   UNL     1     -35.046  19.213   2.601  0.00  0.00    +0.211 HD
ENDBRANCH  10  11
ENDBRANCH   7  10
ENDBRANCH   4   7
ENDBRANCH   1   4
BRANCH   1  13
ATOM     13  CA  UNL     1     -35.655  23.235   4.650  0.00  0.00    +0.168 C 
BRANCH  13  15
ATOM     14  O   UNL     1     -36.518  25.610   3.403  0.00  0.00    -0.251 OA
ATOM     15  N   UNL     1     -34.848  24.409   4.431  0.00  0.00    -0.280 N 
ATOM     16  N   UNL     1     -34.444  26.612   3.663  0.00  0.00    -0.162 N 
ATOM     17  C   UNL     1     -35.351  25.548   3.803  0.00  0.00    +0.321 C 
ATOM     18  C   UNL     1     -34.835  27.864   3.028  0.00  0.00    +0.140 C 
ATOM     19  H   UNL     1     -33.911  24.406   4.734  0.00  0.00    +0.151 HD
BRANCH  16  21
ATOM     20  O   UNL     1     -32.955  26.596   5.398  0.00  0.00    -0.078 OA
ATOM     21  N   UNL     1     -33.048  26.478   4.171  0.00  0.00    +0.054 NA
ENDBRANCH  16  21
ENDBRANCH  13  15
BRANCH  13  23
ATOM     22  O   UNL     1     -36.092  22.018   6.696  0.00  0.00    -0.286 OA
ATOM     23  C   UNL     1     -35.340  22.743   6.050  0.00  0.00    +0.229 C 
ENDBRANCH  13  23
ENDBRANCH   1  13
TORSDOF 11
ENDMDL
MODEL 2
REMARK VINA RESULT:      -5.1      2.363      4.565
REMARK  Name = 5299
REMARK  11 active torsions:
REMARK  status: ('A' for Active; 'I' for Inactive)
REMARK    1  A    between atoms: C_1  and  O_2
REMARK    2  A    between atoms: C_1  and  C_4
REMARK    3  A    between atoms: C_1  and  CA_13
REMARK    4  A    between atoms: C_4  and  O_5
REMARK    5  A    between atoms: C_4  and  C_7
REMARK    6  A    between atoms: C_7  and  O_8
REMARK    7  A    between atoms: C_7  and  C_10
REMARK    8  A    between atoms: C_10  and  O_11
REMARK    9  A    between atoms: CA_13  and  N_15
REMARK   10  A    between atoms: CA_13  and  C_23
REMARK   11  A    between atoms: N_16  and  N_21
REMARK                            x       y       z     vdW  Elec       q    Type
REMARK                         _______ _______ _______ _____ _____    ______ ____
ROOT
ATOM      1  C   UNL     1     -35.510  25.860   4.661  0.00  0.00    +0.165 C 
ENDROOT
BRANCH   1   2
ATOM      2  O   UNL     1     -36.441  26.757   5.280  0.00  0.00    -0.380 OA
ATOM      3  H   UNL     1     -36.744  27.409   4.628  0.00  0.00    +0.211 HD
ENDBRANCH   1   2
BRANCH   1   4
ATOM      4  C   UNL     1     -36.316  24.723   4.002  0.00  0.00    +0.168 C 
BRANCH   4   5
ATOM      5  O   UNL     1     -37.673  24.849   4.451  0.00  0.00    -0.379 OA
ATOM      6  H   UNL     1     -38.233  25.127   3.710  0.00  0.00    +0.211 HD
ENDBRANCH   4   5
BRANCH   4   7
ATOM      7  C   UNL     1     -35.820  23.297   4.300  0.00  0.00    +0.169 C 
BRANCH   7   8
ATOM      8  O   UNL     1     -36.852  22.349   4.022  0.00  0.00    -0.379 OA
ATOM      9  H   UNL     1     -37.563  22.782   3.524  0.00  0.00    +0.211 HD
ENDBRANCH   7   8
BRANCH   7  10
ATOM     10  C   UNL     1     -35.423  23.123   5.765  0.00  0.00    +0.169 C 
BRANCH  10  11
ATOM     11  O   UNL     1     -36.085  21.976   6.288  0.00  0.00    -0.379 OA
ATOM     12  H   UNL     1     -37.045  22.084   6.193  0.00  0.00    +0.211 HD
ENDBRANCH  10  11
ENDBRANCH   7  10
ENDBRANCH   4   7
ENDBRANCH   1   4
BRANCH   1  13
ATOM     13  CA  UNL     1     -34.624  26.670   3.706  0.00  0.00    +0.168 C 
BRANCH  13  15
ATOM     14  O   UNL     1     -31.832  26.817   3.359  0.00  0.00    -0.251 OA
ATOM     15  N   UNL     1     -33.741  27.586   4.383  0.00  0.00    -0.280 N 
ATOM     16  N   UNL     1     -31.637  28.547   4.889  0.00  0.00    -0.162 N 
ATOM     17  C   UNL     1     -32.365  27.596   4.156  0.00  0.00    +0.321 C 
ATOM     18  C   UNL     1     -30.192  28.669   4.749  0.00  0.00    +0.140 C 
ATOM     19  H   UNL     1     -34.122  28.226   5.028  0.00  0.00    +0.151 HD
BRANCH  16  21
ATOM     20  O   UNL     1     -32.828  30.457   5.287  0.00  0.00    -0.078 OA
ATOM     21  N   UNL     1     -32.340  29.462   5.834  0.00  0.00    +0.054 NA
ENDBRANCH  16  21
ENDBRANCH  13  15
BRANCH  13  23
ATOM     22  O   UNL     1     -35.299  28.703   2.578  0.00  0.00    -0.286 OA
ATOM     23  C   UNL     1     -35.454  27.495   2.740  0.00  0.00    +0.229 C 
ENDBRANCH  13  23
ENDBRANCH   1  13
TORSDOF 11
ENDMDL
MODEL 3
REMARK VINA RESULT:      -5.1      1.077      1.758
REMARK  Name = 5299
REMARK  11 active torsions:
REMARK  status: ('A' for Active; 'I' for Inactive)
REMARK    1  A    between atoms: C_1  and  O_2
REMARK    2  A    between atoms: C_1  and  C_4
REMARK    3  A    between atoms: C_1  and  CA_13
REMARK    4  A    between atoms: C_4  and  O_5
REMARK    5  A    between atoms: C_4  and  C_7
REMARK    6  A    between atoms: C_7  and  O_8
REMARK    7  A    between atoms: C_7  and  C_10
REMARK    8  A    between atoms: C_10  and  O_11
REMARK    9  A    between atoms: CA_13  and  N_15
REMARK   10  A    between atoms: CA_13  and  C_23
REMARK   11  A    between atoms: N_16  and  N_21
REMARK                            x       y       z     vdW  Elec       q    Type
REMARK                         _______ _______ _______ _____ _____    ______ ____
ROOT
ATOM      1  C   UNL     1     -35.812  22.361   3.411  0.00  0.00    +0.165 C 
ENDROOT
BRANCH   1   2
ATOM      2  O   UNL     1     -35.776  21.021   3.919  0.00  0.00    -0.380 OA
ATOM      3  H   UNL     1     -35.731  21.043   4.888  0.00  0.00    +0.211 HD
ENDBRANCH   1   2
BRANCH   1   4
ATOM      4  C   UNL     1     -37.040  22.482   2.486  0.00  0.00    +0.168 C 
BRANCH   4   5
ATOM      5  O   UNL     1     -38.037  23.227   3.199  0.00  0.00    -0.379 OA
ATOM      6  H   UNL     1     -37.633  24.021   3.582  0.00  0.00    +0.211 HD
ENDBRANCH   4   5
BRANCH   4   7
ATOM      7  C   UNL     1     -37.651  21.150   2.015  0.00  0.00    +0.169 C 
BRANCH   7   8
ATOM      8  O   UNL     1     -36.758  20.490   1.116  0.00  0.00    -0.379 OA
ATOM      9  H   UNL     1     -36.570  21.071   0.363  0.00  0.00    +0.211 HD
ENDBRANCH   7   8
BRANCH   7  10
ATOM     10  C   UNL     1     -38.973  21.356   1.277  0.00  0.00    +0.169 C 
BRANCH  10  11
ATOM     11  O   UNL     1     -40.047  21.072   2.168  0.00  0.00    -0.379 OA
ATOM     12  H   UNL     1     -40.225  20.118   2.166  0.00  0.00    +0.211 HD
ENDBRANCH  10  11
ENDBRANCH   7  10
ENDBRANCH   4   7
ENDBRANCH   1   4
BRANCH   1  13
ATOM     13  CA  UNL     1     -35.796  23.327   4.603  0.00  0.00    +0.168 C 
BRANCH  13  15
ATOM     14  O   UNL     1     -36.572  25.777   3.447  0.00  0.00    -0.251 OA
ATOM     15  N   UNL     1     -34.939  24.469   4.401  0.00  0.00    -0.280 N 
ATOM     16  N   UNL     1     -34.449  26.674   3.692  0.00  0.00    -0.162 N 
ATOM     17  C   UNL     1     -35.401  25.649   3.820  0.00  0.00    +0.321 C 
ATOM     18  C   UNL     1     -34.794  27.961   3.104  0.00  0.00    +0.140 C 
ATOM     19  H   UNL     1     -33.997  24.413   4.683  0.00  0.00    +0.151 HD
BRANCH  16  21
ATOM     20  O   UNL     1     -32.926  26.543   5.391  0.00  0.00    -0.078 OA
ATOM     21  N   UNL     1     -33.051  26.460   4.165  0.00  0.00    +0.054 NA
ENDBRANCH  16  21
ENDBRANCH  13  15
BRANCH  13  23
ATOM     22  O   UNL     1     -36.053  21.965   6.587  0.00  0.00    -0.286 OA
ATOM     23  C   UNL     1     -35.321  22.642   5.870  0.00  0.00    +0.229 C 
ENDBRANCH  13  23
ENDBRANCH   1  13
TORSDOF 11
ENDMDL
MODEL 4
REMARK VINA RESULT:      -5.1      2.434      4.056
REMARK  Name = 5299
REMARK  11 active torsions:
REMARK  status: ('A' for Active; 'I' for Inactive)
REMARK    1  A    between atoms: C_1  and  O_2
REMARK    2  A    between atoms: C_1  and  C_4
REMARK    3  A    between atoms: C_1  and  CA_13
REMARK    4  A    between atoms: C_4  and  O_5
REMARK    5  A    between atoms: C_4  and  C_7
REMARK    6  A    between atoms: C_7  and  O_8
REMARK    7  A    between atoms: C_7  and  C_10
REMARK    8  A    between atoms: C_10  and  O_11
REMARK    9  A    between atoms: CA_13  and  N_15
REMARK   10  A    between atoms: CA_13  and  C_23
REMARK   11  A    between atoms: N_16  and  N_21
REMARK                            x       y       z     vdW  Elec       q    Type
REMARK                         _______ _______ _______ _____ _____    ______ ____
ROOT
ATOM      1  C   UNL     1     -36.580  25.425   4.619  0.00  0.00    +0.165 C 
ENDROOT
BRANCH   1   2
ATOM      2  O   UNL     1     -37.856  24.867   4.278  0.00  0.00    -0.380 OA
ATOM      3  H   UNL     1     -38.403  24.796   5.076  0.00  0.00    +0.211 HD
ENDBRANCH   1   2
BRANCH   1   4
ATOM      4  C   UNL     1     -35.852  24.414   5.528  0.00  0.00    +0.168 C 
BRANCH   4   5
ATOM      5  O   UNL     1     -34.655  25.050   5.996  0.00  0.00    -0.379 OA
ATOM      6  H   UNL     1     -34.128  25.344   5.237  0.00  0.00    +0.211 HD
ENDBRANCH   4   5
BRANCH   4   7
ATOM      7  C   UNL     1     -35.482  23.074   4.868  0.00  0.00    +0.169 C 
BRANCH   7   8
ATOM      8  O   UNL     1     -36.650  22.452   4.329  0.00  0.00    -0.379 OA
ATOM      9  H   UNL     1     -36.981  21.790   4.956  0.00  0.00    +0.211 HD
ENDBRANCH   7   8
BRANCH   7  10
ATOM     10  C   UNL     1     -34.863  22.096   5.866  0.00  0.00    +0.169 C 
BRANCH  10  11
ATOM     11  O   UNL     1     -35.368  20.790   5.604  0.00  0.00    -0.379 OA
ATOM     12  H   UNL     1     -36.328  20.835   5.468  0.00  0.00    +0.211 HD
ENDBRANCH  10  11
ENDBRANCH   7  10
ENDBRANCH   4   7
ENDBRANCH   1   4
BRANCH   1  13
ATOM     13  CA  UNL     1     -35.847  25.779   3.319  0.00  0.00    +0.168 C 
BRANCH  13  15
ATOM     14  O   UNL     1     -33.047  25.845   3.626  0.00  0.00    -0.251 OA
ATOM     15  N   UNL     1     -35.042  26.970   3.422  0.00  0.00    -0.280 N 
ATOM     16  N   UNL     1     -33.010  28.162   3.659  0.00  0.00    -0.162 N 
ATOM     17  C   UNL     1     -33.657  26.918   3.574  0.00  0.00    +0.321 C 
ATOM     18  C   UNL     1     -31.565  28.257   3.817  0.00  0.00    +0.140 C 
ATOM     19  H   UNL     1     -35.484  27.849   3.385  0.00  0.00    +0.151 HD
BRANCH  16  21
ATOM     20  O   UNL     1     -33.371  30.321   4.318  0.00  0.00    -0.078 OA
ATOM     21  N   UNL     1     -33.802  29.424   3.585  0.00  0.00    +0.054 NA
ENDBRANCH  16  21
ENDBRANCH  13  15
BRANCH  13  23
ATOM     22  O   UNL     1     -37.638  26.919   2.156  0.00  0.00    -0.286 OA
ATOM     23  C   UNL     1     -36.817  26.005   2.175  0.00  0.00    +0.229 C 
ENDBRANCH  13  23
ENDBRANCH   1  13
TORSDOF 11
ENDMDL
MODEL 5
REMARK VINA RESULT:      -5.1      3.043      4.719
REMARK  Name = 5299
REMARK  11 active torsions:
REMARK  status: ('A' for Active; 'I' for Inactive)
REMARK    1  A    between atoms: C_1  and  O_2
REMARK    2  A    between atoms: C_1  and  C_4
REMARK    3  A    between atoms: C_1  and  CA_13
REMARK    4  A    between atoms: C_4  and  O_5
REMARK    5  A    between atoms: C_4  and  C_7
REMARK    6  A    between atoms: C_7  and  O_8
REMARK    7  A    between atoms: C_7  and  C_10
REMARK    8  A    between atoms: C_10  and  O_11
REMARK    9  A    between atoms: CA_13  and  N_15
REMARK   10  A    between atoms: CA_13  and  C_23
REMARK   11  A    between atoms: N_16  and  N_21
REMARK                            x       y       z     vdW  Elec       q    Type
REMARK                         _______ _______ _______ _____ _____    ______ ____
ROOT
ATOM      1  C   UNL     1     -35.719  24.319   3.138  0.00  0.00    +0.165 C 
ENDROOT
BRANCH   1   2
ATOM      2  O   UNL     1     -34.340  24.639   2.909  0.00  0.00    -0.380 OA
ATOM      3  H   UNL     1     -34.049  24.239   2.075  0.00  0.00    +0.211 HD
ENDBRANCH   1   2
BRANCH   1   4
ATOM      4  C   UNL     1     -35.770  23.056   4.021  0.00  0.00    +0.168 C 
BRANCH   4   5
ATOM      5  O   UNL     1     -37.060  22.459   3.834  0.00  0.00    -0.379 OA
ATOM      6  H   UNL     1     -37.748  23.126   3.981  0.00  0.00    +0.211 HD
ENDBRANCH   4   5
BRANCH   4   7
ATOM      7  C   UNL     1     -35.537  23.287   5.525  0.00  0.00    +0.169 C 
BRANCH   7   8
ATOM      8  O   UNL     1     -34.289  23.949   5.734  0.00  0.00    -0.379 OA
ATOM      9  H   UNL     1     -34.384  24.891   5.525  0.00  0.00    +0.211 HD
ENDBRANCH   7   8
BRANCH   7  10
ATOM     10  C   UNL     1     -35.495  21.975   6.306  0.00  0.00    +0.169 C 
BRANCH  10  11
ATOM     11  O   UNL     1     -35.207  20.911   5.404  0.00  0.00    -0.379 OA
ATOM     12  H   UNL     1     -35.543  20.077   5.769  0.00  0.00    +0.211 HD
ENDBRANCH  10  11
ENDBRANCH   7  10
ENDBRANCH   4   7
ENDBRANCH   1   4
BRANCH   1  13
ATOM     13  CA  UNL     1     -36.407  25.557   3.730  0.00  0.00    +0.168 C 
BRANCH  13  15
ATOM     14  O   UNL     1     -39.058  24.602   3.745  0.00  0.00    -0.251 OA
ATOM     15  N   UNL     1     -37.484  26.057   2.913  0.00  0.00    -0.280 N 
ATOM     16  N   UNL     1     -39.715  26.122   2.123  0.00  0.00    -0.162 N 
ATOM     17  C   UNL     1     -38.773  25.529   2.979  0.00  0.00    +0.321 C 
ATOM     18  C   UNL     1     -41.100  25.671   2.089  0.00  0.00    +0.140 C 
ATOM     19  H   UNL     1     -37.304  26.796   2.287  0.00  0.00    +0.151 HD
BRANCH  16  21
ATOM     20  O   UNL     1     -38.625  26.878   0.261  0.00  0.00    -0.078 OA
ATOM     21  N   UNL     1     -39.310  27.241   1.224  0.00  0.00    +0.054 NA
ENDBRANCH  16  21
ENDBRANCH  13  15
BRANCH  13  23
ATOM     22  O   UNL     1     -34.722  26.831   4.912  0.00  0.00    -0.286 OA
ATOM     23  C   UNL     1     -35.431  26.703   3.917  0.00  0.00    +0.229 C 
ENDBRANCH  13  23
ENDBRANCH   1  13
TORSDOF 11
ENDMDL
MODEL 6
REMARK VINA RESULT:      -5.0      2.944      5.619
REMARK  Name = 5299
REMARK  11 active torsions:
REMARK  status: ('A' for Active; 'I' for Inactive)
REMARK    1  A    between atoms: C_1  and  O_2
REMARK    2  A    between atoms: C_1  and  C_4
REMARK    3  A    between atoms: C_1  and  CA_13
REMARK    4  A    between atoms: C_4  and  O_5
REMARK    5  A    between atoms: C_4  and  C_7
REMARK    6  A    between atoms: C_7  and  O_8
REMARK    7  A    between atoms: C_7  and  C_10
REMARK    8  A    between atoms: C_10  and  O_11
REMARK    9  A    between atoms: CA_13  and  N_15
REMARK   10  A    between atoms: CA_13  and  C_23
REMARK   11  A    between atoms: N_16  and  N_21
REMARK                            x       y       z     vdW  Elec       q    Type
REMARK                         _______ _______ _______ _____ _____    ______ ____
ROOT
ATOM      1  C   UNL     1     -36.087  22.902   4.748  0.00  0.00    +0.165 C 
ENDROOT
BRANCH   1   2
ATOM      2  O   UNL     1     -34.946  22.187   5.241  0.00  0.00    -0.380 OA
ATOM      3  H   UNL     1     -35.143  21.237   5.261  0.00  0.00    +0.211 HD
ENDBRANCH   1   2
BRANCH   1   4
ATOM      4  C   UNL     1     -35.910  24.387   5.121  0.00  0.00    +0.168 C 
BRANCH   4   5
ATOM      5  O   UNL     1     -37.170  25.034   4.898  0.00  0.00    -0.379 OA
ATOM      6  H   UNL     1     -37.029  25.847   4.388  0.00  0.00    +0.211 HD
ENDBRANCH   4   5
BRANCH   4   7
ATOM      7  C   UNL     1     -34.815  25.141   4.346  0.00  0.00    +0.169 C 
BRANCH   7   8
ATOM      8  O   UNL     1     -33.536  24.561   4.611  0.00  0.00    -0.379 OA
ATOM      9  H   UNL     1     -33.615  23.924   5.338  0.00  0.00    +0.211 HD
ENDBRANCH   7   8
BRANCH   7  10
ATOM     10  C   UNL     1     -34.740  26.614   4.748  0.00  0.00    +0.169 C 
BRANCH  10  11
ATOM     11  O   UNL     1     -35.706  27.345   3.999  0.00  0.00    -0.379 OA
ATOM     12  H   UNL     1     -36.543  27.371   4.489  0.00  0.00    +0.211 HD
ENDBRANCH  10  11
ENDBRANCH   7  10
ENDBRANCH   4   7
ENDBRANCH   1   4
BRANCH   1  13
ATOM     13  CA  UNL     1     -36.218  22.618   3.246  0.00  0.00    +0.168 C 
BRANCH  13  15
ATOM     14  O   UNL     1     -37.948  24.504   2.068  0.00  0.00    -0.251 OA
ATOM     15  N   UNL     1     -37.574  22.367   2.828  0.00  0.00    -0.280 N 
ATOM     16  N   UNL     1     -39.668  22.961   1.894  0.00  0.00    -0.162 N 
ATOM     17  C   UNL     1     -38.369  23.357   2.251  0.00  0.00    +0.321 C 
ATOM     18  C   UNL     1     -40.604  23.893   1.281  0.00  0.00    +0.140 C 
ATOM     19  H   UNL     1     -37.953  21.467   2.954  0.00  0.00    +0.151 HD
BRANCH  16  21
ATOM     20  O   UNL     1     -40.520  20.986   1.120  0.00  0.00    -0.078 OA
ATOM     21  N   UNL     1     -40.116  21.559   2.138  0.00  0.00    +0.054 NA
ENDBRANCH  16  21
ENDBRANCH  13  15
BRANCH  13  23
ATOM     22  O   UNL     1     -35.774  20.250   3.007  0.00  0.00    -0.286 OA
ATOM     23  C   UNL     1     -35.402  21.408   2.832  0.00  0.00    +0.229 C 
ENDBRANCH  13  23
ENDBRANCH   1  13
TORSDOF 11
ENDMDL
MODEL 7
REMARK VINA RESULT:      -5.0      2.693      6.023
REMARK  Name = 5299
REMARK  11 active torsions:
REMARK  status: ('A' for Active; 'I' for Inactive)
REMARK    1  A    between atoms: C_1  and  O_2
REMARK    2  A    between atoms: C_1  and  C_4
REMARK    3  A    between atoms: C_1  and  CA_13
REMARK    4  A    between atoms: C_4  and  O_5
REMARK    5  A    between atoms: C_4  and  C_7
REMARK    6  A    between atoms: C_7  and  O_8
REMARK    7  A    between atoms: C_7  and  C_10
REMARK    8  A    between atoms: C_10  and  O_11
REMARK    9  A    between atoms: CA_13  and  N_15
REMARK   10  A    between atoms: CA_13  and  C_23
REMARK   11  A    between atoms: N_16  and  N_21
REMARK                            x       y       z     vdW  Elec       q    Type
REMARK                         _______ _______ _______ _____ _____    ______ ____
ROOT
ATOM      1  C   UNL     1     -36.574  24.817   3.986  0.00  0.00    +0.165 C 
ENDROOT
BRANCH   1   2
ATOM      2  O   UNL     1     -37.965  24.982   4.297  0.00  0.00    -0.380 OA
ATOM      3  H   UNL     1     -38.094  25.821   4.765  0.00  0.00    +0.211 HD
ENDBRANCH   1   2
BRANCH   1   4
ATOM      4  C   UNL     1     -35.757  25.416   5.148  0.00  0.00    +0.168 C 
BRANCH   4   5
ATOM      5  O   UNL     1     -36.540  26.476   5.715  0.00  0.00    -0.379 OA
ATOM      6  H   UNL     1     -37.383  26.118   6.036  0.00  0.00    +0.211 HD
ENDBRANCH   4   5
BRANCH   4   7
ATOM      7  C   UNL     1     -34.369  25.964   4.771  0.00  0.00    +0.169 C 
BRANCH   7   8
ATOM      8  O   UNL     1     -33.867  26.795   5.820  0.00  0.00    -0.379 OA
ATOM      9  H   UNL     1     -33.086  26.378   6.216  0.00  0.00    +0.211 HD
ENDBRANCH   7   8
BRANCH   7  10
ATOM     10  C   UNL     1     -34.413  26.810   3.500  0.00  0.00    +0.169 C 
BRANCH  10  11
ATOM     11  O   UNL     1     -35.133  28.009   3.769  0.00  0.00    -0.379 OA
ATOM     12  H   UNL     1     -34.577  28.775   3.555  0.00  0.00    +0.211 HD
ENDBRANCH  10  11
ENDBRANCH   7  10
ENDBRANCH   4   7
ENDBRANCH   1   4
BRANCH   1  13
ATOM     13  CA  UNL     1     -36.318  23.330   3.708  0.00  0.00    +0.168 C 
BRANCH  13  15
ATOM     14  O   UNL     1     -36.260  21.814   1.333  0.00  0.00    -0.251 OA
ATOM     15  N   UNL     1     -37.446  22.657   3.114  0.00  0.00    -0.280 N 
ATOM     16  N   UNL     1     -38.521  21.324   1.479  0.00  0.00    -0.162 N 
ATOM     17  C   UNL     1     -37.335  21.924   1.933  0.00  0.00    +0.321 C 
ATOM     18  C   UNL     1     -38.549  20.528   0.259  0.00  0.00    +0.140 C 
ATOM     19  H   UNL     1     -38.323  22.716   3.556  0.00  0.00    +0.151 HD
BRANCH  16  21
ATOM     20  O   UNL     1     -40.309  22.602   2.108  0.00  0.00    -0.078 OA
ATOM     21  N   UNL     1     -39.787  21.491   2.249  0.00  0.00    +0.054 NA
ENDBRANCH  16  21
ENDBRANCH  13  15
BRANCH  13  23
ATOM     22  O   UNL     1     -35.224  21.604   5.005  0.00  0.00    -0.286 OA
ATOM     23  C   UNL     1     -35.977  22.574   4.978  0.00  0.00    +0.229 C 
ENDBRANCH  13  23
ENDBRANCH   1  13
TORSDOF 11
ENDMDL
MODEL 8
REMARK VINA RESULT:      -5.0      2.420      3.840
REMARK  Name = 5299
REMARK  11 active torsions:
REMARK  status: ('A' for Active; 'I' for Inactive)
REMARK    1  A    between atoms: C_1  and  O_2
REMARK    2  A    between atoms: C_1  and  C_4
REMARK    3  A    between atoms: C_1  and  CA_13
REMARK    4  A    between atoms: C_4  and  O_5
REMARK    5  A    between atoms: C_4  and  C_7
REMARK    6  A    between atoms: C_7  and  O_8
REMARK    7  A    between atoms: C_7  and  C_10
REMARK    8  A    between atoms: C_10  and  O_11
REMARK    9  A    between atoms: CA_13  and  N_15
REMARK   10  A    between atoms: CA_13  and  C_23
REMARK   11  A    between atoms: N_16  and  N_21
REMARK                            x       y       z     vdW  Elec       q    Type
REMARK                         _______ _______ _______ _____ _____    ______ ____
ROOT
ATOM      1  C   UNL     1     -38.855  21.292   1.857  0.00  0.00    +0.165 C 
ENDROOT
BRANCH   1   2
ATOM      2  O   UNL     1     -40.212  21.262   1.394  0.00  0.00    -0.380 OA
ATOM      3  H   UNL     1     -40.229  21.393   0.433  0.00  0.00    +0.211 HD
ENDBRANCH   1   2
BRANCH   1   4
ATOM      4  C   UNL     1     -37.971  20.655   0.767  0.00  0.00    +0.168 C 
BRANCH   4   5
ATOM      5  O   UNL     1     -38.763  19.660   0.105  0.00  0.00    -0.379 OA
ATOM      6  H   UNL     1     -38.674  19.764  -0.856  0.00  0.00    +0.211 HD
ENDBRANCH   4   5
BRANCH   4   7
ATOM      7  C   UNL     1     -36.665  20.008   1.263  0.00  0.00    +0.169 C 
BRANCH   7   8
ATOM      8  O   UNL     1     -36.696  19.868   2.684  0.00  0.00    -0.379 OA
ATOM      9  H   UNL     1     -35.900  19.397   2.979  0.00  0.00    +0.211 HD
ENDBRANCH   7   8
BRANCH   7  10
ATOM     10  C   UNL     1     -35.440  20.851   0.913  0.00  0.00    +0.169 C 
BRANCH  10  11
ATOM     11  O   UNL     1     -35.029  21.570   2.072  0.00  0.00    -0.379 OA
ATOM     12  H   UNL     1     -35.783  22.066   2.429  0.00  0.00    +0.211 HD
ENDBRANCH  10  11
ENDBRANCH   7  10
ENDBRANCH   4   7
ENDBRANCH   1   4
BRANCH   1  13
ATOM     13  CA  UNL     1     -38.503  22.741   2.219  0.00  0.00    +0.168 C 
BRANCH  13  15
ATOM     14  O   UNL     1     -36.967  25.009   2.878  0.00  0.00    -0.251 OA
ATOM     15  N   UNL     1     -37.601  22.848   3.338  0.00  0.00    -0.280 N 
ATOM     16  N   UNL     1     -36.038  23.962   4.725  0.00  0.00    -0.162 N 
ATOM     17  C   UNL     1     -36.874  24.009   3.597  0.00  0.00    +0.321 C 
ATOM     18  C   UNL     1     -35.223  25.105   5.114  0.00  0.00    +0.140 C 
ATOM     19  H   UNL     1     -37.494  22.075   3.940  0.00  0.00    +0.151 HD
BRANCH  16  21
ATOM     20  O   UNL     1     -35.489  21.755   4.963  0.00  0.00    -0.078 OA
ATOM     21  N   UNL     1     -35.973  22.725   5.556  0.00  0.00    +0.054 NA
ENDBRANCH  16  21
ENDBRANCH  13  15
BRANCH  13  23
ATOM     22  O   UNL     1     -40.448  24.100   1.741  0.00  0.00    -0.286 OA
ATOM     23  C   UNL     1     -39.740  23.544   2.576  0.00  0.00    +0.229 C 
ENDBRANCH  13  23
ENDBRANCH   1  13
TORSDOF 11
ENDMDL
MODEL 9
REMARK VINA RESULT:      -5.0      2.426      3.896
REMARK  Name = 5299
REMARK  11 active torsions:
REMARK  status: ('A' for Active; 'I' for Inactive)
REMARK    1  A    between atoms: C_1  and  O_2
REMARK    2  A    between atoms: C_1  and  C_4
REMARK    3  A    between atoms: C_1  and  CA_13
REMARK    4  A    between atoms: C_4  and  O_5
REMARK    5  A    between atoms: C_4  and  C_7
REMARK    6  A    between atoms: C_7  and  O_8
REMARK    7  A    between atoms: C_7  and  C_10
REMARK    8  A    between atoms: C_10  and  O_11
REMARK    9  A    between atoms: CA_13  and  N_15
REMARK   10  A    between atoms: CA_13  and  C_23
REMARK   11  A    between atoms: N_16  and  N_21
REMARK                            x       y       z     vdW  Elec       q    Type
REMARK                         _______ _______ _______ _____ _____    ______ ____
ROOT
ATOM      1  C   UNL     1     -36.735  24.020   3.361  0.00  0.00    +0.165 C 
ENDROOT
BRANCH   1   2
ATOM      2  O   UNL     1     -37.445  22.852   3.795  0.00  0.00    -0.380 OA
ATOM      3  H   UNL     1     -38.215  23.119   4.322  0.00  0.00    +0.211 HD
ENDBRANCH   1   2
BRANCH   1   4
ATOM      4  C   UNL     1     -37.774  25.119   3.059  0.00  0.00    +0.168 C 
BRANCH   4   5
ATOM      5  O   UNL     1     -37.598  26.150   4.041  0.00  0.00    -0.379 OA
ATOM      6  H   UNL     1     -38.466  26.437   4.365  0.00  0.00    +0.211 HD
ENDBRANCH   4   5
BRANCH   4   7
ATOM      7  C   UNL     1     -39.244  24.664   3.068  0.00  0.00    +0.169 C 
BRANCH   7   8
ATOM      8  O   UNL     1     -39.436  23.603   2.130  0.00  0.00    -0.379 OA
ATOM      9  H   UNL     1     -39.544  22.766   2.608  0.00  0.00    +0.211 HD
ENDBRANCH   7   8
BRANCH   7  10
ATOM     10  C   UNL     1     -40.195  25.795   2.680  0.00  0.00    +0.169 C 
BRANCH  10  11
ATOM     11  O   UNL     1     -40.432  26.610   3.824  0.00  0.00    -0.379 OA
ATOM     12  H   UNL     1     -41.168  27.216   3.642  0.00  0.00    +0.211 HD
ENDBRANCH  10  11
ENDBRANCH   7  10
ENDBRANCH   4   7
ENDBRANCH   1   4
BRANCH   1  13
ATOM     13  CA  UNL     1     -35.699  24.378   4.435  0.00  0.00    +0.168 C 
BRANCH  13  15
ATOM     14  O   UNL     1     -34.848  27.029   4.868  0.00  0.00    -0.251 OA
ATOM     15  N   UNL     1     -34.501  24.973   3.898  0.00  0.00    -0.280 N 
ATOM     16  N   UNL     1     -32.952  26.733   3.568  0.00  0.00    -0.162 N 
ATOM     17  C   UNL     1     -34.149  26.297   4.160  0.00  0.00    +0.321 C 
ATOM     18  C   UNL     1     -32.462  28.092   3.759  0.00  0.00    +0.140 C 
ATOM     19  H   UNL     1     -33.913  24.428   3.327  0.00  0.00    +0.151 HD
BRANCH  16  21
ATOM     20  O   UNL     1     -30.950  26.090   2.671  0.00  0.00    -0.078 OA
ATOM     21  N   UNL     1     -32.150  25.800   2.725  0.00  0.00    +0.054 NA
ENDBRANCH  16  21
ENDBRANCH  13  15
BRANCH  13  23
ATOM     22  O   UNL     1     -35.943  22.652   6.114  0.00  0.00    -0.286 OA
ATOM     23  C   UNL     1     -35.266  23.156   5.222  0.00  0.00    +0.229 C 
ENDBRANCH  13  23
ENDBRANCH   1  13
TORSDOF 11
ENDMDL
