MODEL 1
REMARK VINA RESULT:      -6.2      0.000      0.000
REMARK  Name = 21579193
REMARK  7 active torsions:
REMARK  status: ('A' for Active; 'I' for Inactive)
REMARK    1  A    between atoms: C_5  and  C_12
REMARK    2  A    between atoms: C_6  and  O_20
REMARK    3  A    between atoms: C_8  and  O_22
REMARK    4  A    between atoms: C_9  and  O_24
REMARK    5  A    between atoms: C_10  and  O_26
REMARK    6  A    between atoms: C_11  and  O_28
REMARK    7  A    between atoms: C_17  and  O_18
REMARK                            x       y       z     vdW  Elec       q    Type
REMARK                         _______ _______ _______ _____ _____    ______ ____
ROOT
ATOM      1  O   UNL     1     -35.279  22.214   2.166  0.00  0.00    -0.447 OA
ATOM      2  O   UNL     1     -38.951  20.910   0.979  0.00  0.00    -0.283 OA
ATOM      3  C   UNL     1     -37.687  22.502   2.170  0.00  0.00    +0.116 A 
ATOM      4  C   UNL     1     -36.405  22.896   2.544  0.00  0.00    +0.188 A 
ATOM      5  C   UNL     1     -35.423  21.088   1.370  0.00  0.00    +0.182 A 
ATOM      6  C   UNL     1     -36.604  20.594   0.947  0.00  0.00    +0.212 A 
ATOM      7  C   UNL     1     -37.847  21.303   1.334  0.00  0.00    +0.238 A 
ATOM      8  C   UNL     1     -38.800  23.238   2.585  0.00  0.00    +0.177 A 
ATOM      9  C   UNL     1     -36.227  24.030   3.337  0.00  0.00    +0.206 A 
ATOM     10  C   UNL     1     -38.620  24.371   3.379  0.00  0.00    +0.205 A 
ATOM     11  C   UNL     1     -37.336  24.767   3.754  0.00  0.00    +0.208 A 
ENDROOT
BRANCH   5  12
ATOM     12  C   UNL     1     -34.128  20.472   1.037  0.00  0.00    +0.038 C 
ATOM     13  C   UNL     1     -33.789  19.229   1.572  0.00  0.00    +0.006 C 
ATOM     14  C   UNL     1     -33.240  21.132   0.187  0.00  0.00    +0.006 C 
ATOM     15  C   UNL     1     -32.562  18.645   1.257  0.00  0.00    +0.037 C 
ATOM     16  C   UNL     1     -32.012  20.548  -0.128  0.00  0.00    +0.037 C 
ATOM     17  C   UNL     1     -31.674  19.305   0.407  0.00  0.00    +0.134 C 
BRANCH  17  18
ATOM     18  O   UNL     1     -30.476  18.736   0.099  0.00  0.00    -0.506 OA
ATOM     19  H   UNL     1     -29.900  19.156  -0.509  0.00  0.00    +0.292 HD
ENDBRANCH  17  18
ENDBRANCH   5  12
BRANCH   6  20
ATOM     20  O   UNL     1     -36.767  19.460   0.181  0.00  0.00    -0.465 OA
ATOM     21  C   UNL     1     -36.690  19.767  -1.197  0.00  0.00    +0.253 C 
ENDBRANCH   6  20
BRANCH   8  22
ATOM     22  O   UNL     1     -40.071  22.884   2.240  0.00  0.00    -0.503 OA
ATOM     23  H   UNL     1     -40.378  23.033   1.368  0.00  0.00    +0.292 HD
ENDBRANCH   8  22
BRANCH   9  24
ATOM     24  O   UNL     1     -34.974  24.420   3.707  0.00  0.00    -0.501 OA
ATOM     25  H   UNL     1     -34.415  23.825   4.169  0.00  0.00    +0.292 HD
ENDBRANCH   9  24
BRANCH  10  26
ATOM     26  O   UNL     1     -39.700  25.096   3.790  0.00  0.00    -0.501 OA
ATOM     27  H   UNL     1     -40.274  24.750   4.445  0.00  0.00    +0.292 HD
ENDBRANCH  10  26
BRANCH  11  28
ATOM     28  O   UNL     1     -37.164  25.875   4.530  0.00  0.00    -0.501 OA
ATOM     29  H   UNL     1     -36.436  25.928   5.117  0.00  0.00    +0.292 HD
ENDBRANCH  11  28
TORSDOF 7
ENDMDL
MODEL 2
REMARK VINA RESULT:      -6.0      1.305      2.177
REMARK  Name = 21579193
REMARK  7 active torsions:
REMARK  status: ('A' for Active; 'I' for Inactive)
REMARK    1  A    between atoms: C_5  and  C_12
REMARK    2  A    between atoms: C_6  and  O_20
REMARK    3  A    between atoms: C_8  and  O_22
REMARK    4  A    between atoms: C_9  and  O_24
REMARK    5  A    between atoms: C_10  and  O_26
REMARK    6  A    between atoms: C_11  and  O_28
REMARK    7  A    between atoms: C_17  and  O_18
REMARK                            x       y       z     vdW  Elec       q    Type
REMARK                         _______ _______ _______ _____ _____    ______ ____
ROOT
ATOM      1  O   UNL     1     -34.955  20.829   1.603  0.00  0.00    -0.447 OA
ATOM      2  O   UNL     1     -38.033  18.970  -0.313  0.00  0.00    -0.283 OA
ATOM      3  C   UNL     1     -37.332  20.688   1.139  0.00  0.00    +0.116 A 
ATOM      4  C   UNL     1     -36.239  21.279   1.767  0.00  0.00    +0.188 A 
ATOM      5  C   UNL     1     -34.736  19.743   0.769  0.00  0.00    +0.182 A 
ATOM      6  C   UNL     1     -35.704  19.075   0.110  0.00  0.00    +0.212 A 
ATOM      7  C   UNL     1     -37.107  19.530   0.262  0.00  0.00    +0.238 A 
ATOM      8  C   UNL     1     -38.620  21.191   1.344  0.00  0.00    +0.177 A 
ATOM      9  C   UNL     1     -36.425  22.378   2.606  0.00  0.00    +0.206 A 
ATOM     10  C   UNL     1     -38.804  22.290   2.184  0.00  0.00    +0.205 A 
ATOM     11  C   UNL     1     -37.710  22.883   2.813  0.00  0.00    +0.208 A 
ENDROOT
BRANCH   5  12
ATOM     12  C   UNL     1     -33.311  19.385   0.683  0.00  0.00    +0.038 C 
ATOM     13  C   UNL     1     -32.429  20.197  -0.030  0.00  0.00    +0.006 C 
ATOM     14  C   UNL     1     -32.843  18.233   1.316  0.00  0.00    +0.006 C 
ATOM     15  C   UNL     1     -31.079  19.857  -0.111  0.00  0.00    +0.037 C 
ATOM     16  C   UNL     1     -31.492  17.893   1.234  0.00  0.00    +0.037 C 
ATOM     17  C   UNL     1     -30.611  18.705   0.521  0.00  0.00    +0.134 C 
BRANCH  17  18
ATOM     18  O   UNL     1     -29.293  18.373   0.441  0.00  0.00    -0.506 OA
ATOM     19  H   UNL     1     -28.681  18.735   1.051  0.00  0.00    +0.292 HD
ENDBRANCH  17  18
ENDBRANCH   5  12
BRANCH   6  20
ATOM     20  O   UNL     1     -35.508  17.976  -0.698  0.00  0.00    -0.465 OA
ATOM     21  C   UNL     1     -35.234  18.372  -2.028  0.00  0.00    +0.253 C 
ENDBRANCH   6  20
BRANCH   8  22
ATOM     22  O   UNL     1     -39.715  20.639   0.748  0.00  0.00    -0.503 OA
ATOM     23  H   UNL     1     -40.409  20.293   1.272  0.00  0.00    +0.292 HD
ENDBRANCH   8  22
BRANCH   9  24
ATOM     24  O   UNL     1     -35.359  22.960   3.225  0.00  0.00    -0.501 OA
ATOM     25  H   UNL     1     -35.471  23.761   3.699  0.00  0.00    +0.292 HD
ENDBRANCH   9  24
BRANCH  10  26
ATOM     26  O   UNL     1     -40.057  22.788   2.391  0.00  0.00    -0.501 OA
ATOM     27  H   UNL     1     -40.558  23.112   1.669  0.00  0.00    +0.292 HD
ENDBRANCH  10  26
BRANCH  11  28
ATOM     28  O   UNL     1     -37.894  23.957   3.633  0.00  0.00    -0.501 OA
ATOM     29  H   UNL     1     -38.667  24.481   3.551  0.00  0.00    +0.292 HD
ENDBRANCH  11  28
TORSDOF 7
ENDMDL
MODEL 3
REMARK VINA RESULT:      -6.0      3.944      6.112
REMARK  Name = 21579193
REMARK  7 active torsions:
REMARK  status: ('A' for Active; 'I' for Inactive)
REMARK    1  A    between atoms: C_5  and  C_12
REMARK    2  A    between atoms: C_6  and  O_20
REMARK    3  A    between atoms: C_8  and  O_22
REMARK    4  A    between atoms: C_9  and  O_24
REMARK    5  A    between atoms: C_10  and  O_26
REMARK    6  A    between atoms: C_11  and  O_28
REMARK    7  A    between atoms: C_17  and  O_18
REMARK                            x       y       z     vdW  Elec       q    Type
REMARK                         _______ _______ _______ _____ _____    ______ ____
ROOT
ATOM      1  O   UNL     1     -34.917  26.340   3.518  0.00  0.00    -0.447 OA
ATOM      2  O   UNL     1     -38.088  27.351   1.169  0.00  0.00    -0.283 OA
ATOM      3  C   UNL     1     -36.032  27.986   2.129  0.00  0.00    +0.116 A 
ATOM      4  C   UNL     1     -34.977  27.582   2.942  0.00  0.00    +0.188 A 
ATOM      5  C   UNL     1     -35.948  25.446   3.273  0.00  0.00    +0.182 A 
ATOM      6  C   UNL     1     -37.030  25.713   2.515  0.00  0.00    +0.212 A 
ATOM      7  C   UNL     1     -37.134  27.047   1.874  0.00  0.00    +0.238 A 
ATOM      8  C   UNL     1     -36.040  29.266   1.568  0.00  0.00    +0.177 A 
ATOM      9  C   UNL     1     -33.920  28.456   3.201  0.00  0.00    +0.206 A 
ATOM     10  C   UNL     1     -34.982  30.138   1.828  0.00  0.00    +0.205 A 
ATOM     11  C   UNL     1     -33.924  29.734   2.642  0.00  0.00    +0.208 A 
ENDROOT
BRANCH   5  12
ATOM     12  C   UNL     1     -35.737  24.155   3.946  0.00  0.00    +0.038 C 
ATOM     13  C   UNL     1     -35.655  24.099   5.338  0.00  0.00    +0.006 C 
ATOM     14  C   UNL     1     -35.620  22.987   3.193  0.00  0.00    +0.006 C 
ATOM     15  C   UNL     1     -35.455  22.875   5.977  0.00  0.00    +0.037 C 
ATOM     16  C   UNL     1     -35.420  21.762   3.832  0.00  0.00    +0.037 C 
ATOM     17  C   UNL     1     -35.337  21.707   5.223  0.00  0.00    +0.134 C 
BRANCH  17  18
ATOM     18  O   UNL     1     -35.142  20.512   5.846  0.00  0.00    -0.506 OA
ATOM     19  H   UNL     1     -35.830  19.876   5.866  0.00  0.00    +0.292 HD
ENDBRANCH  17  18
ENDBRANCH   5  12
BRANCH   6  20
ATOM     20  O   UNL     1     -38.078  24.849   2.286  0.00  0.00    -0.465 OA
ATOM     21  C   UNL     1     -39.054  24.959   3.303  0.00  0.00    +0.253 C 
ENDBRANCH   6  20
BRANCH   8  22
ATOM     22  O   UNL     1     -37.055  29.699   0.767  0.00  0.00    -0.503 OA
ATOM     23  H   UNL     1     -36.872  29.995  -0.103  0.00  0.00    +0.292 HD
ENDBRANCH   8  22
BRANCH   9  24
ATOM     24  O   UNL     1     -32.884  28.065   3.997  0.00  0.00    -0.501 OA
ATOM     25  H   UNL     1     -32.178  27.566   3.636  0.00  0.00    +0.292 HD
ENDBRANCH   9  24
BRANCH  10  26
ATOM     26  O   UNL     1     -34.980  31.390   1.286  0.00  0.00    -0.501 OA
ATOM     27  H   UNL     1     -35.584  31.606   0.603  0.00  0.00    +0.292 HD
ENDBRANCH  10  26
BRANCH  11  28
ATOM     28  O   UNL     1     -32.892  30.590   2.894  0.00  0.00    -0.501 OA
ATOM     29  H   UNL     1     -33.003  31.510   2.759  0.00  0.00    +0.292 HD
ENDBRANCH  11  28
TORSDOF 7
ENDMDL
MODEL 4
REMARK VINA RESULT:      -6.0      2.174      5.847
REMARK  Name = 21579193
REMARK  7 active torsions:
REMARK  status: ('A' for Active; 'I' for Inactive)
REMARK    1  A    between atoms: C_5  and  C_12
REMARK    2  A    between atoms: C_6  and  O_20
REMARK    3  A    between atoms: C_8  and  O_22
REMARK    4  A    between atoms: C_9  and  O_24
REMARK    5  A    between atoms: C_10  and  O_26
REMARK    6  A    between atoms: C_11  and  O_28
REMARK    7  A    between atoms: C_17  and  O_18
REMARK                            x       y       z     vdW  Elec       q    Type
REMARK                         _______ _______ _______ _____ _____    ______ ____
ROOT
ATOM      1  O   UNL     1     -35.853  22.491   2.637  0.00  0.00    -0.447 OA
ATOM      2  O   UNL     1     -39.881  22.835   2.138  0.00  0.00    -0.283 OA
ATOM      3  C   UNL     1     -37.915  21.607   1.717  0.00  0.00    +0.116 A 
ATOM      4  C   UNL     1     -36.539  21.546   1.922  0.00  0.00    +0.188 A 
ATOM      5  C   UNL     1     -36.561  23.548   3.188  0.00  0.00    +0.182 A 
ATOM      6  C   UNL     1     -37.890  23.731   3.058  0.00  0.00    +0.212 A 
ATOM      7  C   UNL     1     -38.670  22.731   2.290  0.00  0.00    +0.238 A 
ATOM      8  C   UNL     1     -38.563  20.613   0.977  0.00  0.00    +0.177 A 
ATOM      9  C   UNL     1     -35.799  20.490   1.387  0.00  0.00    +0.206 A 
ATOM     10  C   UNL     1     -37.821  19.558   0.444  0.00  0.00    +0.205 A 
ATOM     11  C   UNL     1     -36.443  19.497   0.648  0.00  0.00    +0.208 A 
ENDROOT
BRANCH   5  12
ATOM     12  C   UNL     1     -35.692  24.471   3.936  0.00  0.00    +0.038 C 
ATOM     13  C   UNL     1     -35.858  24.624   5.313  0.00  0.00    +0.006 C 
ATOM     14  C   UNL     1     -34.703  25.193   3.268  0.00  0.00    +0.006 C 
ATOM     15  C   UNL     1     -35.035  25.499   6.022  0.00  0.00    +0.037 C 
ATOM     16  C   UNL     1     -33.880  26.069   3.977  0.00  0.00    +0.037 C 
ATOM     17  C   UNL     1     -34.046  26.221   5.354  0.00  0.00    +0.134 C 
BRANCH  17  18
ATOM     18  O   UNL     1     -33.243  27.076   6.045  0.00  0.00    -0.506 OA
ATOM     19  H   UNL     1     -32.497  27.459   5.627  0.00  0.00    +0.292 HD
ENDBRANCH  17  18
ENDBRANCH   5  12
BRANCH   6  20
ATOM     20  O   UNL     1     -38.604  24.791   3.572  0.00  0.00    -0.465 OA
ATOM     21  C   UNL     1     -38.587  25.890   2.682  0.00  0.00    +0.253 C 
ENDBRANCH   6  20
BRANCH   8  22
ATOM     22  O   UNL     1     -39.908  20.638   0.755  0.00  0.00    -0.503 OA
ATOM     23  H   UNL     1     -40.476  21.061   1.368  0.00  0.00    +0.292 HD
ENDBRANCH   8  22
BRANCH   9  24
ATOM     24  O   UNL     1     -34.452  20.427   1.584  0.00  0.00    -0.501 OA
ATOM     25  H   UNL     1     -33.980  21.192   1.847  0.00  0.00    +0.292 HD
ENDBRANCH   9  24
BRANCH  10  26
ATOM     26  O   UNL     1     -38.443  18.584  -0.280  0.00  0.00    -0.501 OA
ATOM     27  H   UNL     1     -37.962  17.833  -0.565  0.00  0.00    +0.292 HD
ENDBRANCH  10  26
BRANCH  11  28
ATOM     28  O   UNL     1     -35.722  18.464   0.125  0.00  0.00    -0.501 OA
ATOM     29  H   UNL     1     -35.566  18.421  -0.798  0.00  0.00    +0.292 HD
ENDBRANCH  11  28
TORSDOF 7
ENDMDL
MODEL 5
REMARK VINA RESULT:      -6.0      4.883      7.291
REMARK  Name = 21579193
REMARK  7 active torsions:
REMARK  status: ('A' for Active; 'I' for Inactive)
REMARK    1  A    between atoms: C_5  and  C_12
REMARK    2  A    between atoms: C_6  and  O_20
REMARK    3  A    between atoms: C_8  and  O_22
REMARK    4  A    between atoms: C_9  and  O_24
REMARK    5  A    between atoms: C_10  and  O_26
REMARK    6  A    between atoms: C_11  and  O_28
REMARK    7  A    between atoms: C_17  and  O_18
REMARK                            x       y       z     vdW  Elec       q    Type
REMARK                         _______ _______ _______ _____ _____    ______ ____
ROOT
ATOM      1  O   UNL     1     -33.407  26.297   4.893  0.00  0.00    -0.447 OA
ATOM      2  O   UNL     1     -34.147  29.048   1.982  0.00  0.00    -0.283 OA
ATOM      3  C   UNL     1     -33.122  28.550   4.044  0.00  0.00    +0.116 A 
ATOM      4  C   UNL     1     -32.906  27.567   5.005  0.00  0.00    +0.188 A 
ATOM      5  C   UNL     1     -34.155  25.976   3.770  0.00  0.00    +0.182 A 
ATOM      6  C   UNL     1     -34.447  26.835   2.773  0.00  0.00    +0.212 A 
ATOM      7  C   UNL     1     -33.923  28.220   2.856  0.00  0.00    +0.238 A 
ATOM      8  C   UNL     1     -32.585  29.830   4.211  0.00  0.00    +0.177 A 
ATOM      9  C   UNL     1     -32.150  27.855   6.142  0.00  0.00    +0.206 A 
ATOM     10  C   UNL     1     -31.830  30.116   5.349  0.00  0.00    +0.205 A 
ATOM     11  C   UNL     1     -31.613  29.131   6.312  0.00  0.00    +0.208 A 
ENDROOT
BRANCH   5  12
ATOM     12  C   UNL     1     -34.613  24.578   3.786  0.00  0.00    +0.038 C 
ATOM     13  C   UNL     1     -34.927  23.960   4.997  0.00  0.00    +0.006 C 
ATOM     14  C   UNL     1     -34.732  23.870   2.590  0.00  0.00    +0.006 C 
ATOM     15  C   UNL     1     -35.361  22.635   5.012  0.00  0.00    +0.037 C 
ATOM     16  C   UNL     1     -35.166  22.543   2.606  0.00  0.00    +0.037 C 
ATOM     17  C   UNL     1     -35.480  21.927   3.816  0.00  0.00    +0.134 C 
BRANCH  17  18
ATOM     18  O   UNL     1     -35.903  20.633   3.830  0.00  0.00    -0.506 OA
ATOM     19  H   UNL     1     -36.264  20.266   4.614  0.00  0.00    +0.292 HD
ENDBRANCH  17  18
ENDBRANCH   5  12
BRANCH   6  20
ATOM     20  O   UNL     1     -35.213  26.543   1.666  0.00  0.00    -0.465 OA
ATOM     21  C   UNL     1     -36.556  26.943   1.863  0.00  0.00    +0.253 C 
ENDBRANCH   6  20
BRANCH   8  22
ATOM     22  O   UNL     1     -32.775  30.820   3.293  0.00  0.00    -0.503 OA
ATOM     23  H   UNL     1     -32.354  31.649   3.404  0.00  0.00    +0.292 HD
ENDBRANCH   8  22
BRANCH   9  24
ATOM     24  O   UNL     1     -31.936  26.896   7.087  0.00  0.00    -0.501 OA
ATOM     25  H   UNL     1     -32.454  26.114   7.087  0.00  0.00    +0.292 HD
ENDBRANCH   9  24
BRANCH  10  26
ATOM     26  O   UNL     1     -31.302  31.362   5.522  0.00  0.00    -0.501 OA
ATOM     27  H   UNL     1     -30.402  31.461   5.761  0.00  0.00    +0.292 HD
ENDBRANCH  10  26
BRANCH  11  28
ATOM     28  O   UNL     1     -30.874  29.415   7.423  0.00  0.00    -0.501 OA
ATOM     29  H   UNL     1     -30.247  30.112   7.403  0.00  0.00    +0.292 HD
ENDBRANCH  11  28
TORSDOF 7
ENDMDL
MODEL 6
REMARK VINA RESULT:      -5.9      4.274      6.624
REMARK  Name = 21579193
REMARK  7 active torsions:
REMARK  status: ('A' for Active; 'I' for Inactive)
REMARK    1  A    between atoms: C_5  and  C_12
REMARK    2  A    between atoms: C_6  and  O_20
REMARK    3  A    between atoms: C_8  and  O_22
REMARK    4  A    between atoms: C_9  and  O_24
REMARK    5  A    between atoms: C_10  and  O_26
REMARK    6  A    between atoms: C_11  and  O_28
REMARK    7  A    between atoms: C_17  and  O_18
REMARK                            x       y       z     vdW  Elec       q    Type
REMARK                         _______ _______ _______ _____ _____    ______ ____
ROOT
ATOM      1  O   UNL     1     -34.172  26.432   3.900  0.00  0.00    -0.447 OA
ATOM      2  O   UNL     1     -36.985  28.035   1.428  0.00  0.00    -0.283 OA
ATOM      3  C   UNL     1     -34.939  28.306   2.565  0.00  0.00    +0.116 A 
ATOM      4  C   UNL     1     -34.015  27.703   3.414  0.00  0.00    +0.188 A 
ATOM      5  C   UNL     1     -35.295  25.713   3.522  0.00  0.00    +0.182 A 
ATOM      6  C   UNL     1     -36.270  26.180   2.716  0.00  0.00    +0.212 A 
ATOM      7  C   UNL     1     -36.138  27.552   2.170  0.00  0.00    +0.238 A 
ATOM      8  C   UNL     1     -34.727  29.607   2.101  0.00  0.00    +0.177 A 
ATOM      9  C   UNL     1     -32.869  28.397   3.805  0.00  0.00    +0.206 A 
ATOM     10  C   UNL     1     -33.581  30.299   2.493  0.00  0.00    +0.205 A 
ATOM     11  C   UNL     1     -32.654  29.696   3.343  0.00  0.00    +0.208 A 
ENDROOT
BRANCH   5  12
ATOM     12  C   UNL     1     -35.318  24.364   4.111  0.00  0.00    +0.038 C 
ATOM     13  C   UNL     1     -35.312  23.241   3.284  0.00  0.00    +0.006 C 
ATOM     14  C   UNL     1     -35.346  24.210   5.498  0.00  0.00    +0.006 C 
ATOM     15  C   UNL     1     -35.334  21.963   3.843  0.00  0.00    +0.037 C 
ATOM     16  C   UNL     1     -35.368  22.931   6.056  0.00  0.00    +0.037 C 
ATOM     17  C   UNL     1     -35.362  21.809   5.229  0.00  0.00    +0.134 C 
BRANCH  17  18
ATOM     18  O   UNL     1     -35.384  20.562   5.775  0.00  0.00    -0.506 OA
ATOM     19  H   UNL     1     -35.220  19.812   5.237  0.00  0.00    +0.292 HD
ENDBRANCH  17  18
ENDBRANCH   5  12
BRANCH   6  20
ATOM     20  O   UNL     1     -37.407  25.491   2.355  0.00  0.00    -0.465 OA
ATOM     21  C   UNL     1     -38.431  25.671   3.315  0.00  0.00    +0.253 C 
ENDBRANCH   6  20
BRANCH   8  22
ATOM     22  O   UNL     1     -35.608  30.231   1.269  0.00  0.00    -0.503 OA
ATOM     23  H   UNL     1     -36.215  29.726   0.764  0.00  0.00    +0.292 HD
ENDBRANCH   8  22
BRANCH   9  24
ATOM     24  O   UNL     1     -31.962  27.812   4.637  0.00  0.00    -0.501 OA
ATOM     25  H   UNL     1     -32.192  27.037   5.111  0.00  0.00    +0.292 HD
ENDBRANCH   9  24
BRANCH  10  26
ATOM     26  O   UNL     1     -33.364  31.570   2.046  0.00  0.00    -0.501 OA
ATOM     27  H   UNL     1     -33.335  32.282   2.654  0.00  0.00    +0.292 HD
ENDBRANCH  10  26
BRANCH  11  28
ATOM     28  O   UNL     1     -31.535  30.377   3.725  0.00  0.00    -0.501 OA
ATOM     29  H   UNL     1     -31.204  31.071   3.189  0.00  0.00    +0.292 HD
ENDBRANCH  11  28
TORSDOF 7
ENDMDL
MODEL 7
REMARK VINA RESULT:      -5.9      6.056      8.866
REMARK  Name = 21579193
REMARK  7 active torsions:
REMARK  status: ('A' for Active; 'I' for Inactive)
REMARK    1  A    between atoms: C_5  and  C_12
REMARK    2  A    between atoms: C_6  and  O_20
REMARK    3  A    between atoms: C_8  and  O_22
REMARK    4  A    between atoms: C_9  and  O_24
REMARK    5  A    between atoms: C_10  and  O_26
REMARK    6  A    between atoms: C_11  and  O_28
REMARK    7  A    between atoms: C_17  and  O_18
REMARK                            x       y       z     vdW  Elec       q    Type
REMARK                         _______ _______ _______ _____ _____    ______ ____
ROOT
ATOM      1  O   UNL     1     -32.479  27.352   5.132  0.00  0.00    -0.447 OA
ATOM      2  O   UNL     1     -33.210  30.436   2.573  0.00  0.00    -0.283 OA
ATOM      3  C   UNL     1     -31.854  29.533   4.275  0.00  0.00    +0.116 A 
ATOM      4  C   UNL     1     -31.658  28.449   5.126  0.00  0.00    +0.188 A 
ATOM      5  C   UNL     1     -33.545  27.318   4.247  0.00  0.00    +0.182 A 
ATOM      6  C   UNL     1     -33.852  28.303   3.379  0.00  0.00    +0.212 A 
ATOM      7  C   UNL     1     -32.989  29.508   3.341  0.00  0.00    +0.238 A 
ATOM      8  C   UNL     1     -30.984  30.626   4.313  0.00  0.00    +0.177 A 
ATOM      9  C   UNL     1     -30.589  28.449   6.023  0.00  0.00    +0.206 A 
ATOM     10  C   UNL     1     -29.915  30.624   5.211  0.00  0.00    +0.205 A 
ATOM     11  C   UNL     1     -29.718  29.538   6.064  0.00  0.00    +0.208 A 
ENDROOT
BRANCH   5  12
ATOM     12  C   UNL     1     -34.325  26.076   4.362  0.00  0.00    +0.038 C 
ATOM     13  C   UNL     1     -35.316  25.962   5.337  0.00  0.00    +0.006 C 
ATOM     14  C   UNL     1     -34.073  25.011   3.496  0.00  0.00    +0.006 C 
ATOM     15  C   UNL     1     -36.056  24.785   5.447  0.00  0.00    +0.037 C 
ATOM     16  C   UNL     1     -34.813  23.833   3.606  0.00  0.00    +0.037 C 
ATOM     17  C   UNL     1     -35.804  23.720   4.581  0.00  0.00    +0.134 C 
BRANCH  17  18
ATOM     18  O   UNL     1     -36.525  22.571   4.687  0.00  0.00    -0.506 OA
ATOM     19  H   UNL     1     -36.216  21.873   5.231  0.00  0.00    +0.292 HD
ENDBRANCH  17  18
ENDBRANCH   5  12
BRANCH   6  20
ATOM     20  O   UNL     1     -34.925  28.299   2.514  0.00  0.00    -0.465 OA
ATOM     21  C   UNL     1     -34.536  27.849   1.230  0.00  0.00    +0.253 C 
ENDBRANCH   6  20
BRANCH   8  22
ATOM     22  O   UNL     1     -31.142  31.706   3.497  0.00  0.00    -0.503 OA
ATOM     23  H   UNL     1     -30.443  31.975   2.934  0.00  0.00    +0.292 HD
ENDBRANCH   8  22
BRANCH   9  24
ATOM     24  O   UNL     1     -30.393  27.390   6.859  0.00  0.00    -0.501 OA
ATOM     25  H   UNL     1     -29.877  26.660   6.578  0.00  0.00    +0.292 HD
ENDBRANCH   9  24
BRANCH  10  26
ATOM     26  O   UNL     1     -29.060  31.686   5.256  0.00  0.00    -0.501 OA
ATOM     27  H   UNL     1     -28.548  31.908   4.504  0.00  0.00    +0.292 HD
ENDBRANCH  10  26
BRANCH  11  28
ATOM     28  O   UNL     1     -28.672  29.541   6.939  0.00  0.00    -0.501 OA
ATOM     29  H   UNL     1     -27.841  29.195   6.678  0.00  0.00    +0.292 HD
ENDBRANCH  11  28
TORSDOF 7
ENDMDL
MODEL 8
REMARK VINA RESULT:      -5.9      2.156      2.793
REMARK  Name = 21579193
REMARK  7 active torsions:
REMARK  status: ('A' for Active; 'I' for Inactive)
REMARK    1  A    between atoms: C_5  and  C_12
REMARK    2  A    between atoms: C_6  and  O_20
REMARK    3  A    between atoms: C_8  and  O_22
REMARK    4  A    between atoms: C_9  and  O_24
REMARK    5  A    between atoms: C_10  and  O_26
REMARK    6  A    between atoms: C_11  and  O_28
REMARK    7  A    between atoms: C_17  and  O_18
REMARK                            x       y       z     vdW  Elec       q    Type
REMARK                         _______ _______ _______ _____ _____    ______ ____
ROOT
ATOM      1  O   UNL     1     -34.882  20.256   2.531  0.00  0.00    -0.447 OA
ATOM      2  O   UNL     1     -36.294  23.046  -0.080  0.00  0.00    -0.283 OA
ATOM      3  C   UNL     1     -35.930  22.411   2.160  0.00  0.00    +0.116 A 
ATOM      4  C   UNL     1     -35.432  21.419   3.001  0.00  0.00    +0.188 A 
ATOM      5  C   UNL     1     -34.812  20.062   1.161  0.00  0.00    +0.182 A 
ATOM      6  C   UNL     1     -35.266  20.936   0.239  0.00  0.00    +0.212 A 
ATOM      7  C   UNL     1     -35.868  22.207   0.705  0.00  0.00    +0.238 A 
ATOM      8  C   UNL     1     -36.481  23.579   2.696  0.00  0.00    +0.177 A 
ATOM      9  C   UNL     1     -35.481  21.588   4.385  0.00  0.00    +0.206 A 
ATOM     10  C   UNL     1     -36.528  23.746   4.080  0.00  0.00    +0.205 A 
ATOM     11  C   UNL     1     -36.029  22.753   4.923  0.00  0.00    +0.208 A 
ENDROOT
BRANCH   5  12
ATOM     12  C   UNL     1     -34.188  18.776   0.810  0.00  0.00    +0.038 C 
ATOM     13  C   UNL     1     -34.929  17.798   0.147  0.00  0.00    +0.006 C 
ATOM     14  C   UNL     1     -32.854  18.536   1.143  0.00  0.00    +0.006 C 
ATOM     15  C   UNL     1     -34.337  16.580  -0.184  0.00  0.00    +0.037 C 
ATOM     16  C   UNL     1     -32.263  17.316   0.811  0.00  0.00    +0.037 C 
ATOM     17  C   UNL     1     -33.004  16.339   0.148  0.00  0.00    +0.134 C 
BRANCH  17  18
ATOM     18  O   UNL     1     -32.426  15.149  -0.175  0.00  0.00    -0.506 OA
ATOM     19  H   UNL     1     -32.755  14.649  -0.895  0.00  0.00    +0.292 HD
ENDBRANCH  17  18
ENDBRANCH   5  12
BRANCH   6  20
ATOM     20  O   UNL     1     -35.231  20.746  -1.125  0.00  0.00    -0.465 OA
ATOM     21  C   UNL     1     -34.009  21.208  -1.668  0.00  0.00    +0.253 C 
ENDBRANCH   6  20
BRANCH   8  22
ATOM     22  O   UNL     1     -36.979  24.572   1.906  0.00  0.00    -0.503 OA
ATOM     23  H   UNL     1     -36.685  25.454   2.021  0.00  0.00    +0.292 HD
ENDBRANCH   8  22
BRANCH   9  24
ATOM     24  O   UNL     1     -34.995  20.620   5.213  0.00  0.00    -0.501 OA
ATOM     25  H   UNL     1     -34.145  20.714   5.597  0.00  0.00    +0.292 HD
ENDBRANCH   9  24
BRANCH  10  26
ATOM     26  O   UNL     1     -37.064  24.881   4.613  0.00  0.00    -0.501 OA
ATOM     27  H   UNL     1     -36.542  25.656   4.687  0.00  0.00    +0.292 HD
ENDBRANCH  10  26
BRANCH  11  28
ATOM     28  O   UNL     1     -36.077  22.919   6.276  0.00  0.00    -0.501 OA
ATOM     29  H   UNL     1     -35.666  23.663   6.671  0.00  0.00    +0.292 HD
ENDBRANCH  11  28
TORSDOF 7
ENDMDL
MODEL 9
REMARK VINA RESULT:      -5.8      3.489      8.045
REMARK  Name = 21579193
REMARK  7 active torsions:
REMARK  status: ('A' for Active; 'I' for Inactive)
REMARK    1  A    between atoms: C_5  and  C_12
REMARK    2  A    between atoms: C_6  and  O_20
REMARK    3  A    between atoms: C_8  and  O_22
REMARK    4  A    between atoms: C_9  and  O_24
REMARK    5  A    between atoms: C_10  and  O_26
REMARK    6  A    between atoms: C_11  and  O_28
REMARK    7  A    between atoms: C_17  and  O_18
REMARK                            x       y       z     vdW  Elec       q    Type
REMARK                         _______ _______ _______ _____ _____    ______ ____
ROOT
ATOM      1  O   UNL     1     -39.353  25.680   3.065  0.00  0.00    -0.447 OA
ATOM      2  O   UNL     1     -40.228  22.117   1.296  0.00  0.00    -0.283 OA
ATOM      3  C   UNL     1     -38.724  23.387   2.592  0.00  0.00    +0.116 A 
ATOM      4  C   UNL     1     -38.482  24.629   3.171  0.00  0.00    +0.188 A 
ATOM      5  C   UNL     1     -40.530  25.496   2.356  0.00  0.00    +0.182 A 
ATOM      6  C   UNL     1     -40.882  24.350   1.739  0.00  0.00    +0.212 A 
ATOM      7  C   UNL     1     -39.965  23.188   1.829  0.00  0.00    +0.238 A 
ATOM      8  C   UNL     1     -37.798  22.349   2.733  0.00  0.00    +0.177 A 
ATOM      9  C   UNL     1     -37.310  24.843   3.899  0.00  0.00    +0.206 A 
ATOM     10  C   UNL     1     -36.627  22.566   3.461  0.00  0.00    +0.205 A 
ATOM     11  C   UNL     1     -36.384  23.810   4.042  0.00  0.00    +0.208 A 
ENDROOT
BRANCH   5  12
ATOM     12  C   UNL     1     -41.366  26.707   2.341  0.00  0.00    +0.038 C 
ATOM     13  C   UNL     1     -41.488  27.455   1.170  0.00  0.00    +0.006 C 
ATOM     14  C   UNL     1     -42.036  27.106   3.497  0.00  0.00    +0.006 C 
ATOM     15  C   UNL     1     -42.281  28.603   1.154  0.00  0.00    +0.037 C 
ATOM     16  C   UNL     1     -42.829  28.255   3.482  0.00  0.00    +0.037 C 
ATOM     17  C   UNL     1     -42.951  29.003   2.311  0.00  0.00    +0.134 C 
BRANCH  17  18
ATOM     18  O   UNL     1     -43.724  30.123   2.297  0.00  0.00    -0.506 OA
ATOM     19  H   UNL     1     -43.406  30.906   1.892  0.00  0.00    +0.292 HD
ENDBRANCH  17  18
ENDBRANCH   5  12
BRANCH   6  20
ATOM     20  O   UNL     1     -42.032  24.159   1.005  0.00  0.00    -0.465 OA
ATOM     21  C   UNL     1     -41.772  24.281  -0.380  0.00  0.00    +0.253 C 
ENDBRANCH   6  20
BRANCH   8  22
ATOM     22  O   UNL     1     -37.999  21.119   2.180  0.00  0.00    -0.503 OA
ATOM     23  H   UNL     1     -37.317  20.478   2.202  0.00  0.00    +0.292 HD
ENDBRANCH   8  22
BRANCH   9  24
ATOM     24  O   UNL     1     -37.067  26.058   4.468  0.00  0.00    -0.501 OA
ATOM     25  H   UNL     1     -37.782  26.601   4.737  0.00  0.00    +0.292 HD
ENDBRANCH   9  24
BRANCH  10  26
ATOM     26  O   UNL     1     -35.717  21.560   3.604  0.00  0.00    -0.501 OA
ATOM     27  H   UNL     1     -35.340  21.386   4.444  0.00  0.00    +0.292 HD
ENDBRANCH  10  26
BRANCH  11  28
ATOM     28  O   UNL     1     -35.238  24.017   4.752  0.00  0.00    -0.501 OA
ATOM     29  H   UNL     1     -34.415  23.729   4.409  0.00  0.00    +0.292 HD
ENDBRANCH  11  28
TORSDOF 7
ENDMDL
