MODEL 1
REMARK VINA RESULT:      -7.9      0.000      0.000
REMARK  Name = 5496659
REMARK  9 active torsions:
REMARK  status: ('A' for Active; 'I' for Inactive)
REMARK    1  A    between atoms: C_1  and  N_4
REMARK    2  A    between atoms: C_1  and  C_20
REMARK    3  A    between atoms: C_5  and  C_7
REMARK    4  A    between atoms: C_10  and  C_15
REMARK    5  A    between atoms: C_20  and  C_22
REMARK    6  A    between atoms: C_20  and  C_25
REMARK    7  A    between atoms: C_22  and  O_23
REMARK    8  A    between atoms: C_25  and  C_26
REMARK    9  A    between atoms: C_29  and  C_34
REMARK                            x       y       z     vdW  Elec       q    Type
REMARK                         _______ _______ _______ _____ _____    ______ ____
ROOT
ATOM      1  C   UNL     1     -35.645  22.971   4.780  0.00  0.00    +0.083 C 
ATOM      2  C   UNL     1     -35.171  21.785   5.618  0.00  0.00    +0.022 C 
ENDROOT
BRANCH   1   4
ATOM      3  O   UNL     1     -36.156  25.576   5.875  0.00  0.00    -0.270 OA
ATOM      4  N   UNL     1     -34.705  24.063   4.885  0.00  0.00    -0.302 N 
ATOM      5  C   UNL     1     -35.047  25.290   5.431  0.00  0.00    +0.246 C 
ATOM      6  H   UNL     1     -33.787  23.930   4.554  0.00  0.00    +0.150 HD
BRANCH   5   7
ATOM      7  C   UNL     1     -33.974  26.316   5.443  0.00  0.00    +0.053 C 
ATOM      8  C   UNL     1     -33.612  26.960   4.260  0.00  0.00    +0.005 C 
ATOM      9  C   UNL     1     -33.327  26.636   6.636  0.00  0.00    +0.005 C 
ATOM     10  C   UNL     1     -31.957  28.244   5.464  0.00  0.00    +0.000 C 
ATOM     11  C   UNL     1     -32.604  27.924   4.270  0.00  0.00    +0.000 C 
ATOM     12  C   UNL     1     -32.319  27.599   6.647  0.00  0.00    +0.000 C 
BRANCH  10  15
ATOM     13  O   UNL     1     -27.967  32.042   5.510  0.00  0.00    -0.163 OA
ATOM     14  N   UNL     1     -28.890  31.164   5.500  0.00  0.00    -0.127 N 
ATOM     15  C   UNL     1     -30.910  29.242   5.477  0.00  0.00    +0.003 C 
ATOM     16  C   UNL     1     -29.787  29.062   6.277  0.00  0.00    +0.022 C 
ATOM     17  C   UNL     1     -31.024  30.381   4.688  0.00  0.00    +0.022 C 
ATOM     18  C   UNL     1     -28.787  30.028   6.280  0.00  0.00    +0.121 C 
ATOM     19  C   UNL     1     -30.009  31.333   4.708  0.00  0.00    +0.121 C 
ENDBRANCH  10  15
ENDBRANCH   5   7
ENDBRANCH   1   4
BRANCH   1  20
ATOM     20  C   UNL     1     -35.936  22.575   3.314  0.00  0.00    +0.121 C 
BRANCH  20  22
ATOM     21  O   UNL     1     -37.937  22.556   1.922  0.00  0.00    -0.250 OA
ATOM     22  C   UNL     1     -37.337  23.005   2.891  0.00  0.00    +0.319 C 
BRANCH  22  23
ATOM     23  O   UNL     1     -37.806  23.956   3.751  0.00  0.00    -0.444 OA
ATOM     24  C   UNL     1     -38.427  25.089   3.136  0.00  0.00    +0.256 C 
ENDBRANCH  22  23
ENDBRANCH  20  22
BRANCH  20  25
ATOM     25  C   UNL     1     -35.757  21.061   3.078  0.00  0.00    +0.039 C 
BRANCH  25  26
ATOM     26  C   UNL     1     -34.742  20.753   2.001  0.00  0.00    -0.021 C 
ATOM     27  C   UNL     1     -34.135  19.497   1.954  0.00  0.00    -0.002 C 
ATOM     28  C   UNL     1     -34.409  21.724   1.058  0.00  0.00    -0.004 C 
ATOM     29  C   UNL     1     -33.196  19.214   0.963  0.00  0.00    +0.030 C 
ATOM     30  C   UNL     1     -33.471  21.441   0.066  0.00  0.00    -0.000 C 
ATOM     31  C   UNL     1     -32.863  20.186   0.019  0.00  0.00    +0.003 C 
BRANCH  29  34
ATOM     32  N   UNL     1     -31.354  17.661   1.566  0.00  0.00    -0.343 N 
ATOM     33  N   UNL     1     -33.131  16.924   0.238  0.00  0.00    -0.285 NA
ATOM     34  C   UNL     1     -32.562  17.906   0.914  0.00  0.00    +0.117 C 
ATOM     35  H   UNL     1     -30.943  16.768   1.520  0.00  0.00    +0.144 HD
ATOM     36  H   UNL     1     -30.914  18.381   2.072  0.00  0.00    +0.144 HD
ATOM     37  H   UNL     1     -32.703  16.037   0.205  0.00  0.00    +0.188 HD
ENDBRANCH  29  34
ENDBRANCH  25  26
ENDBRANCH  20  25
ENDBRANCH   1  20
TORSDOF 9
ENDMDL
MODEL 2
REMARK VINA RESULT:      -7.9      0.078      1.186
REMARK  Name = 5496659
REMARK  9 active torsions:
REMARK  status: ('A' for Active; 'I' for Inactive)
REMARK    1  A    between atoms: C_1  and  N_4
REMARK    2  A    between atoms: C_1  and  C_20
REMARK    3  A    between atoms: C_5  and  C_7
REMARK    4  A    between atoms: C_10  and  C_15
REMARK    5  A    between atoms: C_20  and  C_22
REMARK    6  A    between atoms: C_20  and  C_25
REMARK    7  A    between atoms: C_22  and  O_23
REMARK    8  A    between atoms: C_25  and  C_26
REMARK    9  A    between atoms: C_29  and  C_34
REMARK                            x       y       z     vdW  Elec       q    Type
REMARK                         _______ _______ _______ _____ _____    ______ ____
ROOT
ATOM      1  C   UNL     1     -35.658  22.977   4.820  0.00  0.00    +0.083 C 
ATOM      2  C   UNL     1     -35.160  21.779   5.626  0.00  0.00    +0.022 C 
ENDROOT
BRANCH   1   4
ATOM      3  O   UNL     1     -36.145  25.562   5.970  0.00  0.00    -0.270 OA
ATOM      4  N   UNL     1     -34.718  24.069   4.917  0.00  0.00    -0.302 N 
ATOM      5  C   UNL     1     -35.047  25.286   5.493  0.00  0.00    +0.246 C 
ATOM      6  H   UNL     1     -33.808  23.944   4.561  0.00  0.00    +0.150 HD
BRANCH   5   7
ATOM      7  C   UNL     1     -33.976  26.315   5.493  0.00  0.00    +0.053 C 
ATOM      8  C   UNL     1     -33.338  26.657   6.685  0.00  0.00    +0.005 C 
ATOM      9  C   UNL     1     -33.608  26.939   4.301  0.00  0.00    +0.005 C 
ATOM     10  C   UNL     1     -31.964  28.248   5.493  0.00  0.00    +0.000 C 
ATOM     11  C   UNL     1     -32.332  27.624   6.685  0.00  0.00    +0.000 C 
ATOM     12  C   UNL     1     -32.603  27.905   4.301  0.00  0.00    +0.000 C 
BRANCH  10  15
ATOM     13  O   UNL     1     -28.001  32.073   5.490  0.00  0.00    -0.163 OA
ATOM     14  N   UNL     1     -28.916  31.188   5.490  0.00  0.00    -0.127 N 
ATOM     15  C   UNL     1     -30.923  29.252   5.492  0.00  0.00    +0.003 C 
ATOM     16  C   UNL     1     -31.067  30.403   4.725  0.00  0.00    +0.022 C 
ATOM     17  C   UNL     1     -29.777  29.068   6.258  0.00  0.00    +0.022 C 
ATOM     18  C   UNL     1     -30.059  31.361   4.733  0.00  0.00    +0.121 C 
ATOM     19  C   UNL     1     -28.783  30.041   6.248  0.00  0.00    +0.121 C 
ENDBRANCH  10  15
ENDBRANCH   5   7
ENDBRANCH   1   4
BRANCH   1  20
ATOM     20  C   UNL     1     -35.985  22.604   3.356  0.00  0.00    +0.121 C 
BRANCH  20  22
ATOM     21  O   UNL     1     -38.047  22.561   2.056  0.00  0.00    -0.250 OA
ATOM     22  C   UNL     1     -37.394  23.045   2.972  0.00  0.00    +0.319 C 
BRANCH  22  23
ATOM     23  O   UNL     1     -37.803  24.049   3.801  0.00  0.00    -0.444 OA
ATOM     24  C   UNL     1     -38.498  25.127   3.165  0.00  0.00    +0.256 C 
ENDBRANCH  22  23
ENDBRANCH  20  22
BRANCH  20  25
ATOM     25  C   UNL     1     -35.818  21.092   3.093  0.00  0.00    +0.039 C 
BRANCH  25  26
ATOM     26  C   UNL     1     -34.789  20.794   2.027  0.00  0.00    -0.021 C 
ATOM     27  C   UNL     1     -34.189  19.535   1.970  0.00  0.00    -0.002 C 
ATOM     28  C   UNL     1     -34.436  21.777   1.103  0.00  0.00    -0.004 C 
ATOM     29  C   UNL     1     -33.238  19.261   0.988  0.00  0.00    +0.030 C 
ATOM     30  C   UNL     1     -33.485  21.502   0.121  0.00  0.00    -0.000 C 
ATOM     31  C   UNL     1     -32.885  20.245   0.064  0.00  0.00    +0.003 C 
BRANCH  29  34
ATOM     32  N   UNL     1     -31.335  17.732   1.446  0.00  0.00    -0.343 N 
ATOM     33  N   UNL     1     -33.254  16.938   0.373  0.00  0.00    -0.285 NA
ATOM     34  C   UNL     1     -32.611  17.949   0.929  0.00  0.00    +0.117 C 
ATOM     35  H   UNL     1     -30.930  16.836   1.395  0.00  0.00    +0.144 HD
ATOM     36  H   UNL     1     -30.839  18.474   1.861  0.00  0.00    +0.144 HD
ATOM     37  H   UNL     1     -32.830  16.049   0.332  0.00  0.00    +0.188 HD
ENDBRANCH  29  34
ENDBRANCH  25  26
ENDBRANCH  20  25
ENDBRANCH   1  20
TORSDOF 9
ENDMDL
MODEL 3
REMARK VINA RESULT:      -7.5      1.558      2.128
REMARK  Name = 5496659
REMARK  9 active torsions:
REMARK  status: ('A' for Active; 'I' for Inactive)
REMARK    1  A    between atoms: C_1  and  N_4
REMARK    2  A    between atoms: C_1  and  C_20
REMARK    3  A    between atoms: C_5  and  C_7
REMARK    4  A    between atoms: C_10  and  C_15
REMARK    5  A    between atoms: C_20  and  C_22
REMARK    6  A    between atoms: C_20  and  C_25
REMARK    7  A    between atoms: C_22  and  O_23
REMARK    8  A    between atoms: C_25  and  C_26
REMARK    9  A    between atoms: C_29  and  C_34
REMARK                            x       y       z     vdW  Elec       q    Type
REMARK                         _______ _______ _______ _____ _____    ______ ____
ROOT
ATOM      1  C   UNL     1     -35.595  22.935   4.811  0.00  0.00    +0.083 C 
ATOM      2  C   UNL     1     -35.125  21.747   5.648  0.00  0.00    +0.022 C 
ENDROOT
BRANCH   1   4
ATOM      3  O   UNL     1     -36.126  25.538   5.899  0.00  0.00    -0.270 OA
ATOM      4  N   UNL     1     -34.659  24.029   4.927  0.00  0.00    -0.302 N 
ATOM      5  C   UNL     1     -35.011  25.255   5.470  0.00  0.00    +0.246 C 
ATOM      6  H   UNL     1     -33.736  23.899   4.609  0.00  0.00    +0.150 HD
BRANCH   5   7
ATOM      7  C   UNL     1     -33.940  26.284   5.495  0.00  0.00    +0.053 C 
ATOM      8  C   UNL     1     -33.562  26.926   4.316  0.00  0.00    +0.005 C 
ATOM      9  C   UNL     1     -33.313  26.609   6.698  0.00  0.00    +0.005 C 
ATOM     10  C   UNL     1     -31.929  28.217   5.543  0.00  0.00    +0.000 C 
ATOM     11  C   UNL     1     -32.556  27.892   4.340  0.00  0.00    +0.000 C 
ATOM     12  C   UNL     1     -32.307  27.574   6.722  0.00  0.00    +0.000 C 
BRANCH  10  15
ATOM     13  O   UNL     1     -27.953  32.028   5.644  0.00  0.00    -0.163 OA
ATOM     14  N   UNL     1     -28.871  31.147   5.620  0.00  0.00    -0.127 N 
ATOM     15  C   UNL     1     -30.884  29.217   5.569  0.00  0.00    +0.003 C 
ATOM     16  C   UNL     1     -31.008  30.373   4.805  0.00  0.00    +0.022 C 
ATOM     17  C   UNL     1     -29.755  29.025   6.358  0.00  0.00    +0.022 C 
ATOM     18  C   UNL     1     -29.997  31.327   4.840  0.00  0.00    +0.121 C 
ATOM     19  C   UNL     1     -28.758  29.995   6.375  0.00  0.00    +0.121 C 
ENDBRANCH  10  15
ENDBRANCH   5   7
ENDBRANCH   1   4
BRANCH   1  20
ATOM     20  C   UNL     1     -35.872  22.544   3.341  0.00  0.00    +0.121 C 
BRANCH  20  22
ATOM     21  O   UNL     1     -37.890  22.437   1.978  0.00  0.00    -0.250 OA
ATOM     22  C   UNL     1     -37.286  22.933   2.921  0.00  0.00    +0.319 C 
BRANCH  22  23
ATOM     23  O   UNL     1     -37.761  23.907   3.750  0.00  0.00    -0.444 OA
ATOM     24  C   UNL     1     -38.394  25.014   3.100  0.00  0.00    +0.256 C 
ENDBRANCH  22  23
ENDBRANCH  20  22
BRANCH  20  25
ATOM     25  C   UNL     1     -35.645  21.039   3.090  0.00  0.00    +0.039 C 
BRANCH  25  26
ATOM     26  C   UNL     1     -34.625  20.774   2.006  0.00  0.00    -0.021 C 
ATOM     27  C   UNL     1     -34.250  21.798   1.136  0.00  0.00    -0.002 C 
ATOM     28  C   UNL     1     -34.063  19.504   1.873  0.00  0.00    -0.004 C 
ATOM     29  C   UNL     1     -33.311  21.552   0.135  0.00  0.00    +0.030 C 
ATOM     30  C   UNL     1     -33.124  19.259   0.872  0.00  0.00    -0.000 C 
ATOM     31  C   UNL     1     -32.749  20.282   0.002  0.00  0.00    +0.003 C 
BRANCH  29  34
ATOM     32  N   UNL     1     -32.029  23.616  -0.380  0.00  0.00    -0.343 N 
ATOM     33  N   UNL     1     -33.418  22.656  -1.997  0.00  0.00    -0.285 NA
ATOM     34  C   UNL     1     -32.921  22.619  -0.774  0.00  0.00    +0.117 C 
ATOM     35  H   UNL     1     -31.779  24.329  -1.011  0.00  0.00    +0.144 HD
ATOM     36  H   UNL     1     -31.651  23.606   0.528  0.00  0.00    +0.144 HD
ATOM     37  H   UNL     1     -33.155  23.379  -2.613  0.00  0.00    +0.188 HD
ENDBRANCH  29  34
ENDBRANCH  25  26
ENDBRANCH  20  25
ENDBRANCH   1  20
TORSDOF 9
ENDMDL
MODEL 4
REMARK VINA RESULT:      -7.3      4.316      9.027
REMARK  Name = 5496659
REMARK  9 active torsions:
REMARK  status: ('A' for Active; 'I' for Inactive)
REMARK    1  A    between atoms: C_1  and  N_4
REMARK    2  A    between atoms: C_1  and  C_20
REMARK    3  A    between atoms: C_5  and  C_7
REMARK    4  A    between atoms: C_10  and  C_15
REMARK    5  A    between atoms: C_20  and  C_22
REMARK    6  A    between atoms: C_20  and  C_25
REMARK    7  A    between atoms: C_22  and  O_23
REMARK    8  A    between atoms: C_25  and  C_26
REMARK    9  A    between atoms: C_29  and  C_34
REMARK                            x       y       z     vdW  Elec       q    Type
REMARK                         _______ _______ _______ _____ _____    ______ ____
ROOT
ATOM      1  C   UNL     1     -35.554  24.737   2.079  0.00  0.00    +0.083 C 
ATOM      2  C   UNL     1     -35.209  25.835   1.074  0.00  0.00    +0.022 C 
ENDROOT
BRANCH   1   4
ATOM      3  O   UNL     1     -36.208  22.545   0.345  0.00  0.00    -0.270 OA
ATOM      4  N   UNL     1     -34.749  23.563   1.831  0.00  0.00    -0.302 N 
ATOM      5  C   UNL     1     -35.152  22.553   0.972  0.00  0.00    +0.246 C 
ATOM      6  H   UNL     1     -33.882  23.478   2.290  0.00  0.00    +0.150 HD
BRANCH   5   7
ATOM      7  C   UNL     1     -34.223  21.401   0.844  0.00  0.00    +0.053 C 
ATOM      8  C   UNL     1     -33.086  21.508   0.044  0.00  0.00    +0.005 C 
ATOM      9  C   UNL     1     -34.488  20.213   1.524  0.00  0.00    +0.005 C 
ATOM     10  C   UNL     1     -32.479  19.237   0.605  0.00  0.00    +0.000 C 
ATOM     11  C   UNL     1     -32.214  20.426  -0.076  0.00  0.00    +0.000 C 
ATOM     12  C   UNL     1     -33.617  19.131   1.405  0.00  0.00    +0.000 C 
BRANCH  10  15
ATOM     13  O   UNL     1     -29.043  14.959   0.125  0.00  0.00    -0.163 OA
ATOM     14  N   UNL     1     -29.837  15.947   0.236  0.00  0.00    -0.127 N 
ATOM     15  C   UNL     1     -31.576  18.114   0.480  0.00  0.00    +0.003 C 
ATOM     16  C   UNL     1     -32.068  16.862   0.125  0.00  0.00    +0.022 C 
ATOM     17  C   UNL     1     -30.216  18.283   0.713  0.00  0.00    +0.022 C 
ATOM     18  C   UNL     1     -31.191  15.790   0.007  0.00  0.00    +0.121 C 
ATOM     19  C   UNL     1     -29.359  17.195   0.588  0.00  0.00    +0.121 C 
ENDBRANCH  10  15
ENDBRANCH   5   7
ENDBRANCH   1   4
BRANCH   1  20
ATOM     20  C   UNL     1     -35.453  25.228   3.542  0.00  0.00    +0.121 C 
BRANCH  20  22
ATOM     21  O   UNL     1     -33.386  24.695   4.720  0.00  0.00    -0.250 OA
ATOM     22  C   UNL     1     -34.505  24.353   4.356  0.00  0.00    +0.319 C 
BRANCH  22  23
ATOM     23  O   UNL     1     -35.093  23.147   4.608  0.00  0.00    -0.444 OA
ATOM     24  C   UNL     1     -35.102  22.742   5.980  0.00  0.00    +0.256 C 
ENDBRANCH  22  23
ENDBRANCH  20  22
BRANCH  20  25
ATOM     25  C   UNL     1     -36.833  25.287   4.229  0.00  0.00    +0.039 C 
BRANCH  25  26
ATOM     26  C   UNL     1     -37.952  24.796   3.339  0.00  0.00    -0.021 C 
ATOM     27  C   UNL     1     -38.081  23.433   3.069  0.00  0.00    -0.002 C 
ATOM     28  C   UNL     1     -38.853  25.705   2.786  0.00  0.00    -0.004 C 
ATOM     29  C   UNL     1     -39.112  22.981   2.246  0.00  0.00    +0.030 C 
ATOM     30  C   UNL     1     -39.883  25.253   1.963  0.00  0.00    -0.000 C 
ATOM     31  C   UNL     1     -40.013  23.891   1.692  0.00  0.00    +0.003 C 
BRANCH  29  34
ATOM     32  N   UNL     1     -38.144  20.707   2.000  0.00  0.00    -0.343 N 
ATOM     33  N   UNL     1     -40.429  21.059   1.658  0.00  0.00    -0.285 NA
ATOM     34  C   UNL     1     -39.246  21.561   1.962  0.00  0.00    +0.117 C 
ATOM     35  H   UNL     1     -38.258  19.749   1.804  0.00  0.00    +0.144 HD
ATOM     36  H   UNL     1     -37.253  21.063   2.222  0.00  0.00    +0.144 HD
ATOM     37  H   UNL     1     -40.522  20.097   1.466  0.00  0.00    +0.188 HD
ENDBRANCH  29  34
ENDBRANCH  25  26
ENDBRANCH  20  25
ENDBRANCH   1  20
TORSDOF 9
ENDMDL
MODEL 5
REMARK VINA RESULT:      -7.2      5.994     13.121
REMARK  Name = 5496659
REMARK  9 active torsions:
REMARK  status: ('A' for Active; 'I' for Inactive)
REMARK    1  A    between atoms: C_1  and  N_4
REMARK    2  A    between atoms: C_1  and  C_20
REMARK    3  A    between atoms: C_5  and  C_7
REMARK    4  A    between atoms: C_10  and  C_15
REMARK    5  A    between atoms: C_20  and  C_22
REMARK    6  A    between atoms: C_20  and  C_25
REMARK    7  A    between atoms: C_22  and  O_23
REMARK    8  A    between atoms: C_25  and  C_26
REMARK    9  A    between atoms: C_29  and  C_34
REMARK                            x       y       z     vdW  Elec       q    Type
REMARK                         _______ _______ _______ _____ _____    ______ ____
ROOT
ATOM      1  C   UNL     1     -35.783  19.935   0.922  0.00  0.00    +0.083 C 
ATOM      2  C   UNL     1     -34.431  19.354   1.334  0.00  0.00    +0.022 C 
ENDROOT
BRANCH   1   4
ATOM      3  O   UNL     1     -36.637  19.017  -1.660  0.00  0.00    -0.270 OA
ATOM      4  N   UNL     1     -36.721  18.871   0.652  0.00  0.00    -0.302 N 
ATOM      5  C   UNL     1     -37.073  18.498  -0.636  0.00  0.00    +0.246 C 
ATOM      6  H   UNL     1     -37.126  18.392   1.412  0.00  0.00    +0.150 HD
BRANCH   5   7
ATOM      7  C   UNL     1     -38.070  17.402  -0.744  0.00  0.00    +0.053 C 
ATOM      8  C   UNL     1     -37.799  16.155  -0.182  0.00  0.00    +0.005 C 
ATOM      9  C   UNL     1     -39.276  17.621  -1.408  0.00  0.00    +0.005 C 
ATOM     10  C   UNL     1     -39.943  15.344  -0.949  0.00  0.00    +0.000 C 
ATOM     11  C   UNL     1     -38.735  15.125  -0.285  0.00  0.00    +0.000 C 
ATOM     12  C   UNL     1     -40.212  16.593  -1.511  0.00  0.00    +0.000 C 
BRANCH  10  15
ATOM     13  O   UNL     1     -43.639  11.282  -1.366  0.00  0.00    -0.163 OA
ATOM     14  N   UNL     1     -42.785  12.221  -1.269  0.00  0.00    -0.127 N 
ATOM     15  C   UNL     1     -40.914  14.278  -1.058  0.00  0.00    +0.003 C 
ATOM     16  C   UNL     1     -41.893  14.327  -2.044  0.00  0.00    +0.022 C 
ATOM     17  C   UNL     1     -40.869  13.202  -0.178  0.00  0.00    +0.022 C 
ATOM     18  C   UNL     1     -42.821  13.295  -2.139  0.00  0.00    +0.121 C 
ATOM     19  C   UNL     1     -41.808  12.183  -0.293  0.00  0.00    +0.121 C 
ENDBRANCH  10  15
ENDBRANCH   5   7
ENDBRANCH   1   4
BRANCH   1  20
ATOM     20  C   UNL     1     -36.321  20.955   1.952  0.00  0.00    +0.121 C 
BRANCH  20  22
ATOM     21  O   UNL     1     -38.640  21.641   2.263  0.00  0.00    -0.250 OA
ATOM     22  C   UNL     1     -37.673  21.516   1.522  0.00  0.00    +0.319 C 
BRANCH  22  23
ATOM     23  O   UNL     1     -37.633  21.848   0.198  0.00  0.00    -0.444 OA
ATOM     24  C   UNL     1     -38.881  21.760  -0.496  0.00  0.00    +0.256 C 
ENDBRANCH  22  23
ENDBRANCH  20  22
BRANCH  20  25
ATOM     25  C   UNL     1     -35.328  22.110   2.197  0.00  0.00    +0.039 C 
BRANCH  25  26
ATOM     26  C   UNL     1     -35.309  22.570   3.636  0.00  0.00    -0.021 C 
ATOM     27  C   UNL     1     -35.306  23.933   3.933  0.00  0.00    -0.002 C 
ATOM     28  C   UNL     1     -35.291  21.632   4.668  0.00  0.00    -0.004 C 
ATOM     29  C   UNL     1     -35.286  24.358   5.261  0.00  0.00    +0.030 C 
ATOM     30  C   UNL     1     -35.271  22.057   5.996  0.00  0.00    -0.000 C 
ATOM     31  C   UNL     1     -35.268  23.419   6.293  0.00  0.00    +0.003 C 
BRANCH  29  34
ATOM     32  N   UNL     1     -34.129  26.418   6.024  0.00  0.00    -0.343 N 
ATOM     33  N   UNL     1     -36.388  26.487   5.425  0.00  0.00    -0.285 NA
ATOM     34  C   UNL     1     -35.282  25.779   5.570  0.00  0.00    +0.117 C 
ATOM     35  H   UNL     1     -34.149  27.381   6.228  0.00  0.00    +0.144 HD
ATOM     36  H   UNL     1     -33.297  25.907   6.141  0.00  0.00    +0.144 HD
ATOM     37  H   UNL     1     -36.386  27.450   5.634  0.00  0.00    +0.188 HD
ENDBRANCH  29  34
ENDBRANCH  25  26
ENDBRANCH  20  25
ENDBRANCH   1  20
TORSDOF 9
ENDMDL
MODEL 6
REMARK VINA RESULT:      -7.2      4.605      8.222
REMARK  Name = 5496659
REMARK  9 active torsions:
REMARK  status: ('A' for Active; 'I' for Inactive)
REMARK    1  A    between atoms: C_1  and  N_4
REMARK    2  A    between atoms: C_1  and  C_20
REMARK    3  A    between atoms: C_5  and  C_7
REMARK    4  A    between atoms: C_10  and  C_15
REMARK    5  A    between atoms: C_20  and  C_22
REMARK    6  A    between atoms: C_20  and  C_25
REMARK    7  A    between atoms: C_22  and  O_23
REMARK    8  A    between atoms: C_25  and  C_26
REMARK    9  A    between atoms: C_29  and  C_34
REMARK                            x       y       z     vdW  Elec       q    Type
REMARK                         _______ _______ _______ _____ _____    ______ ____
ROOT
ATOM      1  C   UNL     1     -38.199  24.226   0.845  0.00  0.00    +0.083 C 
ATOM      2  C   UNL     1     -38.033  25.551   0.104  0.00  0.00    +0.022 C 
ENDROOT
BRANCH   1   4
ATOM      3  O   UNL     1     -38.017  21.380   0.518  0.00  0.00    -0.270 OA
ATOM      4  N   UNL     1     -36.988  23.445   0.748  0.00  0.00    -0.302 N 
ATOM      5  C   UNL     1     -37.002  22.067   0.590  0.00  0.00    +0.246 C 
ATOM      6  H   UNL     1     -36.120  23.908   0.796  0.00  0.00    +0.150 HD
BRANCH   5   7
ATOM      7  C   UNL     1     -35.673  21.408   0.532  0.00  0.00    +0.053 C 
ATOM      8  C   UNL     1     -34.534  22.159   0.243  0.00  0.00    +0.005 C 
ATOM      9  C   UNL     1     -35.563  20.038   0.765  0.00  0.00    +0.005 C 
ATOM     10  C   UNL     1     -33.175  20.169   0.421  0.00  0.00    +0.000 C 
ATOM     11  C   UNL     1     -33.285  21.540   0.188  0.00  0.00    +0.000 C 
ATOM     12  C   UNL     1     -34.315  19.418   0.709  0.00  0.00    +0.000 C 
BRANCH  10  15
ATOM     13  O   UNL     1     -28.250  17.713   0.194  0.00  0.00    -0.163 OA
ATOM     14  N   UNL     1     -29.388  18.281   0.248  0.00  0.00    -0.127 N 
ATOM     15  C   UNL     1     -31.881  19.525   0.362  0.00  0.00    +0.003 C 
ATOM     16  C   UNL     1     -31.680  18.308   1.005  0.00  0.00    +0.022 C 
ATOM     17  C   UNL     1     -30.838  20.120  -0.337  0.00  0.00    +0.022 C 
ATOM     18  C   UNL     1     -30.432  17.698   0.940  0.00  0.00    +0.121 C 
ATOM     19  C   UNL     1     -29.599  19.490  -0.387  0.00  0.00    +0.121 C 
ENDBRANCH  10  15
ENDBRANCH   5   7
ENDBRANCH   1   4
BRANCH   1  20
ATOM     20  C   UNL     1     -38.661  24.426   2.307  0.00  0.00    +0.121 C 
BRANCH  20  22
ATOM     21  O   UNL     1     -40.992  24.074   1.685  0.00  0.00    -0.250 OA
ATOM     22  C   UNL     1     -40.168  24.647   2.388  0.00  0.00    +0.319 C 
BRANCH  22  23
ATOM     23  O   UNL     1     -40.447  25.572   3.352  0.00  0.00    -0.444 OA
ATOM     24  C   UNL     1     -41.586  26.400   3.100  0.00  0.00    +0.256 C 
ENDBRANCH  22  23
ENDBRANCH  20  22
BRANCH  20  25
ATOM     25  C   UNL     1     -37.922  25.594   2.993  0.00  0.00    +0.039 C 
BRANCH  25  26
ATOM     26  C   UNL     1     -36.822  25.128   3.919  0.00  0.00    -0.021 C 
ATOM     27  C   UNL     1     -36.577  23.764   4.080  0.00  0.00    -0.002 C 
ATOM     28  C   UNL     1     -36.054  26.061   4.615  0.00  0.00    -0.004 C 
ATOM     29  C   UNL     1     -35.564  23.334   4.936  0.00  0.00    +0.030 C 
ATOM     30  C   UNL     1     -35.040  25.631   5.470  0.00  0.00    -0.000 C 
ATOM     31  C   UNL     1     -34.796  24.268   5.632  0.00  0.00    +0.003 C 
BRANCH  29  34
ATOM     32  N   UNL     1     -34.700  21.417   6.258  0.00  0.00    -0.343 N 
ATOM     33  N   UNL     1     -35.655  21.064   4.154  0.00  0.00    -0.285 NA
ATOM     34  C   UNL     1     -35.310  21.912   5.106  0.00  0.00    +0.117 C 
ATOM     35  H   UNL     1     -34.538  20.450   6.351  0.00  0.00    +0.144 HD
ATOM     36  H   UNL     1     -34.434  22.033   6.977  0.00  0.00    +0.144 HD
ATOM     37  H   UNL     1     -35.483  20.100   4.267  0.00  0.00    +0.188 HD
ENDBRANCH  29  34
ENDBRANCH  25  26
ENDBRANCH  20  25
ENDBRANCH   1  20
TORSDOF 9
ENDMDL
MODEL 7
REMARK VINA RESULT:      -7.1      4.933      9.090
REMARK  Name = 5496659
REMARK  9 active torsions:
REMARK  status: ('A' for Active; 'I' for Inactive)
REMARK    1  A    between atoms: C_1  and  N_4
REMARK    2  A    between atoms: C_1  and  C_20
REMARK    3  A    between atoms: C_5  and  C_7
REMARK    4  A    between atoms: C_10  and  C_15
REMARK    5  A    between atoms: C_20  and  C_22
REMARK    6  A    between atoms: C_20  and  C_25
REMARK    7  A    between atoms: C_22  and  O_23
REMARK    8  A    between atoms: C_25  and  C_26
REMARK    9  A    between atoms: C_29  and  C_34
REMARK                            x       y       z     vdW  Elec       q    Type
REMARK                         _______ _______ _______ _____ _____    ______ ____
ROOT
ATOM      1  C   UNL     1     -36.435  21.154   0.584  0.00  0.00    +0.083 C 
ATOM      2  C   UNL     1     -36.935  19.722   0.401  0.00  0.00    +0.022 C 
ENDROOT
BRANCH   1   4
ATOM      3  O   UNL     1     -36.649  23.975   0.097  0.00  0.00    -0.270 OA
ATOM      4  N   UNL     1     -37.525  22.017   0.975  0.00  0.00    -0.302 N 
ATOM      5  C   UNL     1     -37.538  23.374   0.693  0.00  0.00    +0.246 C 
ATOM      6  H   UNL     1     -38.289  21.626   1.460  0.00  0.00    +0.150 HD
BRANCH   5   7
ATOM      7  C   UNL     1     -38.720  24.127   1.184  0.00  0.00    +0.053 C 
ATOM      8  C   UNL     1     -39.644  24.646   0.277  0.00  0.00    +0.005 C 
ATOM      9  C   UNL     1     -38.906  24.317   2.553  0.00  0.00    +0.005 C 
ATOM     10  C   UNL     1     -40.939  25.543   2.108  0.00  0.00    +0.000 C 
ATOM     11  C   UNL     1     -40.753  25.354   0.739  0.00  0.00    +0.000 C 
ATOM     12  C   UNL     1     -40.015  25.025   3.016  0.00  0.00    +0.000 C 
BRANCH  10  15
ATOM     13  O   UNL     1     -45.316  28.342   3.940  0.00  0.00    -0.163 OA
ATOM     14  N   UNL     1     -44.305  27.695   3.516  0.00  0.00    -0.127 N 
ATOM     15  C   UNL     1     -42.089  26.279   2.589  0.00  0.00    +0.003 C 
ATOM     16  C   UNL     1     -43.332  26.094   1.993  0.00  0.00    +0.022 C 
ATOM     17  C   UNL     1     -41.952  27.171   3.647  0.00  0.00    +0.022 C 
ATOM     18  C   UNL     1     -44.429  26.807   2.465  0.00  0.00    +0.121 C 
ATOM     19  C   UNL     1     -43.065  27.871   4.100  0.00  0.00    +0.121 C 
ENDBRANCH  10  15
ENDBRANCH   5   7
ENDBRANCH   1   4
BRANCH   1  20
ATOM     20  C   UNL     1     -35.235  21.236   1.556  0.00  0.00    +0.121 C 
BRANCH  20  22
ATOM     21  O   UNL     1     -33.379  20.823   0.030  0.00  0.00    -0.250 OA
ATOM     22  C   UNL     1     -34.028  20.480   1.011  0.00  0.00    +0.319 C 
BRANCH  22  23
ATOM     23  O   UNL     1     -33.791  19.376   1.779  0.00  0.00    -0.444 OA
ATOM     24  C   UNL     1     -32.808  18.470   1.268  0.00  0.00    +0.256 C 
ENDBRANCH  22  23
ENDBRANCH  20  22
BRANCH  20  25
ATOM     25  C   UNL     1     -35.592  20.711   2.962  0.00  0.00    +0.039 C 
BRANCH  25  26
ATOM     26  C   UNL     1     -35.504  21.781   4.026  0.00  0.00    -0.021 C 
ATOM     27  C   UNL     1     -35.709  23.119   3.688  0.00  0.00    -0.002 C 
ATOM     28  C   UNL     1     -35.216  21.431   5.345  0.00  0.00    -0.004 C 
ATOM     29  C   UNL     1     -35.625  24.106   4.669  0.00  0.00    +0.030 C 
ATOM     30  C   UNL     1     -35.133  22.419   6.326  0.00  0.00    -0.000 C 
ATOM     31  C   UNL     1     -35.336  23.756   5.988  0.00  0.00    +0.003 C 
BRANCH  29  34
ATOM     32  N   UNL     1     -36.356  26.411   5.237  0.00  0.00    -0.343 N 
ATOM     33  N   UNL     1     -35.538  25.926   3.102  0.00  0.00    -0.285 NA
ATOM     34  C   UNL     1     -35.836  25.502   4.317  0.00  0.00    +0.117 C 
ATOM     35  H   UNL     1     -36.491  27.351   4.977  0.00  0.00    +0.144 HD
ATOM     36  H   UNL     1     -36.587  26.113   6.146  0.00  0.00    +0.144 HD
ATOM     37  H   UNL     1     -35.680  26.871   2.862  0.00  0.00    +0.188 HD
ENDBRANCH  29  34
ENDBRANCH  25  26
ENDBRANCH  20  25
ENDBRANCH   1  20
TORSDOF 9
ENDMDL
MODEL 8
REMARK VINA RESULT:      -7.0      4.413      5.857
REMARK  Name = 5496659
REMARK  9 active torsions:
REMARK  status: ('A' for Active; 'I' for Inactive)
REMARK    1  A    between atoms: C_1  and  N_4
REMARK    2  A    between atoms: C_1  and  C_20
REMARK    3  A    between atoms: C_5  and  C_7
REMARK    4  A    between atoms: C_10  and  C_15
REMARK    5  A    between atoms: C_20  and  C_22
REMARK    6  A    between atoms: C_20  and  C_25
REMARK    7  A    between atoms: C_22  and  O_23
REMARK    8  A    between atoms: C_25  and  C_26
REMARK    9  A    between atoms: C_29  and  C_34
REMARK                            x       y       z     vdW  Elec       q    Type
REMARK                         _______ _______ _______ _____ _____    ______ ____
ROOT
ATOM      1  C   UNL     1     -33.674  26.599   3.007  0.00  0.00    +0.083 C 
ATOM      2  C   UNL     1     -32.492  25.913   2.324  0.00  0.00    +0.022 C 
ENDROOT
BRANCH   1   4
ATOM      3  O   UNL     1     -32.909  28.740   4.761  0.00  0.00    -0.270 OA
ATOM      4  N   UNL     1     -33.678  28.010   2.699  0.00  0.00    -0.302 N 
ATOM      5  C   UNL     1     -33.289  28.974   3.616  0.00  0.00    +0.246 C 
ATOM      6  H   UNL     1     -33.968  28.298   1.803  0.00  0.00    +0.150 HD
BRANCH   5   7
ATOM      7  C   UNL     1     -33.374  30.382   3.153  0.00  0.00    +0.053 C 
ATOM      8  C   UNL     1     -32.250  31.205   3.212  0.00  0.00    +0.005 C 
ATOM      9  C   UNL     1     -34.579  30.882   2.659  0.00  0.00    +0.005 C 
ATOM     10  C   UNL     1     -33.535  33.028   2.283  0.00  0.00    +0.000 C 
ATOM     11  C   UNL     1     -32.330  32.528   2.778  0.00  0.00    +0.000 C 
ATOM     12  C   UNL     1     -34.660  32.204   2.225  0.00  0.00    +0.000 C 
BRANCH  10  15
ATOM     13  O   UNL     1     -33.863  38.254   0.575  0.00  0.00    -0.163 OA
ATOM     14  N   UNL     1     -33.787  37.046   0.969  0.00  0.00    -0.127 N 
ATOM     15  C   UNL     1     -33.621  34.400   1.834  0.00  0.00    +0.003 C 
ATOM     16  C   UNL     1     -34.731  34.829   1.115  0.00  0.00    +0.022 C 
ATOM     17  C   UNL     1     -32.593  35.292   2.120  0.00  0.00    +0.022 C 
ATOM     18  C   UNL     1     -34.802  36.151   0.690  0.00  0.00    +0.121 C 
ATOM     19  C   UNL     1     -32.688  36.610   1.683  0.00  0.00    +0.121 C 
ENDBRANCH  10  15
ENDBRANCH   5   7
ENDBRANCH   1   4
BRANCH   1  20
ATOM     20  C   UNL     1     -35.020  25.915   2.677  0.00  0.00    +0.121 C 
BRANCH  20  22
ATOM     21  O   UNL     1     -36.703  27.606   2.177  0.00  0.00    -0.250 OA
ATOM     22  C   UNL     1     -35.881  26.792   1.774  0.00  0.00    +0.319 C 
BRANCH  22  23
ATOM     23  O   UNL     1     -35.594  26.528   0.466  0.00  0.00    -0.444 OA
ATOM     24  C   UNL     1     -35.458  25.142   0.134  0.00  0.00    +0.256 C 
ENDBRANCH  22  23
ENDBRANCH  20  22
BRANCH  20  25
ATOM     25  C   UNL     1     -35.808  25.541   3.951  0.00  0.00    +0.039 C 
BRANCH  25  26
ATOM     26  C   UNL     1     -35.621  24.096   4.351  0.00  0.00    -0.021 C 
ATOM     27  C   UNL     1     -35.707  23.089   3.389  0.00  0.00    -0.002 C 
ATOM     28  C   UNL     1     -35.365  23.768   5.683  0.00  0.00    -0.004 C 
ATOM     29  C   UNL     1     -35.537  21.755   3.760  0.00  0.00    +0.030 C 
ATOM     30  C   UNL     1     -35.194  22.435   6.052  0.00  0.00    -0.000 C 
ATOM     31  C   UNL     1     -35.281  21.428   5.091  0.00  0.00    +0.003 C 
BRANCH  29  34
ATOM     32  N   UNL     1     -34.584  20.460   1.867  0.00  0.00    -0.343 N 
ATOM     33  N   UNL     1     -36.720  19.965   2.677  0.00  0.00    -0.285 NA
ATOM     34  C   UNL     1     -35.628  20.705   2.757  0.00  0.00    +0.117 C 
ATOM     35  H   UNL     1     -34.667  19.744   1.196  0.00  0.00    +0.144 HD
ATOM     36  H   UNL     1     -33.764  21.003   1.909  0.00  0.00    +0.144 HD
ATOM     37  H   UNL     1     -36.783  19.254   1.999  0.00  0.00    +0.188 HD
ENDBRANCH  29  34
ENDBRANCH  25  26
ENDBRANCH  20  25
ENDBRANCH   1  20
TORSDOF 9
ENDMDL
MODEL 9
REMARK VINA RESULT:      -7.0      4.847      9.726
REMARK  Name = 5496659
REMARK  9 active torsions:
REMARK  status: ('A' for Active; 'I' for Inactive)
REMARK    1  A    between atoms: C_1  and  N_4
REMARK    2  A    between atoms: C_1  and  C_20
REMARK    3  A    between atoms: C_5  and  C_7
REMARK    4  A    between atoms: C_10  and  C_15
REMARK    5  A    between atoms: C_20  and  C_22
REMARK    6  A    between atoms: C_20  and  C_25
REMARK    7  A    between atoms: C_22  and  O_23
REMARK    8  A    between atoms: C_25  and  C_26
REMARK    9  A    between atoms: C_29  and  C_34
REMARK                            x       y       z     vdW  Elec       q    Type
REMARK                         _______ _______ _______ _____ _____    ______ ____
ROOT
ATOM      1  C   UNL     1     -35.478  23.725   1.729  0.00  0.00    +0.083 C 
ATOM      2  C   UNL     1     -34.831  25.075   1.421  0.00  0.00    +0.022 C 
ENDROOT
BRANCH   1   4
ATOM      3  O   UNL     1     -35.860  21.285   0.266  0.00  0.00    -0.270 OA
ATOM      4  N   UNL     1     -34.516  22.662   1.560  0.00  0.00    -0.302 N 
ATOM      5  C   UNL     1     -34.795  21.516   0.831  0.00  0.00    +0.246 C 
ATOM      6  H   UNL     1     -33.629  22.754   1.978  0.00  0.00    +0.150 HD
BRANCH   5   7
ATOM      7  C   UNL     1     -33.709  20.504   0.772  0.00  0.00    +0.053 C 
ATOM      8  C   UNL     1     -32.546  20.771   0.050  0.00  0.00    +0.005 C 
ATOM      9  C   UNL     1     -33.851  19.288   1.439  0.00  0.00    +0.005 C 
ATOM     10  C   UNL     1     -31.669  18.604   0.661  0.00  0.00    +0.000 C 
ATOM     11  C   UNL     1     -31.526  19.821  -0.006  0.00  0.00    +0.000 C 
ATOM     12  C   UNL     1     -32.833  18.338   1.384  0.00  0.00    +0.000 C 
BRANCH  10  15
ATOM     13  O   UNL     1     -27.648  14.846   0.436  0.00  0.00    -0.163 OA
ATOM     14  N   UNL     1     -28.578  15.714   0.489  0.00  0.00    -0.127 N 
ATOM     15  C   UNL     1     -30.613  17.617   0.603  0.00  0.00    +0.003 C 
ATOM     16  C   UNL     1     -30.840  16.390  -0.012  0.00  0.00    +0.022 C 
ATOM     17  C   UNL     1     -29.370  17.893   1.161  0.00  0.00    +0.022 C 
ATOM     18  C   UNL     1     -29.817  15.450  -0.063  0.00  0.00    +0.121 C 
ATOM     19  C   UNL     1     -28.363  16.935   1.098  0.00  0.00    +0.121 C 
ENDBRANCH  10  15
ENDBRANCH   5   7
ENDBRANCH   1   4
BRANCH   1  20
ATOM     20  C   UNL     1     -36.150  23.702   3.121  0.00  0.00    +0.121 C 
BRANCH  20  22
ATOM     21  O   UNL     1     -34.247  24.069   4.600  0.00  0.00    -0.250 OA
ATOM     22  C   UNL     1     -35.150  23.337   4.214  0.00  0.00    +0.319 C 
BRANCH  22  23
ATOM     23  O   UNL     1     -35.419  22.084   4.684  0.00  0.00    -0.444 OA
ATOM     24  C   UNL     1     -35.178  21.885   6.081  0.00  0.00    +0.256 C 
ENDBRANCH  22  23
ENDBRANCH  20  22
BRANCH  20  25
ATOM     25  C   UNL     1     -37.353  22.736   3.167  0.00  0.00    +0.039 C 
BRANCH  25  26
ATOM     26  C   UNL     1     -38.574  23.288   2.469  0.00  0.00    -0.021 C 
ATOM     27  C   UNL     1     -39.156  24.474   2.917  0.00  0.00    -0.002 C 
ATOM     28  C   UNL     1     -39.121  22.611   1.379  0.00  0.00    -0.004 C 
ATOM     29  C   UNL     1     -40.285  24.983   2.274  0.00  0.00    +0.030 C 
ATOM     30  C   UNL     1     -40.249  23.120   0.736  0.00  0.00    -0.000 C 
ATOM     31  C   UNL     1     -40.832  24.305   1.184  0.00  0.00    +0.003 C 
BRANCH  29  34
ATOM     32  N   UNL     1     -41.205  26.409   4.088  0.00  0.00    -0.343 N 
ATOM     33  N   UNL     1     -41.164  27.185   1.883  0.00  0.00    -0.285 NA
ATOM     34  C   UNL     1     -40.893  26.218   2.742  0.00  0.00    +0.117 C 
ATOM     35  H   UNL     1     -41.617  27.253   4.382  0.00  0.00    +0.144 HD
ATOM     36  H   UNL     1     -41.014  25.699   4.742  0.00  0.00    +0.144 HD
ATOM     37  H   UNL     1     -41.576  28.022   2.199  0.00  0.00    +0.188 HD
ENDBRANCH  29  34
ENDBRANCH  25  26
ENDBRANCH  20  25
ENDBRANCH   1  20
TORSDOF 9
ENDMDL
