MODEL 1
REMARK VINA RESULT:      -6.6      0.000      0.000
REMARK  Name = 54888
REMARK  3 active torsions:
REMARK  status: ('A' for Active; 'I' for Inactive)
REMARK    1  A    between atoms: C_8  and  C_16
REMARK    2  A    between atoms: C_13  and  O_25
REMARK    3  A    between atoms: O_25  and  C_26
REMARK                            x       y       z     vdW  Elec       q    Type
REMARK                         _______ _______ _______ _____ _____    ______ ____
ROOT
ATOM      1  O   UNL     1     -39.163  26.624   2.661  0.00  0.00    -0.226 OA
ATOM      2  N   UNL     1     -37.151  20.298   2.110  0.00  0.00    -0.325 N 
ATOM      3  N   UNL     1     -34.903  21.864   1.436  0.00  0.00    -0.399 NA
ATOM      4  N   UNL     1     -37.399  24.483   2.128  0.00  0.00    -0.370 NA
ATOM      5  N   UNL     1     -39.645  24.337   2.850  0.00  0.00    -0.225 N 
ATOM      6  C   UNL     1     -36.059  19.668   1.401  0.00  0.00    +0.147 C 
ATOM      7  C   UNL     1     -37.247  21.679   2.109  0.00  0.00    +0.083 C 
ATOM      8  C   UNL     1     -34.839  20.573   1.293  0.00  0.00    +0.129 C 
ATOM      9  C   UNL     1     -36.135  22.448   1.758  0.00  0.00    +0.187 C 
ATOM     10  C   UNL     1     -38.423  22.325   2.490  0.00  0.00    +0.065 C 
ATOM     11  C   UNL     1     -36.267  23.831   1.783  0.00  0.00    +0.210 C 
ATOM     12  C   UNL     1     -38.449  23.710   2.478  0.00  0.00    +0.191 C 
ATOM     13  C   UNL     1     -39.922  25.698   2.917  0.00  0.00    +0.407 C 
ATOM     14  H   UNL     1     -37.818  19.752   2.587  0.00  0.00    +0.147 HD
ATOM     15  H   UNL     1     -40.384  23.737   3.096  0.00  0.00    +0.161 HD
ATOM     16  N   UNL     1     -35.144  24.618   1.417  0.00  0.00    -0.331 N 
ATOM     17  H   UNL     1     -35.207  25.600   1.424  0.00  0.00    +0.145 HD
ATOM     18  H   UNL     1     -34.302  24.180   1.154  0.00  0.00    +0.145 HD
ENDROOT
BRANCH   8  19
ATOM     19  C   UNL     1     -33.522  19.947   0.966  0.00  0.00    +0.027 C 
ATOM     20  C   UNL     1     -33.227  18.672   1.436  0.00  0.00    +0.002 C 
ATOM     21  C   UNL     1     -32.598  20.645   0.193  0.00  0.00    +0.002 C 
ATOM     22  C   UNL     1     -31.999  18.087   1.129  0.00  0.00    +0.000 C 
ATOM     23  C   UNL     1     -31.369  20.061  -0.113  0.00  0.00    +0.000 C 
ATOM     24  C   UNL     1     -31.069  18.782   0.355  0.00  0.00    +0.000 C 
ENDBRANCH   8  19
BRANCH  13  25
ATOM     25  O   UNL     1     -41.216  25.872   3.330  0.00  0.00    -0.434 OA
BRANCH  25  26
ATOM     26  C   UNL     1     -41.902  27.007   2.789  0.00  0.00    +0.210 C 
ATOM     27  C   UNL     1     -42.367  27.891   3.926  0.00  0.00    +0.051 C 
ENDBRANCH  25  26
ENDBRANCH  13  25
TORSDOF 3
ENDMDL
MODEL 2
REMARK VINA RESULT:      -6.4      7.735      9.780
REMARK  Name = 54888
REMARK  3 active torsions:
REMARK  status: ('A' for Active; 'I' for Inactive)
REMARK    1  A    between atoms: C_8  and  C_16
REMARK    2  A    between atoms: C_13  and  O_25
REMARK    3  A    between atoms: O_25  and  C_26
REMARK                            x       y       z     vdW  Elec       q    Type
REMARK                         _______ _______ _______ _____ _____    ______ ____
ROOT
ATOM      1  O   UNL     1     -35.614  24.394   3.563  0.00  0.00    -0.226 OA
ATOM      2  N   UNL     1     -31.705  28.511   7.047  0.00  0.00    -0.325 N 
ATOM      3  N   UNL     1     -31.447  29.325   4.358  0.00  0.00    -0.399 NA
ATOM      4  N   UNL     1     -33.785  26.499   4.015  0.00  0.00    -0.370 NA
ATOM      5  N   UNL     1     -34.767  25.088   5.637  0.00  0.00    -0.225 N 
ATOM      6  C   UNL     1     -30.583  29.350   6.684  0.00  0.00    +0.147 C 
ATOM      7  C   UNL     1     -32.388  27.833   6.053  0.00  0.00    +0.083 C 
ATOM      8  C   UNL     1     -30.691  29.877   5.260  0.00  0.00    +0.129 C 
ATOM      9  C   UNL     1     -32.243  28.231   4.721  0.00  0.00    +0.187 C 
ATOM     10  C   UNL     1     -33.253  26.781   6.354  0.00  0.00    +0.065 C 
ATOM     11  C   UNL     1     -32.956  27.534   3.753  0.00  0.00    +0.210 C 
ATOM     12  C   UNL     1     -33.915  26.151   5.312  0.00  0.00    +0.191 C 
ATOM     13  C   UNL     1     -35.534  24.305   4.782  0.00  0.00    +0.407 C 
ATOM     14  H   UNL     1     -31.979  28.423   7.989  0.00  0.00    +0.147 HD
ATOM     15  H   UNL     1     -34.831  24.868   6.593  0.00  0.00    +0.161 HD
ATOM     16  N   UNL     1     -32.805  27.926   2.398  0.00  0.00    -0.331 N 
ATOM     17  H   UNL     1     -33.296  27.451   1.690  0.00  0.00    +0.145 HD
ATOM     18  H   UNL     1     -32.206  28.673   2.166  0.00  0.00    +0.145 HD
ENDROOT
BRANCH   8  19
ATOM     19  C   UNL     1     -29.854  31.055   4.878  0.00  0.00    +0.027 C 
ATOM     20  C   UNL     1     -28.602  31.231   5.459  0.00  0.00    +0.002 C 
ATOM     21  C   UNL     1     -30.333  31.969   3.943  0.00  0.00    +0.002 C 
ATOM     22  C   UNL     1     -27.821  32.330   5.102  0.00  0.00    +0.000 C 
ATOM     23  C   UNL     1     -29.552  33.068   3.586  0.00  0.00    +0.000 C 
ATOM     24  C   UNL     1     -28.296  33.248   4.165  0.00  0.00    +0.000 C 
ENDBRANCH   8  19
BRANCH  13  25
ATOM     25  O   UNL     1     -36.221  23.378   5.520  0.00  0.00    -0.434 OA
BRANCH  25  26
ATOM     26  C   UNL     1     -35.425  22.475   6.296  0.00  0.00    +0.210 C 
ATOM     27  C   UNL     1     -35.062  21.278   5.444  0.00  0.00    +0.051 C 
ENDBRANCH  25  26
ENDBRANCH  13  25
TORSDOF 3
ENDMDL
MODEL 3
REMARK VINA RESULT:      -6.1      1.739      2.906
REMARK  Name = 54888
REMARK  3 active torsions:
REMARK  status: ('A' for Active; 'I' for Inactive)
REMARK    1  A    between atoms: C_8  and  C_16
REMARK    2  A    between atoms: C_13  and  O_25
REMARK    3  A    between atoms: O_25  and  C_26
REMARK                            x       y       z     vdW  Elec       q    Type
REMARK                         _______ _______ _______ _____ _____    ______ ____
ROOT
ATOM      1  O   UNL     1     -42.357  26.032   2.667  0.00  0.00    -0.226 OA
ATOM      2  N   UNL     1     -36.233  23.517   3.402  0.00  0.00    -0.325 N 
ATOM      3  N   UNL     1     -37.557  21.766   1.630  0.00  0.00    -0.399 NA
ATOM      4  N   UNL     1     -40.216  24.225   2.304  0.00  0.00    -0.370 NA
ATOM      5  N   UNL     1     -40.218  26.191   3.615  0.00  0.00    -0.225 N 
ATOM      6  C   UNL     1     -35.674  22.199   3.187  0.00  0.00    +0.147 C 
ATOM      7  C   UNL     1     -37.551  23.754   3.054  0.00  0.00    +0.083 C 
ATOM      8  C   UNL     1     -36.371  21.452   2.058  0.00  0.00    +0.129 C 
ATOM      9  C   UNL     1     -38.206  22.874   2.189  0.00  0.00    +0.187 C 
ATOM     10  C   UNL     1     -38.233  24.879   3.519  0.00  0.00    +0.065 C 
ATOM     11  C   UNL     1     -39.526  23.154   1.853  0.00  0.00    +0.210 C 
ATOM     12  C   UNL     1     -39.549  25.063   3.124  0.00  0.00    +0.191 C 
ATOM     13  C   UNL     1     -41.526  26.593   3.369  0.00  0.00    +0.407 C 
ATOM     14  H   UNL     1     -35.683  24.235   3.790  0.00  0.00    +0.147 HD
ATOM     15  H   UNL     1     -39.695  26.774   4.209  0.00  0.00    +0.161 HD
ATOM     16  N   UNL     1     -40.200  22.258   0.984  0.00  0.00    -0.331 N 
ATOM     17  H   UNL     1     -41.135  22.430   0.728  0.00  0.00    +0.145 HD
ATOM     18  H   UNL     1     -39.732  21.464   0.637  0.00  0.00    +0.145 HD
ENDROOT
BRANCH   8  19
ATOM     19  C   UNL     1     -35.670  20.280   1.450  0.00  0.00    +0.027 C 
ATOM     20  C   UNL     1     -36.321  19.506   0.494  0.00  0.00    +0.002 C 
ATOM     21  C   UNL     1     -34.371  19.971   1.843  0.00  0.00    +0.002 C 
ATOM     22  C   UNL     1     -35.667  18.413  -0.075  0.00  0.00    +0.000 C 
ATOM     23  C   UNL     1     -33.717  18.877   1.275  0.00  0.00    +0.000 C 
ATOM     24  C   UNL     1     -34.365  18.099   0.316  0.00  0.00    +0.000 C 
ENDBRANCH   8  19
BRANCH  13  25
ATOM     25  O   UNL     1     -41.772  27.757   4.048  0.00  0.00    -0.434 OA
BRANCH  25  26
ATOM     26  C   UNL     1     -43.141  28.175   4.106  0.00  0.00    +0.210 C 
ATOM     27  C   UNL     1     -43.262  29.338   5.068  0.00  0.00    +0.051 C 
ENDBRANCH  25  26
ENDBRANCH  13  25
TORSDOF 3
ENDMDL
MODEL 4
REMARK VINA RESULT:      -6.1      5.066      7.400
REMARK  Name = 54888
REMARK  3 active torsions:
REMARK  status: ('A' for Active; 'I' for Inactive)
REMARK    1  A    between atoms: C_8  and  C_16
REMARK    2  A    between atoms: C_13  and  O_25
REMARK    3  A    between atoms: O_25  and  C_26
REMARK                            x       y       z     vdW  Elec       q    Type
REMARK                         _______ _______ _______ _____ _____    ______ ____
ROOT
ATOM      1  O   UNL     1     -32.684  29.922   4.866  0.00  0.00    -0.226 OA
ATOM      2  N   UNL     1     -34.871  23.635   5.106  0.00  0.00    -0.325 N 
ATOM      3  N   UNL     1     -36.374  24.878   3.067  0.00  0.00    -0.399 NA
ATOM      4  N   UNL     1     -34.253  27.677   4.179  0.00  0.00    -0.370 NA
ATOM      5  N   UNL     1     -32.547  27.781   5.811  0.00  0.00    -0.225 N 
ATOM      6  C   UNL     1     -36.091  22.997   4.661  0.00  0.00    +0.147 C 
ATOM      7  C   UNL     1     -34.666  24.973   4.815  0.00  0.00    +0.083 C 
ATOM      8  C   UNL     1     -36.677  23.665   3.425  0.00  0.00    +0.129 C 
ATOM      9  C   UNL     1     -35.426  25.586   3.816  0.00  0.00    +0.187 C 
ATOM     10  C   UNL     1     -33.687  25.717   5.473  0.00  0.00    +0.065 C 
ATOM     11  C   UNL     1     -35.181  26.927   3.543  0.00  0.00    +0.210 C 
ATOM     12  C   UNL     1     -33.526  27.049   5.127  0.00  0.00    +0.191 C 
ATOM     13  C   UNL     1     -32.198  29.116   5.650  0.00  0.00    +0.407 C 
ATOM     14  H   UNL     1     -34.195  23.125   5.609  0.00  0.00    +0.147 HD
ATOM     15  H   UNL     1     -32.042  27.285   6.494  0.00  0.00    +0.161 HD
ATOM     16  N   UNL     1     -35.956  27.558   2.537  0.00  0.00    -0.331 N 
ATOM     17  H   UNL     1     -35.806  28.507   2.323  0.00  0.00    +0.145 HD
ATOM     18  H   UNL     1     -36.646  27.047   2.054  0.00  0.00    +0.145 HD
ENDROOT
BRANCH   8  19
ATOM     19  C   UNL     1     -37.676  22.902   2.617  0.00  0.00    +0.027 C 
ATOM     20  C   UNL     1     -38.974  23.385   2.489  0.00  0.00    +0.002 C 
ATOM     21  C   UNL     1     -37.301  21.712   1.998  0.00  0.00    +0.002 C 
ATOM     22  C   UNL     1     -39.907  22.673   1.734  0.00  0.00    +0.000 C 
ATOM     23  C   UNL     1     -38.234  21.000   1.243  0.00  0.00    +0.000 C 
ATOM     24  C   UNL     1     -39.536  21.481   1.111  0.00  0.00    +0.000 C 
ENDBRANCH   8  19
BRANCH  13  25
ATOM     25  O   UNL     1     -31.188  29.424   6.522  0.00  0.00    -0.434 OA
BRANCH  25  26
ATOM     26  C   UNL     1     -29.979  28.670   6.376  0.00  0.00    +0.210 C 
ATOM     27  C   UNL     1     -28.795  29.593   6.577  0.00  0.00    +0.051 C 
ENDBRANCH  25  26
ENDBRANCH  13  25
TORSDOF 3
ENDMDL
MODEL 5
REMARK VINA RESULT:      -6.1      2.642      9.186
REMARK  Name = 54888
REMARK  3 active torsions:
REMARK  status: ('A' for Active; 'I' for Inactive)
REMARK    1  A    between atoms: C_8  and  C_16
REMARK    2  A    between atoms: C_13  and  O_25
REMARK    3  A    between atoms: O_25  and  C_26
REMARK                            x       y       z     vdW  Elec       q    Type
REMARK                         _______ _______ _______ _____ _____    ______ ____
ROOT
ATOM      1  O   UNL     1     -35.296  22.351   3.897  0.00  0.00    -0.226 OA
ATOM      2  N   UNL     1     -41.169  23.989   1.217  0.00  0.00    -0.325 N 
ATOM      3  N   UNL     1     -40.282  26.307   2.558  0.00  0.00    -0.399 NA
ATOM      4  N   UNL     1     -37.520  23.978   3.280  0.00  0.00    -0.370 NA
ATOM      5  N   UNL     1     -37.154  21.744   2.603  0.00  0.00    -0.225 N 
ATOM      6  C   UNL     1     -42.132  25.029   1.509  0.00  0.00    +0.147 C 
ATOM      7  C   UNL     1     -39.968  23.971   1.904  0.00  0.00    +0.083 C 
ATOM      8  C   UNL     1     -41.474  26.294   2.040  0.00  0.00    +0.129 C 
ATOM      9  C   UNL     1     -39.542  25.117   2.579  0.00  0.00    +0.187 C 
ATOM     10  C   UNL     1     -39.149  22.842   1.904  0.00  0.00    +0.065 C 
ATOM     11  C   UNL     1     -38.323  25.064   3.245  0.00  0.00    +0.210 C 
ATOM     12  C   UNL     1     -37.953  22.894   2.603  0.00  0.00    +0.191 C 
ATOM     13  C   UNL     1     -35.926  21.546   3.222  0.00  0.00    +0.407 C 
ATOM     14  H   UNL     1     -41.366  23.303   0.539  0.00  0.00    +0.147 HD
ATOM     15  H   UNL     1     -37.508  20.977   2.099  0.00  0.00    +0.161 HD
ATOM     16  N   UNL     1     -37.891  26.222   3.942  0.00  0.00    -0.331 N 
ATOM     17  H   UNL     1     -37.032  26.214   4.424  0.00  0.00    +0.145 HD
ATOM     18  H   UNL     1     -38.450  27.032   3.946  0.00  0.00    +0.145 HD
ENDROOT
BRANCH   8  19
ATOM     19  C   UNL     1     -42.257  27.567   2.001  0.00  0.00    +0.027 C 
ATOM     20  C   UNL     1     -42.215  28.370   0.866  0.00  0.00    +0.002 C 
ATOM     21  C   UNL     1     -43.024  27.941   3.101  0.00  0.00    +0.002 C 
ATOM     22  C   UNL     1     -42.946  29.557   0.829  0.00  0.00    +0.000 C 
ATOM     23  C   UNL     1     -43.756  29.128   3.065  0.00  0.00    +0.000 C 
ATOM     24  C   UNL     1     -43.717  29.936   1.929  0.00  0.00    +0.000 C 
ENDBRANCH   8  19
BRANCH  13  25
ATOM     25  O   UNL     1     -35.493  20.273   2.963  0.00  0.00    -0.434 OA
BRANCH  25  26
ATOM     26  C   UNL     1     -35.209  19.971   1.592  0.00  0.00    +0.210 C 
ATOM     27  C   UNL     1     -33.812  19.396   1.492  0.00  0.00    +0.051 C 
ENDBRANCH  25  26
ENDBRANCH  13  25
TORSDOF 3
ENDMDL
MODEL 6
REMARK VINA RESULT:      -6.1      5.971      7.422
REMARK  Name = 54888
REMARK  3 active torsions:
REMARK  status: ('A' for Active; 'I' for Inactive)
REMARK    1  A    between atoms: C_8  and  C_16
REMARK    2  A    between atoms: C_13  and  O_25
REMARK    3  A    between atoms: O_25  and  C_26
REMARK                            x       y       z     vdW  Elec       q    Type
REMARK                         _______ _______ _______ _____ _____    ______ ____
ROOT
ATOM      1  O   UNL     1     -32.774  32.313   2.942  0.00  0.00    -0.226 OA
ATOM      2  N   UNL     1     -36.616  26.911   2.293  0.00  0.00    -0.325 N 
ATOM      3  N   UNL     1     -34.566  26.166   4.083  0.00  0.00    -0.399 NA
ATOM      4  N   UNL     1     -33.624  29.651   3.350  0.00  0.00    -0.370 NA
ATOM      5  N   UNL     1     -34.667  31.293   2.007  0.00  0.00    -0.225 N 
ATOM      6  C   UNL     1     -36.387  25.502   2.533  0.00  0.00    +0.147 C 
ATOM      7  C   UNL     1     -35.627  27.820   2.627  0.00  0.00    +0.083 C 
ATOM      8  C   UNL     1     -35.403  25.261   3.669  0.00  0.00    +0.129 C 
ATOM      9  C   UNL     1     -34.606  27.440   3.501  0.00  0.00    +0.187 C 
ATOM     10  C   UNL     1     -35.648  29.127   2.139  0.00  0.00    +0.065 C 
ATOM     11  C   UNL     1     -33.640  28.385   3.823  0.00  0.00    +0.210 C 
ATOM     12  C   UNL     1     -34.634  29.990   2.521  0.00  0.00    +0.191 C 
ATOM     13  C   UNL     1     -33.775  32.334   2.236  0.00  0.00    +0.407 C 
ATOM     14  H   UNL     1     -37.463  27.219   1.897  0.00  0.00    +0.147 HD
ATOM     15  H   UNL     1     -35.419  31.497   1.407  0.00  0.00    +0.161 HD
ATOM     16  N   UNL     1     -32.594  28.002   4.702  0.00  0.00    -0.331 N 
ATOM     17  H   UNL     1     -31.895  28.649   4.948  0.00  0.00    +0.145 HD
ATOM     18  H   UNL     1     -32.567  27.086   5.065  0.00  0.00    +0.145 HD
ENDROOT
BRANCH   8  19
ATOM     19  C   UNL     1     -35.373  23.907   4.301  0.00  0.00    +0.027 C 
ATOM     20  C   UNL     1     -35.448  22.770   3.504  0.00  0.00    +0.002 C 
ATOM     21  C   UNL     1     -35.270  23.793   5.685  0.00  0.00    +0.002 C 
ATOM     22  C   UNL     1     -35.419  21.506   4.094  0.00  0.00    +0.000 C 
ATOM     23  C   UNL     1     -35.242  22.529   6.276  0.00  0.00    +0.000 C 
ATOM     24  C   UNL     1     -35.316  21.386   5.480  0.00  0.00    +0.000 C 
ENDBRANCH   8  19
BRANCH  13  25
ATOM     25  O   UNL     1     -34.185  33.438   1.537  0.00  0.00    -0.434 OA
BRANCH  25  26
ATOM     26  C   UNL     1     -33.555  34.675   1.887  0.00  0.00    +0.210 C 
ATOM     27  C   UNL     1     -34.324  35.817   1.257  0.00  0.00    +0.051 C 
ENDBRANCH  25  26
ENDBRANCH  13  25
TORSDOF 3
ENDMDL
MODEL 7
REMARK VINA RESULT:      -6.0      5.262      6.840
REMARK  Name = 54888
REMARK  3 active torsions:
REMARK  status: ('A' for Active; 'I' for Inactive)
REMARK    1  A    between atoms: C_8  and  C_16
REMARK    2  A    between atoms: C_13  and  O_25
REMARK    3  A    between atoms: O_25  and  C_26
REMARK                            x       y       z     vdW  Elec       q    Type
REMARK                         _______ _______ _______ _____ _____    ______ ____
ROOT
ATOM      1  O   UNL     1     -37.573  31.204  -0.441  0.00  0.00    -0.226 OA
ATOM      2  N   UNL     1     -34.085  27.686   4.011  0.00  0.00    -0.325 N 
ATOM      3  N   UNL     1     -35.960  25.878   2.926  0.00  0.00    -0.399 NA
ATOM      4  N   UNL     1     -36.810  28.956   1.090  0.00  0.00    -0.370 NA
ATOM      5  N   UNL     1     -35.844  31.113   1.139  0.00  0.00    -0.225 N 
ATOM      6  C   UNL     1     -34.352  26.457   4.726  0.00  0.00    +0.147 C 
ATOM      7  C   UNL     1     -34.987  28.118   3.055  0.00  0.00    +0.083 C 
ATOM      8  C   UNL     1     -35.217  25.496   3.923  0.00  0.00    +0.129 C 
ATOM      9  C   UNL     1     -35.924  27.223   2.534  0.00  0.00    +0.187 C 
ATOM     10  C   UNL     1     -34.957  29.426   2.568  0.00  0.00    +0.065 C 
ATOM     11  C   UNL     1     -36.803  27.691   1.565  0.00  0.00    +0.210 C 
ATOM     12  C   UNL     1     -35.882  29.791   1.603  0.00  0.00    +0.191 C 
ATOM     13  C   UNL     1     -36.655  31.717   0.186  0.00  0.00    +0.407 C 
ATOM     14  H   UNL     1     -33.272  28.208   4.202  0.00  0.00    +0.147 HD
ATOM     15  H   UNL     1     -35.153  31.686   1.540  0.00  0.00    +0.161 HD
ATOM     16  N   UNL     1     -37.764  26.789   1.040  0.00  0.00    -0.331 N 
ATOM     17  H   UNL     1     -38.401  27.092   0.354  0.00  0.00    +0.145 HD
ATOM     18  H   UNL     1     -37.794  25.859   1.364  0.00  0.00    +0.145 HD
ENDROOT
BRANCH   8  19
ATOM     19  C   UNL     1     -35.242  24.058   4.331  0.00  0.00    +0.027 C 
ATOM     20  C   UNL     1     -35.395  23.068   3.366  0.00  0.00    +0.002 C 
ATOM     21  C   UNL     1     -35.112  23.719   5.675  0.00  0.00    +0.002 C 
ATOM     22  C   UNL     1     -35.417  21.727   3.747  0.00  0.00    +0.000 C 
ATOM     23  C   UNL     1     -35.135  22.378   6.057  0.00  0.00    +0.000 C 
ATOM     24  C   UNL     1     -35.287  21.381   5.093  0.00  0.00    +0.000 C 
ENDBRANCH   8  19
BRANCH  13  25
ATOM     25  O   UNL     1     -36.272  33.023   0.034  0.00  0.00    -0.434 OA
BRANCH  25  26
ATOM     26  C   UNL     1     -35.379  33.536   1.029  0.00  0.00    +0.210 C 
ATOM     27  C   UNL     1     -35.578  35.033   1.147  0.00  0.00    +0.051 C 
ENDBRANCH  25  26
ENDBRANCH  13  25
TORSDOF 3
ENDMDL
MODEL 8
REMARK VINA RESULT:      -5.9      6.525      9.246
REMARK  Name = 54888
REMARK  3 active torsions:
REMARK  status: ('A' for Active; 'I' for Inactive)
REMARK    1  A    between atoms: C_8  and  C_16
REMARK    2  A    between atoms: C_13  and  O_25
REMARK    3  A    between atoms: O_25  and  C_26
REMARK                            x       y       z     vdW  Elec       q    Type
REMARK                         _______ _______ _______ _____ _____    ______ ____
ROOT
ATOM      1  O   UNL     1     -37.408  24.065   2.943  0.00  0.00    -0.226 OA
ATOM      2  N   UNL     1     -32.563  28.207   4.875  0.00  0.00    -0.325 N 
ATOM      3  N   UNL     1     -34.113  29.673   3.028  0.00  0.00    -0.399 NA
ATOM      4  N   UNL     1     -35.892  26.447   3.035  0.00  0.00    -0.370 NA
ATOM      5  N   UNL     1     -35.518  24.468   4.270  0.00  0.00    -0.225 N 
ATOM      6  C   UNL     1     -31.993  29.402   4.289  0.00  0.00    +0.147 C 
ATOM      7  C   UNL     1     -33.654  27.613   4.265  0.00  0.00    +0.083 C 
ATOM      8  C   UNL     1     -33.011  30.194   3.482  0.00  0.00    +0.129 C 
ATOM      9  C   UNL     1     -34.407  28.339   3.339  0.00  0.00    +0.187 C 
ATOM     10  C   UNL     1     -34.044  26.313   4.585  0.00  0.00    +0.065 C 
ATOM     11  C   UNL     1     -35.504  27.712   2.759  0.00  0.00    +0.210 C 
ATOM     12  C   UNL     1     -35.153  25.780   3.945  0.00  0.00    +0.191 C 
ATOM     13  C   UNL     1     -36.577  23.718   3.773  0.00  0.00    +0.407 C 
ATOM     14  H   UNL     1     -32.180  27.823   5.696  0.00  0.00    +0.147 HD
ATOM     15  H   UNL     1     -34.951  24.019   4.937  0.00  0.00    +0.161 HD
ATOM     16  N   UNL     1     -36.266  28.440   1.810  0.00  0.00    -0.331 N 
ATOM     17  H   UNL     1     -37.048  28.022   1.382  0.00  0.00    +0.145 HD
ATOM     18  H   UNL     1     -36.012  29.363   1.578  0.00  0.00    +0.145 HD
ENDROOT
BRANCH   8  19
ATOM     19  C   UNL     1     -32.705  31.622   3.165  0.00  0.00    +0.027 C 
ATOM     20  C   UNL     1     -31.500  32.179   3.582  0.00  0.00    +0.002 C 
ATOM     21  C   UNL     1     -33.627  32.386   2.455  0.00  0.00    +0.002 C 
ATOM     22  C   UNL     1     -31.213  33.511   3.285  0.00  0.00    +0.000 C 
ATOM     23  C   UNL     1     -33.341  33.718   2.158  0.00  0.00    +0.000 C 
ATOM     24  C   UNL     1     -32.134  34.281   2.573  0.00  0.00    +0.000 C 
ENDBRANCH   8  19
BRANCH  13  25
ATOM     25  O   UNL     1     -36.568  22.483   4.364  0.00  0.00    -0.434 OA
BRANCH  25  26
ATOM     26  C   UNL     1     -35.318  22.061   4.922  0.00  0.00    +0.210 C 
ATOM     27  C   UNL     1     -35.455  21.970   6.427  0.00  0.00    +0.051 C 
ENDBRANCH  25  26
ENDBRANCH  13  25
TORSDOF 3
ENDMDL
MODEL 9
REMARK VINA RESULT:      -5.8      4.493      7.408
REMARK  Name = 54888
REMARK  3 active torsions:
REMARK  status: ('A' for Active; 'I' for Inactive)
REMARK    1  A    between atoms: C_8  and  C_16
REMARK    2  A    between atoms: C_13  and  O_25
REMARK    3  A    between atoms: O_25  and  C_26
REMARK                            x       y       z     vdW  Elec       q    Type
REMARK                         _______ _______ _______ _____ _____    ______ ____
ROOT
ATOM      1  O   UNL     1     -36.420  16.660  -1.145  0.00  0.00    -0.226 OA
ATOM      2  N   UNL     1     -38.564  22.354   1.565  0.00  0.00    -0.325 N 
ATOM      3  N   UNL     1     -35.958  21.973   2.578  0.00  0.00    -0.399 NA
ATOM      4  N   UNL     1     -36.332  18.982   0.460  0.00  0.00    -0.370 NA
ATOM      5  N   UNL     1     -38.104  18.277  -0.935  0.00  0.00    -0.225 N 
ATOM      6  C   UNL     1     -38.162  23.102   2.737  0.00  0.00    +0.147 C 
ATOM      7  C   UNL     1     -37.840  21.232   1.202  0.00  0.00    +0.083 C 
ATOM      8  C   UNL     1     -36.678  22.953   3.039  0.00  0.00    +0.129 C 
ATOM      9  C   UNL     1     -36.556  21.041   1.720  0.00  0.00    +0.187 C 
ATOM     10  C   UNL     1     -38.349  20.302   0.295  0.00  0.00    +0.065 C 
ATOM     11  C   UNL     1     -35.855  19.909   1.320  0.00  0.00    +0.210 C 
ATOM     12  C   UNL     1     -37.567  19.205  -0.034  0.00  0.00    +0.191 C 
ATOM     13  C   UNL     1     -37.526  17.109  -1.417  0.00  0.00    +0.407 C 
ATOM     14  H   UNL     1     -39.342  22.639   1.033  0.00  0.00    +0.147 HD
ATOM     15  H   UNL     1     -39.007  18.478  -1.269  0.00  0.00    +0.161 HD
ATOM     16  N   UNL     1     -34.556  19.704   1.851  0.00  0.00    -0.331 N 
ATOM     17  H   UNL     1     -34.036  18.911   1.588  0.00  0.00    +0.145 HD
ATOM     18  H   UNL     1     -34.175  20.355   2.486  0.00  0.00    +0.145 HD
ENDROOT
BRANCH   8  19
ATOM     19  C   UNL     1     -36.036  23.958   3.940  0.00  0.00    +0.027 C 
ATOM     20  C   UNL     1     -36.790  25.011   4.448  0.00  0.00    +0.002 C 
ATOM     21  C   UNL     1     -34.688  23.833   4.265  0.00  0.00    +0.002 C 
ATOM     22  C   UNL     1     -36.191  25.948   5.291  0.00  0.00    +0.000 C 
ATOM     23  C   UNL     1     -34.089  24.770   5.107  0.00  0.00    +0.000 C 
ATOM     24  C   UNL     1     -34.841  25.827   5.620  0.00  0.00    +0.000 C 
ENDBRANCH   8  19
BRANCH  13  25
ATOM     25  O   UNL     1     -38.399  16.500  -2.280  0.00  0.00    -0.434 OA
BRANCH  25  26
ATOM     26  C   UNL     1     -39.690  16.180  -1.748  0.00  0.00    +0.210 C 
ATOM     27  C   UNL     1     -39.557  15.006  -0.802  0.00  0.00    +0.051 C 
ENDBRANCH  25  26
ENDBRANCH  13  25
TORSDOF 3
ENDMDL
