MODEL 1
REMARK VINA RESULT:      -6.1      0.000      0.000
REMARK  Name = 5249326
REMARK  9 active torsions:
REMARK  status: ('A' for Active; 'I' for Inactive)
REMARK    1  A    between atoms: O_1  and  C_2
REMARK    2  A    between atoms: O_1  and  C_15
REMARK    3  A    between atoms: C_3  and  C_12
REMARK    4  A    between atoms: C_6  and  O_9
REMARK    5  A    between atoms: C_12  and  O_13
REMARK    6  A    between atoms: C_16  and  C_26
REMARK    7  A    between atoms: C_17  and  O_21
REMARK    8  A    between atoms: C_20  and  O_23
REMARK    9  A    between atoms: C_26  and  O_27
REMARK                            x       y       z     vdW  Elec       q    Type
REMARK                         _______ _______ _______ _____ _____    ______ ____
ROOT
ATOM      1  O   UNL     1     -37.397  22.941   3.438  0.00  0.00    -0.450 OA
ENDROOT
BRANCH   1   2
ATOM      2  C   UNL     1     -37.095  21.900   2.579  0.00  0.00    +0.154 C 
ATOM      3  C   UNL     1     -38.083  21.346   1.783  0.00  0.00    +0.144 C 
ATOM      4  C   UNL     1     -35.466  20.386   1.682  0.00  0.00    -0.016 C 
ATOM      5  C   UNL     1     -35.791  21.436   2.542  0.00  0.00    +0.034 C 
ATOM      6  C   UNL     1     -37.758  20.297   0.923  0.00  0.00    +0.143 C 
ATOM      7  C   UNL     1     -36.448  19.816   0.873  0.00  0.00    +0.033 C 
ATOM      8  C   UNL     1     -34.066  19.873   1.628  0.00  0.00    +0.031 C 
BRANCH   6   9
ATOM      9  O   UNL     1     -38.703  19.726   0.124  0.00  0.00    -0.505 OA
ATOM     10  H   UNL     1     -38.967  20.153  -0.667  0.00  0.00    +0.292 HD
ENDBRANCH   6   9
BRANCH   3  12
ATOM     11  O   UNL     1     -40.418  21.194   2.243  0.00  0.00    -0.245 OA
ATOM     12  C   UNL     1     -39.451  21.848   1.835  0.00  0.00    +0.347 C 
BRANCH  12  13
ATOM     13  O   UNL     1     -39.529  23.132   1.376  0.00  0.00    -0.441 OA
ATOM     14  C   UNL     1     -39.807  23.303  -0.018  0.00  0.00    +0.256 C 
ENDBRANCH  12  13
ENDBRANCH   3  12
ENDBRANCH   1   2
BRANCH   1  15
ATOM     15  C   UNL     1     -36.379  23.773   3.803  0.00  0.00    +0.185 C 
ATOM     16  C   UNL     1     -35.984  24.814   2.963  0.00  0.00    +0.116 C 
ATOM     17  C   UNL     1     -35.735  23.580   5.025  0.00  0.00    +0.176 C 
ATOM     18  C   UNL     1     -34.944  25.662   3.343  0.00  0.00    +0.046 C 
ATOM     19  C   UNL     1     -34.694  24.428   5.406  0.00  0.00    +0.077 C 
ATOM     20  C   UNL     1     -34.299  25.469   4.565  0.00  0.00    +0.137 C 
BRANCH  17  21
ATOM     21  O   UNL     1     -36.110  22.568   5.856  0.00  0.00    -0.468 OA
ATOM     22  C   UNL     1     -35.135  21.567   6.138  0.00  0.00    +0.253 C 
ENDBRANCH  17  21
BRANCH  20  23
ATOM     23  O   UNL     1     -33.284  26.296   4.937  0.00  0.00    -0.505 OA
ATOM     24  H   UNL     1     -33.179  26.534   5.836  0.00  0.00    +0.292 HD
ENDBRANCH  20  23
BRANCH  16  26
ATOM     25  O   UNL     1     -36.300  24.508   0.619  0.00  0.00    -0.245 OA
ATOM     26  C   UNL     1     -36.645  25.034   1.683  0.00  0.00    +0.345 C 
BRANCH  26  27
ATOM     27  O   UNL     1     -37.699  25.896   1.806  0.00  0.00    -0.441 OA
ATOM     28  C   UNL     1     -38.105  26.592   0.623  0.00  0.00    +0.256 C 
ENDBRANCH  26  27
ENDBRANCH  16  26
ENDBRANCH   1  15
TORSDOF 9
ENDMDL
MODEL 2
REMARK VINA RESULT:      -5.8      1.782      3.360
REMARK  Name = 5249326
REMARK  9 active torsions:
REMARK  status: ('A' for Active; 'I' for Inactive)
REMARK    1  A    between atoms: O_1  and  C_2
REMARK    2  A    between atoms: O_1  and  C_15
REMARK    3  A    between atoms: C_3  and  C_12
REMARK    4  A    between atoms: C_6  and  O_9
REMARK    5  A    between atoms: C_12  and  O_13
REMARK    6  A    between atoms: C_16  and  C_26
REMARK    7  A    between atoms: C_17  and  O_21
REMARK    8  A    between atoms: C_20  and  O_23
REMARK    9  A    between atoms: C_26  and  O_27
REMARK                            x       y       z     vdW  Elec       q    Type
REMARK                         _______ _______ _______ _____ _____    ______ ____
ROOT
ATOM      1  O   UNL     1     -35.798  23.317   2.590  0.00  0.00    -0.450 OA
ENDROOT
BRANCH   1   2
ATOM      2  C   UNL     1     -37.177  23.284   2.496  0.00  0.00    +0.154 C 
ATOM      3  C   UNL     1     -37.823  22.109   2.150  0.00  0.00    +0.144 C 
ATOM      4  C   UNL     1     -39.274  24.435   2.665  0.00  0.00    -0.016 C 
ATOM      5  C   UNL     1     -37.882  24.447   2.755  0.00  0.00    +0.034 C 
ATOM      6  C   UNL     1     -39.215  22.096   2.061  0.00  0.00    +0.143 C 
ATOM      7  C   UNL     1     -39.941  23.260   2.318  0.00  0.00    +0.033 C 
ATOM      8  C   UNL     1     -40.050  25.678   2.941  0.00  0.00    +0.031 C 
BRANCH   6   9
ATOM      9  O   UNL     1     -39.886  20.959   1.724  0.00  0.00    -0.505 OA
ATOM     10  H   UNL     1     -39.810  20.194   2.260  0.00  0.00    +0.292 HD
ENDBRANCH   6   9
BRANCH   3  12
ATOM     11  O   UNL     1     -36.413  20.276   2.731  0.00  0.00    -0.245 OA
ATOM     12  C   UNL     1     -37.065  20.893   1.881  0.00  0.00    +0.347 C 
BRANCH  12  13
ATOM     13  O   UNL     1     -37.166  20.521   0.570  0.00  0.00    -0.441 OA
ATOM     14  C   UNL     1     -36.933  19.140   0.273  0.00  0.00    +0.256 C 
ENDBRANCH  12  13
ENDBRANCH   3  12
ENDBRANCH   1   2
BRANCH   1  15
ATOM     15  C   UNL     1     -35.247  24.171   3.501  0.00  0.00    +0.185 C 
ATOM     16  C   UNL     1     -34.558  25.307   3.075  0.00  0.00    +0.116 C 
ATOM     17  C   UNL     1     -35.378  23.904   4.864  0.00  0.00    +0.176 C 
ATOM     18  C   UNL     1     -33.999  26.175   4.012  0.00  0.00    +0.046 C 
ATOM     19  C   UNL     1     -34.819  24.773   5.801  0.00  0.00    +0.077 C 
ATOM     20  C   UNL     1     -34.129  25.909   5.375  0.00  0.00    +0.137 C 
BRANCH  17  21
ATOM     21  O   UNL     1     -36.049  22.799   5.294  0.00  0.00    -0.468 OA
ATOM     22  C   UNL     1     -35.291  21.812   5.989  0.00  0.00    +0.253 C 
ENDBRANCH  17  21
BRANCH  20  23
ATOM     23  O   UNL     1     -33.584  26.757   6.289  0.00  0.00    -0.505 OA
ATOM     24  H   UNL     1     -32.654  26.827   6.367  0.00  0.00    +0.292 HD
ENDBRANCH  20  23
BRANCH  16  26
ATOM     25  O   UNL     1     -35.272  26.164   0.968  0.00  0.00    -0.245 OA
ATOM     26  C   UNL     1     -34.411  25.604   1.657  0.00  0.00    +0.345 C 
BRANCH  26  27
ATOM     27  O   UNL     1     -33.199  25.187   1.181  0.00  0.00    -0.441 OA
ATOM     28  C   UNL     1     -33.211  24.099   0.252  0.00  0.00    +0.256 C 
ENDBRANCH  26  27
ENDBRANCH  16  26
ENDBRANCH   1  15
TORSDOF 9
ENDMDL
MODEL 3
REMARK VINA RESULT:      -5.6      1.690      6.058
REMARK  Name = 5249326
REMARK  9 active torsions:
REMARK  status: ('A' for Active; 'I' for Inactive)
REMARK    1  A    between atoms: O_1  and  C_2
REMARK    2  A    between atoms: O_1  and  C_15
REMARK    3  A    between atoms: C_3  and  C_12
REMARK    4  A    between atoms: C_6  and  O_9
REMARK    5  A    between atoms: C_12  and  O_13
REMARK    6  A    between atoms: C_16  and  C_26
REMARK    7  A    between atoms: C_17  and  O_21
REMARK    8  A    between atoms: C_20  and  O_23
REMARK    9  A    between atoms: C_26  and  O_27
REMARK                            x       y       z     vdW  Elec       q    Type
REMARK                         _______ _______ _______ _____ _____    ______ ____
ROOT
ATOM      1  O   UNL     1     -36.145  23.839   1.961  0.00  0.00    -0.450 OA
ENDROOT
BRANCH   1   2
ATOM      2  C   UNL     1     -35.719  24.054   3.259  0.00  0.00    +0.154 C 
ATOM      3  C   UNL     1     -35.280  25.308   3.650  0.00  0.00    +0.144 C 
ATOM      4  C   UNL     1     -35.321  23.184   5.458  0.00  0.00    -0.016 C 
ATOM      5  C   UNL     1     -35.746  22.989   4.144  0.00  0.00    +0.034 C 
ATOM      6  C   UNL     1     -34.855  25.503   4.964  0.00  0.00    +0.143 C 
ATOM      7  C   UNL     1     -34.875  24.440   5.869  0.00  0.00    +0.033 C 
ATOM      8  C   UNL     1     -35.343  22.050   6.426  0.00  0.00    +0.031 C 
BRANCH   6   9
ATOM      9  O   UNL     1     -34.416  26.722   5.385  0.00  0.00    -0.505 OA
ATOM     10  H   UNL     1     -34.923  27.216   5.998  0.00  0.00    +0.292 HD
ENDBRANCH   6   9
BRANCH   3  12
ATOM     11  O   UNL     1     -36.257  27.064   2.366  0.00  0.00    -0.245 OA
ATOM     12  C   UNL     1     -35.259  26.418   2.704  0.00  0.00    +0.347 C 
BRANCH  12  13
ATOM     13  O   UNL     1     -33.996  26.654   2.239  0.00  0.00    -0.441 OA
ATOM     14  C   UNL     1     -33.562  28.018   2.216  0.00  0.00    +0.256 C 
ENDBRANCH  12  13
ENDBRANCH   3  12
ENDBRANCH   1   2
BRANCH   1  15
ATOM     15  C   UNL     1     -37.284  23.109   1.782  0.00  0.00    +0.185 C 
ATOM     16  C   UNL     1     -37.219  21.824   1.242  0.00  0.00    +0.116 C 
ATOM     17  C   UNL     1     -38.516  23.652   2.145  0.00  0.00    +0.176 C 
ATOM     18  C   UNL     1     -38.387  21.083   1.063  0.00  0.00    +0.046 C 
ATOM     19  C   UNL     1     -39.685  22.911   1.965  0.00  0.00    +0.077 C 
ATOM     20  C   UNL     1     -39.620  21.626   1.425  0.00  0.00    +0.137 C 
BRANCH  17  21
ATOM     21  O   UNL     1     -38.595  24.905   2.673  0.00  0.00    -0.468 OA
ATOM     22  C   UNL     1     -39.727  25.691   2.310  0.00  0.00    +0.253 C 
ENDBRANCH  17  21
BRANCH  20  23
ATOM     23  O   UNL     1     -40.759  20.902   1.251  0.00  0.00    -0.505 OA
ATOM     24  H   UNL     1     -40.903  20.127   1.756  0.00  0.00    +0.292 HD
ENDBRANCH  20  23
BRANCH  16  26
ATOM     25  O   UNL     1     -35.339  21.502  -0.187  0.00  0.00    -0.245 OA
ATOM     26  C   UNL     1     -35.942  21.238   0.859  0.00  0.00    +0.345 C 
BRANCH  26  27
ATOM     27  O   UNL     1     -35.492  20.358   1.804  0.00  0.00    -0.441 OA
ATOM     28  C   UNL     1     -34.225  19.738   1.556  0.00  0.00    +0.256 C 
ENDBRANCH  26  27
ENDBRANCH  16  26
ENDBRANCH   1  15
TORSDOF 9
ENDMDL
MODEL 4
REMARK VINA RESULT:      -5.6      2.499      5.911
REMARK  Name = 5249326
REMARK  9 active torsions:
REMARK  status: ('A' for Active; 'I' for Inactive)
REMARK    1  A    between atoms: O_1  and  C_2
REMARK    2  A    between atoms: O_1  and  C_15
REMARK    3  A    between atoms: C_3  and  C_12
REMARK    4  A    between atoms: C_6  and  O_9
REMARK    5  A    between atoms: C_12  and  O_13
REMARK    6  A    between atoms: C_16  and  C_26
REMARK    7  A    between atoms: C_17  and  O_21
REMARK    8  A    between atoms: C_20  and  O_23
REMARK    9  A    between atoms: C_26  and  O_27
REMARK                            x       y       z     vdW  Elec       q    Type
REMARK                         _______ _______ _______ _____ _____    ______ ____
ROOT
ATOM      1  O   UNL     1     -34.750  24.896   2.537  0.00  0.00    -0.450 OA
ENDROOT
BRANCH   1   2
ATOM      2  C   UNL     1     -35.853  25.596   2.084  0.00  0.00    +0.154 C 
ATOM      3  C   UNL     1     -35.822  26.979   2.019  0.00  0.00    +0.144 C 
ATOM      4  C   UNL     1     -38.099  25.566   1.244  0.00  0.00    -0.016 C 
ATOM      5  C   UNL     1     -36.975  24.879   1.704  0.00  0.00    +0.034 C 
ATOM      6  C   UNL     1     -36.946  27.665   1.559  0.00  0.00    +0.143 C 
ATOM      7  C   UNL     1     -38.085  26.958   1.172  0.00  0.00    +0.033 C 
ATOM      8  C   UNL     1     -39.316  24.811   0.829  0.00  0.00    +0.031 C 
BRANCH   6   9
ATOM      9  O   UNL     1     -36.953  29.025   1.481  0.00  0.00    -0.505 OA
ATOM     10  H   UNL     1     -36.382  29.463   0.880  0.00  0.00    +0.292 HD
ENDBRANCH   6   9
BRANCH   3  12
ATOM     11  O   UNL     1     -34.568  28.443   3.422  0.00  0.00    -0.245 OA
ATOM     12  C   UNL     1     -34.632  27.717   2.424  0.00  0.00    +0.347 C 
BRANCH  12  13
ATOM     13  O   UNL     1     -33.595  27.505   1.560  0.00  0.00    -0.441 OA
ATOM     14  C   UNL     1     -32.295  27.346   2.140  0.00  0.00    +0.256 C 
ENDBRANCH  12  13
ENDBRANCH   3  12
ENDBRANCH   1   2
BRANCH   1  15
ATOM     15  C   UNL     1     -34.966  23.877   3.418  0.00  0.00    +0.185 C 
ATOM     16  C   UNL     1     -35.022  24.131   4.789  0.00  0.00    +0.116 C 
ATOM     17  C   UNL     1     -35.133  22.577   2.942  0.00  0.00    +0.176 C 
ATOM     18  C   UNL     1     -35.244  23.084   5.683  0.00  0.00    +0.046 C 
ATOM     19  C   UNL     1     -35.355  21.530   3.837  0.00  0.00    +0.077 C 
ATOM     20  C   UNL     1     -35.411  21.783   5.207  0.00  0.00    +0.137 C 
BRANCH  17  21
ATOM     21  O   UNL     1     -35.080  22.314   1.606  0.00  0.00    -0.468 OA
ATOM     22  C   UNL     1     -34.556  21.047   1.216  0.00  0.00    +0.253 C 
ENDBRANCH  17  21
BRANCH  20  23
ATOM     23  O   UNL     1     -35.629  20.762   6.080  0.00  0.00    -0.505 OA
ATOM     24  H   UNL     1     -36.020  19.965   5.781  0.00  0.00    +0.292 HD
ENDBRANCH  20  23
BRANCH  16  26
ATOM     25  O   UNL     1     -35.783  26.225   5.637  0.00  0.00    -0.245 OA
ATOM     26  C   UNL     1     -34.852  25.481   5.307  0.00  0.00    +0.345 C 
BRANCH  26  27
ATOM     27  O   UNL     1     -33.531  25.825   5.384  0.00  0.00    -0.441 OA
ATOM     28  C   UNL     1     -33.174  26.796   6.374  0.00  0.00    +0.256 C 
ENDBRANCH  26  27
ENDBRANCH  16  26
ENDBRANCH   1  15
TORSDOF 9
ENDMDL
MODEL 5
REMARK VINA RESULT:      -5.5      1.862      4.867
REMARK  Name = 5249326
REMARK  9 active torsions:
REMARK  status: ('A' for Active; 'I' for Inactive)
REMARK    1  A    between atoms: O_1  and  C_2
REMARK    2  A    between atoms: O_1  and  C_15
REMARK    3  A    between atoms: C_3  and  C_12
REMARK    4  A    between atoms: C_6  and  O_9
REMARK    5  A    between atoms: C_12  and  O_13
REMARK    6  A    between atoms: C_16  and  C_26
REMARK    7  A    between atoms: C_17  and  O_21
REMARK    8  A    between atoms: C_20  and  O_23
REMARK    9  A    between atoms: C_26  and  O_27
REMARK                            x       y       z     vdW  Elec       q    Type
REMARK                         _______ _______ _______ _____ _____    ______ ____
ROOT
ATOM      1  O   UNL     1     -35.917  23.754   1.779  0.00  0.00    -0.450 OA
ENDROOT
BRANCH   1   2
ATOM      2  C   UNL     1     -35.591  23.547   3.107  0.00  0.00    +0.154 C 
ATOM      3  C   UNL     1     -35.624  22.270   3.641  0.00  0.00    +0.144 C 
ATOM      4  C   UNL     1     -34.903  24.456   5.216  0.00  0.00    -0.016 C 
ATOM      5  C   UNL     1     -35.236  24.643   3.874  0.00  0.00    +0.034 C 
ATOM      6  C   UNL     1     -35.291  22.083   4.982  0.00  0.00    +0.143 C 
ATOM      7  C   UNL     1     -34.931  23.177   5.771  0.00  0.00    +0.033 C 
ATOM      8  C   UNL     1     -34.517  25.625   6.059  0.00  0.00    +0.031 C 
BRANCH   6   9
ATOM      9  O   UNL     1     -35.311  20.842   5.543  0.00  0.00    -0.505 OA
ATOM     10  H   UNL     1     -35.871  20.178   5.191  0.00  0.00    +0.292 HD
ENDBRANCH   6   9
BRANCH   3  12
ATOM     11  O   UNL     1     -37.074  21.028   2.213  0.00  0.00    -0.245 OA
ATOM     12  C   UNL     1     -36.000  21.127   2.817  0.00  0.00    +0.347 C 
BRANCH  12  13
ATOM     13  O   UNL     1     -35.015  20.180   2.797  0.00  0.00    -0.441 OA
ATOM     14  C   UNL     1     -34.472  19.842   1.517  0.00  0.00    +0.256 C 
ENDBRANCH  12  13
ENDBRANCH   3  12
ENDBRANCH   1   2
BRANCH   1  15
ATOM     15  C   UNL     1     -36.421  24.975   1.435  0.00  0.00    +0.185 C 
ATOM     16  C   UNL     1     -37.762  25.276   1.673  0.00  0.00    +0.116 C 
ATOM     17  C   UNL     1     -35.587  25.924   0.844  0.00  0.00    +0.176 C 
ATOM     18  C   UNL     1     -38.270  26.526   1.319  0.00  0.00    +0.046 C 
ATOM     19  C   UNL     1     -36.095  27.174   0.490  0.00  0.00    +0.077 C 
ATOM     20  C   UNL     1     -37.436  27.475   0.728  0.00  0.00    +0.137 C 
BRANCH  17  21
ATOM     21  O   UNL     1     -34.275  25.644   0.606  0.00  0.00    -0.468 OA
ATOM     22  C   UNL     1     -33.309  26.469   1.253  0.00  0.00    +0.253 C 
ENDBRANCH  17  21
BRANCH  20  23
ATOM     23  O   UNL     1     -37.931  28.695   0.384  0.00  0.00    -0.505 OA
ATOM     24  H   UNL     1     -37.513  29.199  -0.285  0.00  0.00    +0.292 HD
ENDBRANCH  20  23
BRANCH  16  26
ATOM     25  O   UNL     1     -38.915  24.261   3.496  0.00  0.00    -0.245 OA
ATOM     26  C   UNL     1     -38.649  24.299   2.290  0.00  0.00    +0.345 C 
BRANCH  26  27
ATOM     27  O   UNL     1     -39.155  23.428   1.365  0.00  0.00    -0.441 OA
ATOM     28  C   UNL     1     -40.514  23.631   0.963  0.00  0.00    +0.256 C 
ENDBRANCH  26  27
ENDBRANCH  16  26
ENDBRANCH   1  15
TORSDOF 9
ENDMDL
MODEL 6
REMARK VINA RESULT:      -5.5      1.601      5.670
REMARK  Name = 5249326
REMARK  9 active torsions:
REMARK  status: ('A' for Active; 'I' for Inactive)
REMARK    1  A    between atoms: O_1  and  C_2
REMARK    2  A    between atoms: O_1  and  C_15
REMARK    3  A    between atoms: C_3  and  C_12
REMARK    4  A    between atoms: C_6  and  O_9
REMARK    5  A    between atoms: C_12  and  O_13
REMARK    6  A    between atoms: C_16  and  C_26
REMARK    7  A    between atoms: C_17  and  O_21
REMARK    8  A    between atoms: C_20  and  O_23
REMARK    9  A    between atoms: C_26  and  O_27
REMARK                            x       y       z     vdW  Elec       q    Type
REMARK                         _______ _______ _______ _____ _____    ______ ____
ROOT
ATOM      1  O   UNL     1     -36.172  24.074   1.936  0.00  0.00    -0.450 OA
ENDROOT
BRANCH   1   2
ATOM      2  C   UNL     1     -35.693  24.271   3.218  0.00  0.00    +0.154 C 
ATOM      3  C   UNL     1     -35.156  25.494   3.581  0.00  0.00    +0.144 C 
ATOM      4  C   UNL     1     -35.290  23.396   5.414  0.00  0.00    -0.016 C 
ATOM      5  C   UNL     1     -35.767  23.218   4.116  0.00  0.00    +0.034 C 
ATOM      6  C   UNL     1     -34.679  25.672   4.880  0.00  0.00    +0.143 C 
ATOM      7  C   UNL     1     -34.746  24.622   5.797  0.00  0.00    +0.033 C 
ATOM      8  C   UNL     1     -35.362  22.274   6.395  0.00  0.00    +0.031 C 
BRANCH   6   9
ATOM      9  O   UNL     1     -34.144  26.861   5.274  0.00  0.00    -0.505 OA
ATOM     10  H   UNL     1     -34.682  27.627   5.310  0.00  0.00    +0.292 HD
ENDBRANCH   6   9
BRANCH   3  12
ATOM     11  O   UNL     1     -36.054  27.280   2.281  0.00  0.00    -0.245 OA
ATOM     12  C   UNL     1     -35.086  26.591   2.623  0.00  0.00    +0.347 C 
BRANCH  12  13
ATOM     13  O   UNL     1     -33.815  26.762   2.151  0.00  0.00    -0.441 OA
ATOM     14  C   UNL     1     -33.372  28.111   1.967  0.00  0.00    +0.256 C 
ENDBRANCH  12  13
ENDBRANCH   3  12
ENDBRANCH   1   2
BRANCH   1  15
ATOM     15  C   UNL     1     -37.261  23.266   1.785  0.00  0.00    +0.185 C 
ATOM     16  C   UNL     1     -38.546  23.775   1.973  0.00  0.00    +0.116 C 
ATOM     17  C   UNL     1     -37.085  21.927   1.438  0.00  0.00    +0.176 C 
ATOM     18  C   UNL     1     -39.655  22.944   1.817  0.00  0.00    +0.046 C 
ATOM     19  C   UNL     1     -38.194  21.095   1.282  0.00  0.00    +0.077 C 
ATOM     20  C   UNL     1     -39.479  21.604   1.470  0.00  0.00    +0.137 C 
BRANCH  17  21
ATOM     21  O   UNL     1     -35.836  21.416   1.251  0.00  0.00    -0.468 OA
ATOM     22  C   UNL     1     -35.497  20.245   1.990  0.00  0.00    +0.253 C 
ENDBRANCH  17  21
BRANCH  20  23
ATOM     23  O   UNL     1     -40.562  20.793   1.316  0.00  0.00    -0.505 OA
ATOM     24  H   UNL     1     -40.468  19.961   0.898  0.00  0.00    +0.292 HD
ENDBRANCH  20  23
BRANCH  16  26
ATOM     25  O   UNL     1     -38.820  25.590   3.495  0.00  0.00    -0.245 OA
ATOM     26  C   UNL     1     -38.753  25.171   2.334  0.00  0.00    +0.345 C 
BRANCH  26  27
ATOM     27  O   UNL     1     -38.861  25.963   1.225  0.00  0.00    -0.441 OA
ATOM     28  C   UNL     1     -40.134  26.577   0.993  0.00  0.00    +0.256 C 
ENDBRANCH  26  27
ENDBRANCH  16  26
ENDBRANCH   1  15
TORSDOF 9
ENDMDL
MODEL 7
REMARK VINA RESULT:      -5.5      1.765      5.518
REMARK  Name = 5249326
REMARK  9 active torsions:
REMARK  status: ('A' for Active; 'I' for Inactive)
REMARK    1  A    between atoms: O_1  and  C_2
REMARK    2  A    between atoms: O_1  and  C_15
REMARK    3  A    between atoms: C_3  and  C_12
REMARK    4  A    between atoms: C_6  and  O_9
REMARK    5  A    between atoms: C_12  and  O_13
REMARK    6  A    between atoms: C_16  and  C_26
REMARK    7  A    between atoms: C_17  and  O_21
REMARK    8  A    between atoms: C_20  and  O_23
REMARK    9  A    between atoms: C_26  and  O_27
REMARK                            x       y       z     vdW  Elec       q    Type
REMARK                         _______ _______ _______ _____ _____    ______ ____
ROOT
ATOM      1  O   UNL     1     -36.614  23.878   1.523  0.00  0.00    -0.450 OA
ENDROOT
BRANCH   1   2
ATOM      2  C   UNL     1     -36.344  24.039   2.870  0.00  0.00    +0.154 C 
ATOM      3  C   UNL     1     -36.527  25.270   3.475  0.00  0.00    +0.144 C 
ATOM      4  C   UNL     1     -35.613  23.082   4.944  0.00  0.00    -0.016 C 
ATOM      5  C   UNL     1     -35.891  22.942   3.584  0.00  0.00    +0.034 C 
ATOM      6  C   UNL     1     -36.249  25.411   4.834  0.00  0.00    +0.143 C 
ATOM      7  C   UNL     1     -35.792  24.316   5.569  0.00  0.00    +0.033 C 
ATOM      8  C   UNL     1     -35.125  21.912   5.730  0.00  0.00    +0.031 C 
BRANCH   6   9
ATOM      9  O   UNL     1     -36.417  26.607   5.464  0.00  0.00    -0.505 OA
ATOM     10  H   UNL     1     -36.055  27.387   5.092  0.00  0.00    +0.292 HD
ENDBRANCH   6   9
BRANCH   3  12
ATOM     11  O   UNL     1     -38.177  26.573   2.350  0.00  0.00    -0.245 OA
ATOM     12  C   UNL     1     -37.004  26.414   2.707  0.00  0.00    +0.347 C 
BRANCH  12  13
ATOM     13  O   UNL     1     -35.992  27.289   2.431  0.00  0.00    -0.441 OA
ATOM     14  C   UNL     1     -36.226  28.237   1.385  0.00  0.00    +0.256 C 
ENDBRANCH  12  13
ENDBRANCH   3  12
ENDBRANCH   1   2
BRANCH   1  15
ATOM     15  C   UNL     1     -37.103  22.671   1.116  0.00  0.00    +0.185 C 
ATOM     16  C   UNL     1     -38.461  22.382   1.246  0.00  0.00    +0.116 C 
ATOM     17  C   UNL     1     -36.237  21.726   0.566  0.00  0.00    +0.176 C 
ATOM     18  C   UNL     1     -38.954  21.146   0.827  0.00  0.00    +0.046 C 
ATOM     19  C   UNL     1     -36.730  20.490   0.147  0.00  0.00    +0.077 C 
ATOM     20  C   UNL     1     -38.089  20.200   0.277  0.00  0.00    +0.137 C 
BRANCH  17  21
ATOM     21  O   UNL     1     -34.908  21.995   0.433  0.00  0.00    -0.468 OA
ATOM     22  C   UNL     1     -34.005  20.909   0.630  0.00  0.00    +0.253 C 
ENDBRANCH  17  21
BRANCH  20  23
ATOM     23  O   UNL     1     -38.570  18.995  -0.133  0.00  0.00    -0.505 OA
ATOM     24  H   UNL     1     -38.053  18.449  -0.691  0.00  0.00    +0.292 HD
ENDBRANCH  20  23
BRANCH  16  26
ATOM     25  O   UNL     1     -39.577  23.506   3.027  0.00  0.00    -0.245 OA
ATOM     26  C   UNL     1     -39.382  23.356   1.816  0.00  0.00    +0.345 C 
BRANCH  26  27
ATOM     27  O   UNL     1     -40.005  24.085   0.841  0.00  0.00    -0.441 OA
ATOM     28  C   UNL     1     -41.114  24.893   1.250  0.00  0.00    +0.256 C 
ENDBRANCH  26  27
ENDBRANCH  16  26
ENDBRANCH   1  15
TORSDOF 9
ENDMDL
MODEL 8
REMARK VINA RESULT:      -5.5      1.845      4.816
REMARK  Name = 5249326
REMARK  9 active torsions:
REMARK  status: ('A' for Active; 'I' for Inactive)
REMARK    1  A    between atoms: O_1  and  C_2
REMARK    2  A    between atoms: O_1  and  C_15
REMARK    3  A    between atoms: C_3  and  C_12
REMARK    4  A    between atoms: C_6  and  O_9
REMARK    5  A    between atoms: C_12  and  O_13
REMARK    6  A    between atoms: C_16  and  C_26
REMARK    7  A    between atoms: C_17  and  O_21
REMARK    8  A    between atoms: C_20  and  O_23
REMARK    9  A    between atoms: C_26  and  O_27
REMARK                            x       y       z     vdW  Elec       q    Type
REMARK                         _______ _______ _______ _____ _____    ______ ____
ROOT
ATOM      1  O   UNL     1     -35.961  23.609   1.740  0.00  0.00    -0.450 OA
ENDROOT
BRANCH   1   2
ATOM      2  C   UNL     1     -35.639  23.431   3.074  0.00  0.00    +0.154 C 
ATOM      3  C   UNL     1     -35.628  22.161   3.624  0.00  0.00    +0.144 C 
ATOM      4  C   UNL     1     -35.006  24.393   5.177  0.00  0.00    -0.016 C 
ATOM      5  C   UNL     1     -35.333  24.550   3.830  0.00  0.00    +0.034 C 
ATOM      6  C   UNL     1     -35.300  22.003   4.970  0.00  0.00    +0.143 C 
ATOM      7  C   UNL     1     -34.989  23.120   5.748  0.00  0.00    +0.033 C 
ATOM      8  C   UNL     1     -34.672  25.586   6.007  0.00  0.00    +0.031 C 
BRANCH   6   9
ATOM      9  O   UNL     1     -35.278  20.770   5.547  0.00  0.00    -0.505 OA
ATOM     10  H   UNL     1     -34.593  20.166   5.337  0.00  0.00    +0.292 HD
ENDBRANCH   6   9
BRANCH   3  12
ATOM     11  O   UNL     1     -37.031  20.829   2.229  0.00  0.00    -0.245 OA
ATOM     12  C   UNL     1     -35.953  20.994   2.812  0.00  0.00    +0.347 C 
BRANCH  12  13
ATOM     13  O   UNL     1     -34.915  20.106   2.775  0.00  0.00    -0.441 OA
ATOM     14  C   UNL     1     -34.379  19.794   1.485  0.00  0.00    +0.256 C 
ENDBRANCH  12  13
ENDBRANCH   3  12
ENDBRANCH   1   2
BRANCH   1  15
ATOM     15  C   UNL     1     -36.721  24.693   1.413  0.00  0.00    +0.185 C 
ATOM     16  C   UNL     1     -36.175  25.737   0.665  0.00  0.00    +0.116 C 
ATOM     17  C   UNL     1     -38.052  24.754   1.828  0.00  0.00    +0.176 C 
ATOM     18  C   UNL     1     -36.959  26.842   0.334  0.00  0.00    +0.046 C 
ATOM     19  C   UNL     1     -38.836  25.859   1.496  0.00  0.00    +0.077 C 
ATOM     20  C   UNL     1     -38.289  26.903   0.749  0.00  0.00    +0.137 C 
BRANCH  17  21
ATOM     21  O   UNL     1     -38.598  23.742   2.558  0.00  0.00    -0.468 OA
ATOM     22  C   UNL     1     -39.784  23.141   2.044  0.00  0.00    +0.253 C 
ENDBRANCH  17  21
BRANCH  20  23
ATOM     23  O   UNL     1     -39.054  27.981   0.424  0.00  0.00    -0.505 OA
ATOM     24  H   UNL     1     -39.608  28.374   1.069  0.00  0.00    +0.292 HD
ENDBRANCH  20  23
BRANCH  16  26
ATOM     25  O   UNL     1     -34.408  25.155  -0.826  0.00  0.00    -0.245 OA
ATOM     26  C   UNL     1     -34.789  25.692   0.221  0.00  0.00    +0.345 C 
BRANCH  26  27
ATOM     27  O   UNL     1     -33.959  26.322   1.106  0.00  0.00    -0.441 OA
ATOM     28  C   UNL     1     -32.726  25.663   1.415  0.00  0.00    +0.256 C 
ENDBRANCH  26  27
ENDBRANCH  16  26
ENDBRANCH   1  15
TORSDOF 9
ENDMDL
MODEL 9
REMARK VINA RESULT:      -5.4      2.082      6.455
REMARK  Name = 5249326
REMARK  9 active torsions:
REMARK  status: ('A' for Active; 'I' for Inactive)
REMARK    1  A    between atoms: O_1  and  C_2
REMARK    2  A    between atoms: O_1  and  C_15
REMARK    3  A    between atoms: C_3  and  C_12
REMARK    4  A    between atoms: C_6  and  O_9
REMARK    5  A    between atoms: C_12  and  O_13
REMARK    6  A    between atoms: C_16  and  C_26
REMARK    7  A    between atoms: C_17  and  O_21
REMARK    8  A    between atoms: C_20  and  O_23
REMARK    9  A    between atoms: C_26  and  O_27
REMARK                            x       y       z     vdW  Elec       q    Type
REMARK                         _______ _______ _______ _____ _____    ______ ____
ROOT
ATOM      1  O   UNL     1     -34.309  23.741   2.128  0.00  0.00    -0.450 OA
ENDROOT
BRANCH   1   2
ATOM      2  C   UNL     1     -35.068  24.895   2.049  0.00  0.00    +0.154 C 
ATOM      3  C   UNL     1     -34.711  26.014   2.782  0.00  0.00    +0.144 C 
ATOM      4  C   UNL     1     -36.959  26.048   1.131  0.00  0.00    -0.016 C 
ATOM      5  C   UNL     1     -36.180  24.894   1.225  0.00  0.00    +0.034 C 
ATOM      6  C   UNL     1     -35.489  27.168   2.687  0.00  0.00    +0.143 C 
ATOM      7  C   UNL     1     -36.614  27.185   1.861  0.00  0.00    +0.033 C 
ATOM      8  C   UNL     1     -38.161  26.066   0.248  0.00  0.00    +0.031 C 
BRANCH   6   9
ATOM      9  O   UNL     1     -35.170  28.289   3.392  0.00  0.00    -0.505 OA
ATOM     10  H   UNL     1     -35.307  28.314   4.319  0.00  0.00    +0.292 HD
ENDBRANCH   6   9
BRANCH   3  12
ATOM     11  O   UNL     1     -32.488  26.610   3.407  0.00  0.00    -0.245 OA
ATOM     12  C   UNL     1     -33.535  25.997   3.644  0.00  0.00    +0.347 C 
BRANCH  12  13
ATOM     13  O   UNL     1     -33.738  25.218   4.749  0.00  0.00    -0.441 OA
ATOM     14  C   UNL     1     -34.420  25.827   5.850  0.00  0.00    +0.256 C 
ENDBRANCH  12  13
ENDBRANCH   3  12
ENDBRANCH   1   2
BRANCH   1  15
ATOM     15  C   UNL     1     -34.933  22.556   1.867  0.00  0.00    +0.185 C 
ATOM     16  C   UNL     1     -35.742  21.958   2.833  0.00  0.00    +0.116 C 
ATOM     17  C   UNL     1     -34.759  21.943   0.626  0.00  0.00    +0.176 C 
ATOM     18  C   UNL     1     -36.378  20.747   2.559  0.00  0.00    +0.046 C 
ATOM     19  C   UNL     1     -35.394  20.732   0.352  0.00  0.00    +0.077 C 
ATOM     20  C   UNL     1     -36.204  20.134   1.318  0.00  0.00    +0.137 C 
BRANCH  17  21
ATOM     21  O   UNL     1     -33.972  22.515  -0.327  0.00  0.00    -0.468 OA
ATOM     22  C   UNL     1     -32.652  21.997  -0.473  0.00  0.00    +0.253 C 
ENDBRANCH  17  21
BRANCH  20  23
ATOM     23  O   UNL     1     -36.824  18.953   1.050  0.00  0.00    -0.505 OA
ATOM     24  H   UNL     1     -36.319  18.201   0.813  0.00  0.00    +0.292 HD
ENDBRANCH  20  23
BRANCH  16  26
ATOM     25  O   UNL     1     -36.835  23.393   4.392  0.00  0.00    -0.245 OA
ATOM     26  C   UNL     1     -35.938  22.582   4.135  0.00  0.00    +0.345 C 
BRANCH  26  27
ATOM     27  O   UNL     1     -35.005  22.157   5.039  0.00  0.00    -0.441 OA
ATOM     28  C   UNL     1     -35.413  22.106   6.411  0.00  0.00    +0.256 C 
ENDBRANCH  26  27
ENDBRANCH  16  26
ENDBRANCH   1  15
TORSDOF 9
ENDMDL
