MODEL 1
REMARK VINA RESULT:      -6.4      0.000      0.000
REMARK  Name = 193898
REMARK  3 active torsions:
REMARK  status: ('A' for Active; 'I' for Inactive)
REMARK    1  A    between atoms: C_5  and  O_24
REMARK    2  A    between atoms: C_9  and  O_26
REMARK    3  A    between atoms: C_11  and  O_28
REMARK                            x       y       z     vdW  Elec       q    Type
REMARK                         _______ _______ _______ _____ _____    ______ ____
ROOT
ATOM      1  O   UNL     1     -36.850  26.697   0.840  0.00  0.00    -0.452 OA
ATOM      2  O   UNL     1     -32.419  26.541   3.978  0.00  0.00    -0.296 OA
ATOM      3  O   UNL     1     -38.778  26.871   2.101  0.00  0.00    -0.250 OA
ATOM      4  C   UNL     1     -35.726  23.265   4.792  0.00  0.00    +0.027 C 
ATOM      5  C   UNL     1     -36.302  22.226   3.787  0.00  0.00    +0.113 C 
ATOM      6  C   UNL     1     -36.800  22.800   2.424  0.00  0.00    +0.054 C 
ATOM      7  C   UNL     1     -34.494  24.020   4.236  0.00  0.00    +0.010 C 
ATOM      8  C   UNL     1     -34.578  25.549   4.411  0.00  0.00    +0.058 C 
ATOM      9  C   UNL     1     -37.763  24.006   2.571  0.00  0.00    +0.123 C 
ATOM     10  C   UNL     1     -33.880  26.428   2.053  0.00  0.00    +0.085 C 
ATOM     11  C   UNL     1     -34.129  27.940   1.841  0.00  0.00    +0.121 C 
ATOM     12  C   UNL     1     -35.064  28.375   0.674  0.00  0.00    +0.067 C 
ATOM     13  C   UNL     1     -38.077  24.713   1.229  0.00  0.00    +0.126 C 
ATOM     14  C   UNL     1     -33.517  26.207   3.529  0.00  0.00    +0.152 C 
ATOM     15  C   UNL     1     -36.565  28.106   0.968  0.00  0.00    +0.171 C 
ATOM     16  C   UNL     1     -35.364  22.580   6.120  0.00  0.00    +0.002 C 
ATOM     17  C   UNL     1     -37.432  21.665   1.598  0.00  0.00    +0.005 C 
ATOM     18  C   UNL     1     -34.420  25.990   5.863  0.00  0.00    +0.008 C 
ATOM     19  C   UNL     1     -32.765  25.807   1.206  0.00  0.00    +0.010 C 
ATOM     20  C   UNL     1     -37.975  26.216   1.448  0.00  0.00    +0.319 C 
ATOM     21  C   UNL     1     -34.620  27.826  -0.686  0.00  0.00    +0.006 C 
ATOM     22  C   UNL     1     -39.448  24.404   0.630  0.00  0.00    +0.014 C 
ATOM     23  C   UNL     1     -37.472  28.879   0.007  0.00  0.00    +0.047 C 
ENDROOT
BRANCH   5  24
ATOM     24  O   UNL     1     -35.298  21.243   3.500  0.00  0.00    -0.384 OA
ATOM     25  H   UNL     1     -35.650  20.359   3.680  0.00  0.00    +0.210 HD
ENDBRANCH   5  24
BRANCH   9  26
ATOM     26  O   UNL     1     -38.969  23.617   3.224  0.00  0.00    -0.384 OA
ATOM     27  H   UNL     1     -38.757  23.220   4.083  0.00  0.00    +0.210 HD
ENDBRANCH   9  26
BRANCH  11  28
ATOM     28  O   UNL     1     -32.862  28.590   1.673  0.00  0.00    -0.384 OA
ATOM     29  H   UNL     1     -32.176  27.925   1.508  0.00  0.00    +0.210 HD
ENDBRANCH  11  28
TORSDOF 3
ENDMDL
MODEL 2
REMARK VINA RESULT:      -6.0      1.978      2.767
REMARK  Name = 193898
REMARK  3 active torsions:
REMARK  status: ('A' for Active; 'I' for Inactive)
REMARK    1  A    between atoms: C_5  and  O_24
REMARK    2  A    between atoms: C_9  and  O_26
REMARK    3  A    between atoms: C_11  and  O_28
REMARK                            x       y       z     vdW  Elec       q    Type
REMARK                         _______ _______ _______ _____ _____    ______ ____
ROOT
ATOM      1  O   UNL     1     -39.175  24.875   0.439  0.00  0.00    -0.452 OA
ATOM      2  O   UNL     1     -35.068  26.780   3.439  0.00  0.00    -0.296 OA
ATOM      3  O   UNL     1     -40.754  23.806   1.742  0.00  0.00    -0.250 OA
ATOM      4  C   UNL     1     -35.989  22.156   3.772  0.00  0.00    +0.027 C 
ATOM      5  C   UNL     1     -36.012  21.107   2.624  0.00  0.00    +0.113 C 
ATOM      6  C   UNL     1     -36.875  21.479   1.378  0.00  0.00    +0.054 C 
ATOM      7  C   UNL     1     -35.420  23.525   3.324  0.00  0.00    +0.010 C 
ATOM      8  C   UNL     1     -36.296  24.722   3.743  0.00  0.00    +0.058 C 
ATOM      9  C   UNL     1     -38.316  21.933   1.732  0.00  0.00    +0.123 C 
ATOM     10  C   UNL     1     -36.423  26.127   1.545  0.00  0.00    +0.085 C 
ATOM     11  C   UNL     1     -37.467  27.267   1.581  0.00  0.00    +0.121 C 
ATOM     12  C   UNL     1     -38.601  27.261   0.514  0.00  0.00    +0.067 C 
ATOM     13  C   UNL     1     -39.094  22.513   0.525  0.00  0.00    +0.126 C 
ATOM     14  C   UNL     1     -35.852  25.959   2.960  0.00  0.00    +0.152 C 
ATOM     15  C   UNL     1     -39.682  26.180   0.785  0.00  0.00    +0.171 C 
ATOM     16  C   UNL     1     -35.183  21.622   4.968  0.00  0.00    +0.002 C 
ATOM     17  C   UNL     1     -36.876  20.298   0.391  0.00  0.00    +0.005 C 
ATOM     18  C   UNL     1     -36.255  24.992   5.244  0.00  0.00    +0.008 C 
ATOM     19  C   UNL     1     -35.242  26.329   0.591  0.00  0.00    +0.010 C 
ATOM     20  C   UNL     1     -39.796  23.785   0.980  0.00  0.00    +0.319 C 
ATOM     21  C   UNL     1     -38.071  27.221  -0.924  0.00  0.00    +0.006 C 
ATOM     22  C   UNL     1     -40.136  21.581  -0.094  0.00  0.00    +0.014 C 
ATOM     23  C   UNL     1     -40.955  26.444  -0.026  0.00  0.00    +0.047 C 
ENDROOT
BRANCH   5  24
ATOM     24  O   UNL     1     -34.673  20.879   2.168  0.00  0.00    -0.384 OA
ATOM     25  H   UNL     1     -34.296  21.710   1.841  0.00  0.00    +0.210 HD
ENDBRANCH   5  24
BRANCH   9  26
ATOM     26  O   UNL     1     -39.049  20.868   2.333  0.00  0.00    -0.384 OA
ATOM     27  H   UNL     1     -38.576  20.554   3.119  0.00  0.00    +0.210 HD
ENDBRANCH   9  26
BRANCH  11  28
ATOM     28  O   UNL     1     -36.773  28.520   1.499  0.00  0.00    -0.384 OA
ATOM     29  H   UNL     1     -35.917  28.446   1.948  0.00  0.00    +0.210 HD
ENDBRANCH  11  28
TORSDOF 3
ENDMDL
MODEL 3
REMARK VINA RESULT:      -5.9      2.427      4.851
REMARK  Name = 193898
REMARK  3 active torsions:
REMARK  status: ('A' for Active; 'I' for Inactive)
REMARK    1  A    between atoms: C_5  and  O_24
REMARK    2  A    between atoms: C_9  and  O_26
REMARK    3  A    between atoms: C_11  and  O_28
REMARK                            x       y       z     vdW  Elec       q    Type
REMARK                         _______ _______ _______ _____ _____    ______ ____
ROOT
ATOM      1  O   UNL     1     -33.550  24.885   1.507  0.00  0.00    -0.452 OA
ATOM      2  O   UNL     1     -38.327  24.847   4.092  0.00  0.00    -0.296 OA
ATOM      3  O   UNL     1     -33.825  24.934  -0.786  0.00  0.00    -0.250 OA
ATOM      4  C   UNL     1     -37.575  21.400   0.948  0.00  0.00    +0.027 C 
ATOM      5  C   UNL     1     -36.414  20.364   0.933  0.00  0.00    +0.113 C 
ATOM      6  C   UNL     1     -34.974  20.952   1.060  0.00  0.00    +0.054 C 
ATOM      7  C   UNL     1     -37.627  22.227   2.256  0.00  0.00    +0.010 C 
ATOM      8  C   UNL     1     -37.753  23.744   2.021  0.00  0.00    +0.058 C 
ATOM      9  C   UNL     1     -34.685  22.108   0.068  0.00  0.00    +0.123 C 
ATOM     10  C   UNL     1     -35.953  24.721   3.643  0.00  0.00    +0.085 C 
ATOM     11  C   UNL     1     -35.659  26.224   3.432  0.00  0.00    +0.121 C 
ATOM     12  C   UNL     1     -34.201  26.647   3.089  0.00  0.00    +0.067 C 
ATOM     13  C   UNL     1     -33.345  22.836   0.344  0.00  0.00    +0.126 C 
ATOM     14  C   UNL     1     -37.437  24.476   3.326  0.00  0.00    +0.152 C 
ATOM     15  C   UNL     1     -33.797  26.301   1.630  0.00  0.00    +0.171 C 
ATOM     16  C   UNL     1     -38.923  20.696   0.720  0.00  0.00    +0.002 C 
ATOM     17  C   UNL     1     -33.949  19.812   0.922  0.00  0.00    +0.005 C 
ATOM     18  C   UNL     1     -39.127  24.152   1.496  0.00  0.00    +0.008 C 
ATOM     19  C   UNL     1     -35.686  24.175   5.049  0.00  0.00    +0.010 C 
ATOM     20  C   UNL     1     -33.593  24.336   0.257  0.00  0.00    +0.319 C 
ATOM     21  C   UNL     1     -33.176  26.158   4.118  0.00  0.00    +0.006 C 
ATOM     22  C   UNL     1     -32.199  22.481  -0.602  0.00  0.00    +0.014 C 
ATOM     23  C   UNL     1     -32.536  27.058   1.202  0.00  0.00    +0.047 C 
ENDROOT
BRANCH   5  24
ATOM     24  O   UNL     1     -36.598  19.437   2.011  0.00  0.00    -0.384 OA
ATOM     25  H   UNL     1     -37.440  19.619   2.455  0.00  0.00    +0.210 HD
ENDBRANCH   5  24
BRANCH   9  26
ATOM     26  O   UNL     1     -34.733  21.645  -1.279  0.00  0.00    -0.384 OA
ATOM     27  H   UNL     1     -35.338  20.890  -1.339  0.00  0.00    +0.210 HD
ENDBRANCH   9  26
BRANCH  11  28
ATOM     28  O   UNL     1     -36.075  26.936   4.606  0.00  0.00    -0.384 OA
ATOM     29  H   UNL     1     -35.440  27.644   4.797  0.00  0.00    +0.210 HD
ENDBRANCH  11  28
TORSDOF 3
ENDMDL
MODEL 4
REMARK VINA RESULT:      -5.8      1.866      6.571
REMARK  Name = 193898
REMARK  3 active torsions:
REMARK  status: ('A' for Active; 'I' for Inactive)
REMARK    1  A    between atoms: C_5  and  O_24
REMARK    2  A    between atoms: C_9  and  O_26
REMARK    3  A    between atoms: C_11  and  O_28
REMARK                            x       y       z     vdW  Elec       q    Type
REMARK                         _______ _______ _______ _____ _____    ______ ____
ROOT
ATOM      1  O   UNL     1     -35.283  24.291   3.914  0.00  0.00    -0.452 OA
ATOM      2  O   UNL     1     -39.312  23.442   0.372  0.00  0.00    -0.296 OA
ATOM      3  O   UNL     1     -35.788  26.002   5.382  0.00  0.00    -0.250 OA
ATOM      4  C   UNL     1     -37.516  27.810   0.555  0.00  0.00    +0.027 C 
ATOM      5  C   UNL     1     -36.036  28.239   0.334  0.00  0.00    +0.113 C 
ATOM      6  C   UNL     1     -34.969  27.458   1.163  0.00  0.00    +0.054 C 
ATOM      7  C   UNL     1     -37.773  26.328   0.187  0.00  0.00    +0.010 C 
ATOM      8  C   UNL     1     -38.546  25.550   1.270  0.00  0.00    +0.058 C 
ATOM      9  C   UNL     1     -35.294  27.379   2.677  0.00  0.00    +0.123 C 
ATOM     10  C   UNL     1     -37.163  23.344   1.478  0.00  0.00    +0.085 C 
ATOM     11  C   UNL     1     -37.548  22.468   2.693  0.00  0.00    +0.121 C 
ATOM     12  C   UNL     1     -36.444  22.134   3.739  0.00  0.00    +0.067 C 
ATOM     13  C   UNL     1     -34.361  26.420   3.459  0.00  0.00    +0.126 C 
ATOM     14  C   UNL     1     -38.432  24.053   0.980  0.00  0.00    +0.152 C 
ATOM     15  C   UNL     1     -36.085  23.342   4.647  0.00  0.00    +0.171 C 
ATOM     16  C   UNL     1     -38.462  28.720  -0.247  0.00  0.00    +0.002 C 
ATOM     17  C   UNL     1     -33.582  28.074   0.909  0.00  0.00    +0.005 C 
ATOM     18  C   UNL     1     -40.010  25.968   1.371  0.00  0.00    +0.008 C 
ATOM     19  C   UNL     1     -36.549  22.606   0.285  0.00  0.00    +0.010 C 
ATOM     20  C   UNL     1     -35.221  25.571   4.385  0.00  0.00    +0.319 C 
ATOM     21  C   UNL     1     -35.209  21.474   3.117  0.00  0.00    +0.006 C 
ATOM     22  C   UNL     1     -33.275  27.098   4.294  0.00  0.00    +0.014 C 
ATOM     23  C   UNL     1     -35.308  22.897   5.889  0.00  0.00    +0.047 C 
ENDROOT
BRANCH   5  24
ATOM     24  O   UNL     1     -35.704  28.084  -1.052  0.00  0.00    -0.384 OA
ATOM     25  H   UNL     1     -35.631  27.142  -1.264  0.00  0.00    +0.210 HD
ENDBRANCH   5  24
BRANCH   9  26
ATOM     26  O   UNL     1     -35.282  28.677   3.267  0.00  0.00    -0.384 OA
ATOM     27  H   UNL     1     -34.421  28.834   3.684  0.00  0.00    +0.210 HD
ENDBRANCH   9  26
BRANCH  11  28
ATOM     28  O   UNL     1     -38.100  21.236   2.207  0.00  0.00    -0.384 OA
ATOM     29  H   UNL     1     -38.965  21.406   1.803  0.00  0.00    +0.210 HD
ENDBRANCH  11  28
TORSDOF 3
ENDMDL
MODEL 5
REMARK VINA RESULT:      -5.8      2.442      5.756
REMARK  Name = 193898
REMARK  3 active torsions:
REMARK  status: ('A' for Active; 'I' for Inactive)
REMARK    1  A    between atoms: C_5  and  O_24
REMARK    2  A    between atoms: C_9  and  O_26
REMARK    3  A    between atoms: C_11  and  O_28
REMARK                            x       y       z     vdW  Elec       q    Type
REMARK                         _______ _______ _______ _____ _____    ______ ____
ROOT
ATOM      1  O   UNL     1     -35.332  22.327   2.438  0.00  0.00    -0.452 OA
ATOM      2  O   UNL     1     -34.561  25.497  -1.904  0.00  0.00    -0.296 OA
ATOM      3  O   UNL     1     -37.382  22.722   3.426  0.00  0.00    -0.250 OA
ATOM      4  C   UNL     1     -35.504  27.671   2.185  0.00  0.00    +0.027 C 
ATOM      5  C   UNL     1     -34.717  27.563   3.523  0.00  0.00    +0.113 C 
ATOM      6  C   UNL     1     -34.430  26.115   4.030  0.00  0.00    +0.054 C 
ATOM      7  C   UNL     1     -34.769  27.002   0.998  0.00  0.00    +0.010 C 
ATOM      8  C   UNL     1     -35.666  26.063   0.168  0.00  0.00    +0.058 C 
ATOM      9  C   UNL     1     -35.688  25.207   4.063  0.00  0.00    +0.123 C 
ATOM     10  C   UNL     1     -34.172  23.937  -0.096  0.00  0.00    +0.085 C 
ATOM     11  C   UNL     1     -34.915  22.707  -0.665  0.00  0.00    +0.121 C 
ATOM     12  C   UNL     1     -34.952  21.407   0.193  0.00  0.00    +0.067 C 
ATOM     13  C   UNL     1     -35.367  23.719   4.349  0.00  0.00    +0.126 C 
ATOM     14  C   UNL     1     -34.781  25.197  -0.730  0.00  0.00    +0.152 C 
ATOM     15  C   UNL     1     -35.918  21.508   1.404  0.00  0.00    +0.171 C 
ATOM     16  C   UNL     1     -35.798  29.144   1.855  0.00  0.00    +0.002 C 
ATOM     17  C   UNL     1     -33.744  26.187   5.406  0.00  0.00    +0.005 C 
ATOM     18  C   UNL     1     -36.703  26.814  -0.662  0.00  0.00    +0.008 C 
ATOM     19  C   UNL     1     -32.661  23.982  -0.343  0.00  0.00    +0.010 C 
ATOM     20  C   UNL     1     -36.167  22.865   3.375  0.00  0.00    +0.319 C 
ATOM     21  C   UNL     1     -33.557  20.911   0.588  0.00  0.00    +0.006 C 
ATOM     22  C   UNL     1     -35.670  23.244   5.769  0.00  0.00    +0.014 C 
ATOM     23  C   UNL     1     -36.230  20.127   1.989  0.00  0.00    +0.047 C 
ENDROOT
BRANCH   5  24
ATOM     24  O   UNL     1     -33.454  28.227   3.379  0.00  0.00    -0.384 OA
ATOM     25  H   UNL     1     -33.367  28.907   4.064  0.00  0.00    +0.210 HD
ENDBRANCH   5  24
BRANCH   9  26
ATOM     26  O   UNL     1     -36.645  25.700   4.998  0.00  0.00    -0.384 OA
ATOM     27  H   UNL     1     -37.463  25.929   4.531  0.00  0.00    +0.210 HD
ENDBRANCH   9  26
BRANCH  11  28
ATOM     28  O   UNL     1     -34.354  22.389  -1.946  0.00  0.00    -0.384 OA
ATOM     29  H   UNL     1     -33.688  21.692  -1.844  0.00  0.00    +0.210 HD
ENDBRANCH  11  28
TORSDOF 3
ENDMDL
MODEL 6
REMARK VINA RESULT:      -5.7      2.665      4.265
REMARK  Name = 193898
REMARK  3 active torsions:
REMARK  status: ('A' for Active; 'I' for Inactive)
REMARK    1  A    between atoms: C_5  and  O_24
REMARK    2  A    between atoms: C_9  and  O_26
REMARK    3  A    between atoms: C_11  and  O_28
REMARK                            x       y       z     vdW  Elec       q    Type
REMARK                         _______ _______ _______ _____ _____    ______ ____
ROOT
ATOM      1  O   UNL     1     -39.295  23.805   1.043  0.00  0.00    -0.452 OA
ATOM      2  O   UNL     1     -34.566  24.403   3.648  0.00  0.00    -0.296 OA
ATOM      3  O   UNL     1     -40.421  21.917   1.750  0.00  0.00    -0.250 OA
ATOM      4  C   UNL     1     -35.237  20.326   1.353  0.00  0.00    +0.027 C 
ATOM      5  C   UNL     1     -35.552  20.128  -0.158  0.00  0.00    +0.113 C 
ATOM      6  C   UNL     1     -36.737  20.971  -0.725  0.00  0.00    +0.054 C 
ATOM      7  C   UNL     1     -34.852  21.786   1.699  0.00  0.00    +0.010 C 
ATOM      8  C   UNL     1     -35.608  22.349   2.918  0.00  0.00    +0.058 C 
ATOM      9  C   UNL     1     -38.033  20.868   0.120  0.00  0.00    +0.123 C 
ATOM     10  C   UNL     1     -36.377  24.697   2.072  0.00  0.00    +0.085 C 
ATOM     11  C   UNL     1     -37.399  25.400   2.995  0.00  0.00    +0.121 C 
ATOM     12  C   UNL     1     -38.785  25.788   2.399  0.00  0.00    +0.067 C 
ATOM     13  C   UNL     1     -39.131  21.873  -0.310  0.00  0.00    +0.126 C 
ATOM     14  C   UNL     1     -35.431  23.868   2.952  0.00  0.00    +0.152 C 
ATOM     15  C   UNL     1     -39.719  24.565   2.194  0.00  0.00    +0.171 C 
ATOM     16  C   UNL     1     -34.118  19.370   1.796  0.00  0.00    +0.002 C 
ATOM     17  C   UNL     1     -36.981  20.579  -2.193  0.00  0.00    +0.005 C 
ATOM     18  C   UNL     1     -35.158  21.725   4.236  0.00  0.00    +0.008 C 
ATOM     19  C   UNL     1     -35.513  25.617   1.205  0.00  0.00    +0.010 C 
ATOM     20  C   UNL     1     -39.712  22.509   0.946  0.00  0.00    +0.319 C 
ATOM     21  C   UNL     1     -38.674  26.666   1.148  0.00  0.00    +0.006 C 
ATOM     22  C   UNL     1     -40.279  21.280  -1.127  0.00  0.00    +0.014 C 
ATOM     23  C   UNL     1     -41.173  25.000   1.986  0.00  0.00    +0.047 C 
ENDROOT
BRANCH   5  24
ATOM     24  O   UNL     1     -34.387  20.451  -0.927  0.00  0.00    -0.384 OA
ATOM     25  H   UNL     1     -34.293  21.413  -0.985  0.00  0.00    +0.210 HD
ENDBRANCH   5  24
BRANCH   9  26
ATOM     26  O   UNL     1     -38.543  19.537   0.108  0.00  0.00    -0.384 OA
ATOM     27  H   UNL     1     -38.698  19.259  -0.808  0.00  0.00    +0.210 HD
ENDBRANCH   9  26
BRANCH  11  28
ATOM     28  O   UNL     1     -36.789  26.582   3.532  0.00  0.00    -0.384 OA
ATOM     29  H   UNL     1     -35.824  26.512   3.455  0.00  0.00    +0.210 HD
ENDBRANCH  11  28
TORSDOF 3
ENDMDL
MODEL 7
REMARK VINA RESULT:      -5.6      2.620      4.506
REMARK  Name = 193898
REMARK  3 active torsions:
REMARK  status: ('A' for Active; 'I' for Inactive)
REMARK    1  A    between atoms: C_5  and  O_24
REMARK    2  A    between atoms: C_9  and  O_26
REMARK    3  A    between atoms: C_11  and  O_28
REMARK                            x       y       z     vdW  Elec       q    Type
REMARK                         _______ _______ _______ _____ _____    ______ ____
ROOT
ATOM      1  O   UNL     1     -33.904  26.121   0.862  0.00  0.00    -0.452 OA
ATOM      2  O   UNL     1     -36.825  23.771   4.793  0.00  0.00    -0.296 OA
ATOM      3  O   UNL     1     -34.984  26.017  -1.177  0.00  0.00    -0.250 OA
ATOM      4  C   UNL     1     -35.784  21.112   1.027  0.00  0.00    +0.027 C 
ATOM      5  C   UNL     1     -34.374  20.774   0.462  0.00  0.00    +0.113 C 
ATOM      6  C   UNL     1     -33.427  21.991   0.221  0.00  0.00    +0.054 C 
ATOM      7  C   UNL     1     -35.728  21.815   2.405  0.00  0.00    +0.010 C 
ATOM      8  C   UNL     1     -36.608  23.077   2.489  0.00  0.00    +0.058 C 
ATOM      9  C   UNL     1     -34.081  23.136  -0.595  0.00  0.00    +0.123 C 
ATOM     10  C   UNL     1     -35.003  24.817   3.592  0.00  0.00    +0.085 C 
ATOM     11  C   UNL     1     -35.527  26.271   3.562  0.00  0.00    +0.121 C 
ATOM     12  C   UNL     1     -34.661  27.351   2.849  0.00  0.00    +0.067 C 
ATOM     13  C   UNL     1     -33.226  24.427  -0.641  0.00  0.00    +0.126 C 
ATOM     14  C   UNL     1     -36.211  23.877   3.730  0.00  0.00    +0.152 C 
ATOM     15  C   UNL     1     -34.707  27.238   1.300  0.00  0.00    +0.171 C 
ATOM     16  C   UNL     1     -36.640  19.838   1.124  0.00  0.00    +0.002 C 
ATOM     17  C   UNL     1     -32.125  21.496  -0.433  0.00  0.00    +0.005 C 
ATOM     18  C   UNL     1     -38.101  22.759   2.510  0.00  0.00    +0.008 C 
ATOM     19  C   UNL     1     -34.025  24.479   4.722  0.00  0.00    +0.010 C 
ATOM     20  C   UNL     1     -34.144  25.614  -0.383  0.00  0.00    +0.319 C 
ATOM     21  C   UNL     1     -33.232  27.430   3.395  0.00  0.00    +0.006 C 
ATOM     22  C   UNL     1     -32.477  24.671  -1.951  0.00  0.00    +0.014 C 
ATOM     23  C   UNL     1     -34.184  28.511   0.630  0.00  0.00    +0.047 C 
ENDROOT
BRANCH   5  24
ATOM     24  O   UNL     1     -33.708  19.882   1.365  0.00  0.00    -0.384 OA
ATOM     25  H   UNL     1     -32.753  19.913   1.206  0.00  0.00    +0.210 HD
ENDBRANCH   5  24
BRANCH   9  26
ATOM     26  O   UNL     1     -34.399  22.701  -1.915  0.00  0.00    -0.384 OA
ATOM     27  H   UNL     1     -33.642  22.863  -2.499  0.00  0.00    +0.210 HD
ENDBRANCH   9  26
BRANCH  11  28
ATOM     28  O   UNL     1     -35.763  26.697   4.911  0.00  0.00    -0.384 OA
ATOM     29  H   UNL     1     -35.622  27.654   4.978  0.00  0.00    +0.210 HD
ENDBRANCH  11  28
TORSDOF 3
ENDMDL
MODEL 8
REMARK VINA RESULT:      -5.5      2.218      5.698
REMARK  Name = 193898
REMARK  3 active torsions:
REMARK  status: ('A' for Active; 'I' for Inactive)
REMARK    1  A    between atoms: C_5  and  O_24
REMARK    2  A    between atoms: C_9  and  O_26
REMARK    3  A    between atoms: C_11  and  O_28
REMARK                            x       y       z     vdW  Elec       q    Type
REMARK                         _______ _______ _______ _____ _____    ______ ____
ROOT
ATOM      1  O   UNL     1     -34.489  24.649  -0.095  0.00  0.00    -0.452 OA
ATOM      2  O   UNL     1     -37.832  24.760   4.184  0.00  0.00    -0.296 OA
ATOM      3  O   UNL     1     -32.540  23.502   0.378  0.00  0.00    -0.250 OA
ATOM      4  C   UNL     1     -33.475  26.473   4.834  0.00  0.00    +0.027 C 
ATOM      5  C   UNL     1     -32.781  27.625   4.051  0.00  0.00    +0.113 C 
ATOM      6  C   UNL     1     -32.810  27.506   2.496  0.00  0.00    +0.054 C 
ATOM      7  C   UNL     1     -34.982  26.344   4.501  0.00  0.00    +0.010 C 
ATOM      8  C   UNL     1     -35.420  24.901   4.182  0.00  0.00    +0.058 C 
ATOM      9  C   UNL     1     -32.338  26.126   1.968  0.00  0.00    +0.123 C 
ATOM     10  C   UNL     1     -36.851  25.209   2.019  0.00  0.00    +0.085 C 
ATOM     11  C   UNL     1     -37.211  23.886   1.303  0.00  0.00    +0.121 C 
ATOM     12  C   UNL     1     -36.753  23.700  -0.173  0.00  0.00    +0.067 C 
ATOM     13  C   UNL     1     -32.579  25.932   0.450  0.00  0.00    +0.126 C 
ATOM     14  C   UNL     1     -36.803  24.936   3.530  0.00  0.00    +0.152 C 
ATOM     15  C   UNL     1     -35.229  23.428  -0.305  0.00  0.00    +0.171 C 
ATOM     16  C   UNL     1     -33.289  26.667   6.348  0.00  0.00    +0.002 C 
ATOM     17  C   UNL     1     -31.994  28.660   1.885  0.00  0.00    +0.005 C 
ATOM     18  C   UNL     1     -35.428  23.997   5.411  0.00  0.00    +0.008 C 
ATOM     19  C   UNL     1     -37.814  26.378   1.792  0.00  0.00    +0.010 C 
ATOM     20  C   UNL     1     -33.168  24.544   0.237  0.00  0.00    +0.319 C 
ATOM     21  C   UNL     1     -37.235  24.823  -1.097  0.00  0.00    +0.006 C 
ATOM     22  C   UNL     1     -31.340  26.071  -0.434  0.00  0.00    +0.014 C 
ATOM     23  C   UNL     1     -34.877  22.871  -1.687  0.00  0.00    +0.047 C 
ENDROOT
BRANCH   5  24
ATOM     24  O   UNL     1     -33.399  28.870   4.401  0.00  0.00    -0.384 OA
ATOM     25  H   UNL     1     -32.875  29.311   5.086  0.00  0.00    +0.210 HD
ENDBRANCH   5  24
BRANCH   9  26
ATOM     26  O   UNL     1     -30.967  25.902   2.288  0.00  0.00    -0.384 OA
ATOM     27  H   UNL     1     -30.527  26.754   2.437  0.00  0.00    +0.210 HD
ENDBRANCH   9  26
BRANCH  11  28
ATOM     28  O   UNL     1     -38.633  23.710   1.363  0.00  0.00    -0.384 OA
ATOM     29  H   UNL     1     -38.884  22.925   0.852  0.00  0.00    +0.210 HD
ENDBRANCH  11  28
TORSDOF 3
ENDMDL
MODEL 9
REMARK VINA RESULT:      -5.4      2.495      5.782
REMARK  Name = 193898
REMARK  3 active torsions:
REMARK  status: ('A' for Active; 'I' for Inactive)
REMARK    1  A    between atoms: C_5  and  O_24
REMARK    2  A    between atoms: C_9  and  O_26
REMARK    3  A    between atoms: C_11  and  O_28
REMARK                            x       y       z     vdW  Elec       q    Type
REMARK                         _______ _______ _______ _____ _____    ______ ____
ROOT
ATOM      1  O   UNL     1     -33.796  23.289  -0.221  0.00  0.00    -0.452 OA
ATOM      2  O   UNL     1     -35.949  20.775   4.086  0.00  0.00    -0.296 OA
ATOM      3  O   UNL     1     -32.062  24.688   0.391  0.00  0.00    -0.250 OA
ATOM      4  C   UNL     1     -35.859  25.499   4.197  0.00  0.00    +0.027 C 
ATOM      5  C   UNL     1     -36.488  26.486   3.171  0.00  0.00    +0.113 C 
ATOM      6  C   UNL     1     -36.133  26.230   1.673  0.00  0.00    +0.054 C 
ATOM      7  C   UNL     1     -36.289  24.030   3.960  0.00  0.00    +0.010 C 
ATOM      8  C   UNL     1     -35.111  23.037   3.954  0.00  0.00    +0.058 C 
ATOM      9  C   UNL     1     -34.612  26.070   1.413  0.00  0.00    +0.123 C 
ATOM     10  C   UNL     1     -35.599  21.591   1.835  0.00  0.00    +0.085 C 
ATOM     11  C   UNL     1     -34.432  20.668   1.415  0.00  0.00    +0.121 C 
ATOM     12  C   UNL     1     -33.834  20.842  -0.013  0.00  0.00    +0.067 C 
ATOM     13  C   UNL     1     -34.279  25.595  -0.024  0.00  0.00    +0.126 C 
ATOM     14  C   UNL     1     -35.587  21.708   3.367  0.00  0.00    +0.152 C 
ATOM     15  C   UNL     1     -32.957  22.117  -0.151  0.00  0.00    +0.171 C 
ATOM     16  C   UNL     1     -36.212  25.923   5.632  0.00  0.00    +0.002 C 
ATOM     17  C   UNL     1     -36.743  27.349   0.811  0.00  0.00    +0.005 C 
ATOM     18  C   UNL     1     -34.505  22.827   5.339  0.00  0.00    +0.008 C 
ATOM     19  C   UNL     1     -37.000  21.132   1.419  0.00  0.00    +0.010 C 
ATOM     20  C   UNL     1     -33.229  24.497   0.070  0.00  0.00    +0.319 C 
ATOM     21  C   UNL     1     -34.885  20.724  -1.121  0.00  0.00    +0.006 C 
ATOM     22  C   UNL     1     -33.761  26.679  -0.969  0.00  0.00    +0.014 C 
ATOM     23  C   UNL     1     -32.083  22.063  -1.407  0.00  0.00    +0.047 C 
ENDROOT
BRANCH   5  24
ATOM     24  O   UNL     1     -37.915  26.440   3.290  0.00  0.00    -0.384 OA
ATOM     25  H   UNL     1     -38.169  26.585   4.214  0.00  0.00    +0.210 HD
ENDBRANCH   5  24
BRANCH   9  26
ATOM     26  O   UNL     1     -33.915  27.276   1.714  0.00  0.00    -0.384 OA
ATOM     27  H   UNL     1     -33.009  27.066   1.989  0.00  0.00    +0.210 HD
ENDBRANCH   9  26
BRANCH  11  28
ATOM     28  O   UNL     1     -34.852  19.306   1.568  0.00  0.00    -0.384 OA
ATOM     29  H   UNL     1     -35.792  19.229   1.340  0.00  0.00    +0.210 HD
ENDBRANCH  11  28
TORSDOF 3
ENDMDL
