MODEL 1
REMARK VINA RESULT:      -6.9      0.000      0.000
REMARK  Name = 5488801
REMARK  4 active torsions:
REMARK  status: ('A' for Active; 'I' for Inactive)
REMARK    1  A    between atoms: C_4  and  C_36
REMARK    2  A    between atoms: C_7  and  O_31
REMARK    3  A    between atoms: C_10  and  O_33
REMARK    4  A    between atoms: C_15  and  C_26
REMARK                            x       y       z     vdW  Elec       q    Type
REMARK                         _______ _______ _______ _____ _____    ______ ____
ROOT
ATOM      1  O   UNL     1     -35.355  20.318  -0.871  0.00  0.00    -0.317 OA
ATOM      2  O   UNL     1     -37.223  19.557   0.395  0.00  0.00    -0.315 OA
ATOM      3  O   UNL     1     -37.555  20.436  -1.782  0.00  0.00    -0.315 OA
ATOM      4  C   UNL     1     -36.000  21.524   1.155  0.00  0.00    +0.109 C 
ATOM      5  C   UNL     1     -35.961  22.928   1.873  0.00  0.00    +0.041 C 
ATOM      6  C   UNL     1     -34.517  23.526   1.838  0.00  0.00    +0.028 C 
ATOM      7  C   UNL     1     -34.386  24.893   2.564  0.00  0.00    +0.089 C 
ATOM      8  C   UNL     1     -35.435  21.641  -0.300  0.00  0.00    +0.108 C 
ATOM      9  C   UNL     1     -34.983  24.896   3.995  0.00  0.00    +0.029 C 
ATOM     10  C   UNL     1     -36.519  22.930   3.319  0.00  0.00    +0.111 C 
ATOM     11  C   UNL     1     -37.397  20.849   1.023  0.00  0.00    +0.131 C 
ATOM     12  C   UNL     1     -33.967  23.598   0.396  0.00  0.00    +0.005 C 
ATOM     13  C   UNL     1     -34.035  22.261  -0.333  0.00  0.00    +0.028 C 
ATOM     14  C   UNL     1     -36.415  24.307   3.978  0.00  0.00    +0.032 C 
ATOM     15  C   UNL     1     -35.070  26.422   4.329  0.00  0.00    +0.028 C 
ATOM     16  C   UNL     1     -36.393  22.449  -1.219  0.00  0.00    +0.058 C 
ATOM     17  C   UNL     1     -35.101  26.069   1.875  0.00  0.00    +0.027 C 
ATOM     18  C   UNL     1     -37.755  21.760  -1.265  0.00  0.00    +0.125 C 
ATOM     19  C   UNL     1     -38.360  21.649   0.137  0.00  0.00    +0.060 C 
ATOM     20  C   UNL     1     -35.437  27.078   2.982  0.00  0.00    +0.007 C 
ATOM     21  C   UNL     1     -36.662  19.717  -0.916  0.00  0.00    +0.296 C 
ATOM     22  C   UNL     1     -34.136  24.102   5.011  0.00  0.00    +0.003 C 
ATOM     23  C   UNL     1     -36.491  18.323  -1.505  0.00  0.00    +0.096 C 
ENDROOT
BRANCH  15  26
ATOM     24  O   UNL     1     -32.169  27.335   6.633  0.00  0.00    -0.418 OA
ATOM     25  O   UNL     1     -30.473  28.819   6.334  0.00  0.00    -0.244 OA
ATOM     26  C   UNL     1     -33.829  27.052   4.900  0.00  0.00    +0.015 C 
ATOM     27  C   UNL     1     -33.137  28.043   4.118  0.00  0.00    +0.006 C 
ATOM     28  C   UNL     1     -33.326  26.748   6.101  0.00  0.00    +0.179 C 
ATOM     29  C   UNL     1     -32.030  28.633   4.580  0.00  0.00    +0.082 C 
ATOM     30  C   UNL     1     -31.490  28.279   5.909  0.00  0.00    +0.346 C 
ENDBRANCH  15  26
BRANCH   7  31
ATOM     31  O   UNL     1     -32.990  25.221   2.656  0.00  0.00    -0.387 OA
ATOM     32  H   UNL     1     -32.761  25.400   3.581  0.00  0.00    +0.210 HD
ENDBRANCH   7  31
BRANCH  10  33
ATOM     33  O   UNL     1     -37.904  22.589   3.313  0.00  0.00    -0.384 OA
ATOM     34  H   UNL     1     -38.344  23.009   4.069  0.00  0.00    +0.210 HD
ENDBRANCH  10  33
BRANCH   4  36
ATOM     35  O   UNL     1     -35.372  20.324   3.166  0.00  0.00    -0.288 OA
ATOM     36  C   UNL     1     -35.164  20.556   1.980  0.00  0.00    +0.211 C 
ENDBRANCH   4  36
TORSDOF 4
ENDMDL
MODEL 2
REMARK VINA RESULT:      -6.8      2.891      7.852
REMARK  Name = 5488801
REMARK  4 active torsions:
REMARK  status: ('A' for Active; 'I' for Inactive)
REMARK    1  A    between atoms: C_4  and  C_36
REMARK    2  A    between atoms: C_7  and  O_31
REMARK    3  A    between atoms: C_10  and  O_33
REMARK    4  A    between atoms: C_15  and  C_26
REMARK                            x       y       z     vdW  Elec       q    Type
REMARK                         _______ _______ _______ _____ _____    ______ ____
ROOT
ATOM      1  O   UNL     1     -37.763  24.908   1.302  0.00  0.00    -0.317 OA
ATOM      2  O   UNL     1     -38.164  23.932   3.437  0.00  0.00    -0.315 OA
ATOM      3  O   UNL     1     -36.957  25.967   3.281  0.00  0.00    -0.315 OA
ATOM      4  C   UNL     1     -36.701  22.780   1.864  0.00  0.00    +0.109 C 
ATOM      5  C   UNL     1     -35.460  21.852   1.565  0.00  0.00    +0.041 C 
ATOM      6  C   UNL     1     -35.261  21.677   0.024  0.00  0.00    +0.028 C 
ATOM      7  C   UNL     1     -34.082  20.739  -0.354  0.00  0.00    +0.089 C 
ATOM      8  C   UNL     1     -36.550  24.148   1.119  0.00  0.00    +0.108 C 
ATOM      9  C   UNL     1     -34.107  19.378   0.389  0.00  0.00    +0.029 C 
ATOM     10  C   UNL     1     -35.498  20.474   2.272  0.00  0.00    +0.111 C 
ATOM     11  C   UNL     1     -36.964  23.127   3.359  0.00  0.00    +0.131 C 
ATOM     12  C   UNL     1     -35.152  23.041  -0.694  0.00  0.00    +0.005 C 
ATOM     13  C   UNL     1     -36.319  23.970  -0.384  0.00  0.00    +0.028 C 
ATOM     14  C   UNL     1     -34.293  19.603   1.909  0.00  0.00    +0.032 C 
ATOM     15  C   UNL     1     -32.667  18.821   0.135  0.00  0.00    +0.028 C 
ATOM     16  C   UNL     1     -35.408  25.006   1.732  0.00  0.00    +0.058 C 
ATOM     17  C   UNL     1     -32.681  21.295  -0.039  0.00  0.00    +0.027 C 
ATOM     18  C   UNL     1     -35.705  25.269   3.207  0.00  0.00    +0.125 C 
ATOM     19  C   UNL     1     -35.833  23.956   3.982  0.00  0.00    +0.060 C 
ATOM     20  C   UNL     1     -31.770  20.076   0.166  0.00  0.00    +0.007 C 
ATOM     21  C   UNL     1     -37.990  25.152   2.702  0.00  0.00    +0.296 C 
ATOM     22  C   UNL     1     -35.218  18.433  -0.109  0.00  0.00    +0.003 C 
ATOM     23  C   UNL     1     -39.292  25.933   2.813  0.00  0.00    +0.096 C 
ENDROOT
BRANCH  15  26
ATOM     24  O   UNL     1     -32.880  16.194  -2.624  0.00  0.00    -0.418 OA
ATOM     25  O   UNL     1     -31.832  16.099  -4.638  0.00  0.00    -0.244 OA
ATOM     26  C   UNL     1     -32.462  18.060  -1.147  0.00  0.00    +0.015 C 
ATOM     27  C   UNL     1     -31.561  18.598  -2.131  0.00  0.00    +0.006 C 
ATOM     28  C   UNL     1     -33.070  16.903  -1.429  0.00  0.00    +0.179 C 
ATOM     29  C   UNL     1     -31.344  17.961  -3.285  0.00  0.00    +0.082 C 
ATOM     30  C   UNL     1     -32.029  16.684  -3.578  0.00  0.00    +0.346 C 
ENDBRANCH  15  26
BRANCH   7  31
ATOM     31  O   UNL     1     -34.145  20.484  -1.766  0.00  0.00    -0.387 OA
ATOM     32  H   UNL     1     -33.327  20.049  -2.053  0.00  0.00    +0.210 HD
ENDBRANCH   7  31
BRANCH  10  33
ATOM     33  O   UNL     1     -35.461  20.645   3.688  0.00  0.00    -0.384 OA
ATOM     34  H   UNL     1     -34.838  21.354   3.912  0.00  0.00    +0.210 HD
ENDBRANCH  10  33
BRANCH   4  36
ATOM     35  O   UNL     1     -38.647  21.358   2.135  0.00  0.00    -0.288 OA
ATOM     36  C   UNL     1     -37.952  22.049   1.397  0.00  0.00    +0.211 C 
ENDBRANCH   4  36
TORSDOF 4
ENDMDL
MODEL 3
REMARK VINA RESULT:      -6.8      2.462      8.453
REMARK  Name = 5488801
REMARK  4 active torsions:
REMARK  status: ('A' for Active; 'I' for Inactive)
REMARK    1  A    between atoms: C_4  and  C_36
REMARK    2  A    between atoms: C_7  and  O_31
REMARK    3  A    between atoms: C_10  and  O_33
REMARK    4  A    between atoms: C_15  and  C_26
REMARK                            x       y       z     vdW  Elec       q    Type
REMARK                         _______ _______ _______ _____ _____    ______ ____
ROOT
ATOM      1  O   UNL     1     -33.370  25.967   3.177  0.00  0.00    -0.317 OA
ATOM      2  O   UNL     1     -34.739  27.608   4.229  0.00  0.00    -0.315 OA
ATOM      3  O   UNL     1     -33.536  26.053   5.554  0.00  0.00    -0.315 OA
ATOM      4  C   UNL     1     -35.795  25.864   2.892  0.00  0.00    +0.109 C 
ATOM      5  C   UNL     1     -37.008  24.898   2.601  0.00  0.00    +0.041 C 
ATOM      6  C   UNL     1     -36.708  23.994   1.361  0.00  0.00    +0.028 C 
ATOM      7  C   UNL     1     -37.875  23.040   0.982  0.00  0.00    +0.089 C 
ATOM      8  C   UNL     1     -34.472  25.044   3.054  0.00  0.00    +0.108 C 
ATOM      9  C   UNL     1     -39.247  23.754   0.865  0.00  0.00    +0.029 C 
ATOM     10  C   UNL     1     -38.377  25.607   2.442  0.00  0.00    +0.111 C 
ATOM     11  C   UNL     1     -35.909  26.758   4.162  0.00  0.00    +0.131 C 
ATOM     12  C   UNL     1     -35.380  23.222   1.529  0.00  0.00    +0.005 C 
ATOM     13  C   UNL     1     -34.202  24.132   1.854  0.00  0.00    +0.028 C 
ATOM     14  C   UNL     1     -39.505  24.625   2.118  0.00  0.00    +0.032 C 
ATOM     15  C   UNL     1     -40.257  22.559   0.866  0.00  0.00    +0.028 C 
ATOM     16  C   UNL     1     -34.480  24.205   4.363  0.00  0.00    +0.058 C 
ATOM     17  C   UNL     1     -38.144  21.908   1.989  0.00  0.00    +0.027 C 
ATOM     18  C   UNL     1     -34.641  25.138   5.563  0.00  0.00    +0.125 C 
ATOM     19  C   UNL     1     -35.939  25.942   5.460  0.00  0.00    +0.060 C 
ATOM     20  C   UNL     1     -39.626  21.538   1.836  0.00  0.00    +0.007 C 
ATOM     21  C   UNL     1     -33.552  26.807   4.331  0.00  0.00    +0.296 C 
ATOM     22  C   UNL     1     -39.365  24.644  -0.388  0.00  0.00    +0.003 C 
ATOM     23  C   UNL     1     -32.368  27.763   4.377  0.00  0.00    +0.096 C 
ENDROOT
BRANCH  15  26
ATOM     24  O   UNL     1     -41.449  21.925  -2.702  0.00  0.00    -0.418 OA
ATOM     25  O   UNL     1     -41.219  20.085  -4.017  0.00  0.00    -0.244 OA
ATOM     26  C   UNL     1     -40.534  21.917  -0.466  0.00  0.00    +0.015 C 
ATOM     27  C   UNL     1     -40.069  20.574  -0.694  0.00  0.00    +0.006 C 
ATOM     28  C   UNL     1     -41.192  22.523  -1.460  0.00  0.00    +0.179 C 
ATOM     29  C   UNL     1     -40.290  19.959  -1.859  0.00  0.00    +0.082 C 
ATOM     30  C   UNL     1     -41.017  20.648  -2.946  0.00  0.00    +0.346 C 
ENDBRANCH  15  26
BRANCH   7  31
ATOM     31  O   UNL     1     -37.569  22.438  -0.285  0.00  0.00    -0.387 OA
ATOM     32  H   UNL     1     -37.618  23.109  -0.983  0.00  0.00    +0.210 HD
ENDBRANCH   7  31
BRANCH  10  33
ATOM     33  O   UNL     1     -38.741  26.253   3.661  0.00  0.00    -0.384 OA
ATOM     34  H   UNL     1     -39.277  25.650   4.199  0.00  0.00    +0.210 HD
ENDBRANCH  10  33
BRANCH   4  36
ATOM     35  O   UNL     1     -36.301  27.896   1.669  0.00  0.00    -0.288 OA
ATOM     36  C   UNL     1     -35.685  26.836   1.727  0.00  0.00    +0.211 C 
ENDBRANCH   4  36
TORSDOF 4
ENDMDL
MODEL 4
REMARK VINA RESULT:      -6.6      2.747      4.330
REMARK  Name = 5488801
REMARK  4 active torsions:
REMARK  status: ('A' for Active; 'I' for Inactive)
REMARK    1  A    between atoms: C_4  and  C_36
REMARK    2  A    between atoms: C_7  and  O_31
REMARK    3  A    between atoms: C_10  and  O_33
REMARK    4  A    between atoms: C_15  and  C_26
REMARK                            x       y       z     vdW  Elec       q    Type
REMARK                         _______ _______ _______ _____ _____    ______ ____
ROOT
ATOM      1  O   UNL     1     -41.127  24.454   1.208  0.00  0.00    -0.317 OA
ATOM      2  O   UNL     1     -40.166  23.984  -0.921  0.00  0.00    -0.315 OA
ATOM      3  O   UNL     1     -41.122  22.228   0.353  0.00  0.00    -0.315 OA
ATOM      4  C   UNL     1     -38.715  24.705   0.901  0.00  0.00    +0.109 C 
ATOM      5  C   UNL     1     -37.323  24.680   1.643  0.00  0.00    +0.041 C 
ATOM      6  C   UNL     1     -37.368  25.568   2.929  0.00  0.00    +0.028 C 
ATOM      7  C   UNL     1     -36.019  25.631   3.697  0.00  0.00    +0.089 C 
ATOM      8  C   UNL     1     -39.861  24.283   1.880  0.00  0.00    +0.108 C 
ATOM      9  C   UNL     1     -34.806  25.976   2.793  0.00  0.00    +0.029 C 
ATOM     10  C   UNL     1     -36.111  25.064   0.757  0.00  0.00    +0.111 C 
ATOM     11  C   UNL     1     -38.852  23.784  -0.348  0.00  0.00    +0.131 C 
ATOM     12  C   UNL     1     -38.529  25.157   3.862  0.00  0.00    +0.005 C 
ATOM     13  C   UNL     1     -39.879  25.131   3.155  0.00  0.00    +0.028 C 
ATOM     14  C   UNL     1     -34.797  25.066   1.541  0.00  0.00    +0.032 C 
ATOM     15  C   UNL     1     -33.585  25.602   3.697  0.00  0.00    +0.028 C 
ATOM     16  C   UNL     1     -39.768  22.776   2.248  0.00  0.00    +0.058 C 
ATOM     17  C   UNL     1     -35.595  24.319   4.380  0.00  0.00    +0.027 C 
ATOM     18  C   UNL     1     -39.862  21.935   0.976  0.00  0.00    +0.125 C 
ATOM     19  C   UNL     1     -38.741  22.294  -0.001  0.00  0.00    +0.060 C 
ATOM     20  C   UNL     1     -34.063  24.354   4.470  0.00  0.00    +0.007 C 
ATOM     21  C   UNL     1     -41.179  23.627   0.031  0.00  0.00    +0.296 C 
ATOM     22  C   UNL     1     -34.789  27.448   2.333  0.00  0.00    +0.003 C 
ATOM     23  C   UNL     1     -42.527  23.879  -0.631  0.00  0.00    +0.096 C 
ENDROOT
BRANCH  15  26
ATOM     24  O   UNL     1     -32.881  27.613   6.862  0.00  0.00    -0.418 OA
ATOM     25  O   UNL     1     -31.782  29.585   7.128  0.00  0.00    -0.244 OA
ATOM     26  C   UNL     1     -33.111  26.663   4.652  0.00  0.00    +0.015 C 
ATOM     27  C   UNL     1     -32.387  27.790   4.125  0.00  0.00    +0.006 C 
ATOM     28  C   UNL     1     -33.324  26.624   5.972  0.00  0.00    +0.179 C 
ATOM     29  C   UNL     1     -31.945  28.760   4.931  0.00  0.00    +0.082 C 
ATOM     30  C   UNL     1     -32.189  28.696   6.387  0.00  0.00    +0.346 C 
ENDBRANCH  15  26
BRANCH   7  31
ATOM     31  O   UNL     1     -36.126  26.640   4.713  0.00  0.00    -0.387 OA
ATOM     32  H   UNL     1     -35.303  27.152   4.749  0.00  0.00    +0.210 HD
ENDBRANCH   7  31
BRANCH  10  33
ATOM     33  O   UNL     1     -35.951  24.115  -0.297  0.00  0.00    -0.384 OA
ATOM     34  H   UNL     1     -36.811  23.945  -0.712  0.00  0.00    +0.210 HD
ENDBRANCH  10  33
BRANCH   4  36
ATOM     35  O   UNL     1     -38.752  26.450  -0.782  0.00  0.00    -0.288 OA
ATOM     36  C   UNL     1     -38.942  26.118   0.383  0.00  0.00    +0.211 C 
ENDBRANCH   4  36
TORSDOF 4
ENDMDL
MODEL 5
REMARK VINA RESULT:      -6.4      2.538      8.265
REMARK  Name = 5488801
REMARK  4 active torsions:
REMARK  status: ('A' for Active; 'I' for Inactive)
REMARK    1  A    between atoms: C_4  and  C_36
REMARK    2  A    between atoms: C_7  and  O_31
REMARK    3  A    between atoms: C_10  and  O_33
REMARK    4  A    between atoms: C_15  and  C_26
REMARK                            x       y       z     vdW  Elec       q    Type
REMARK                         _______ _______ _______ _____ _____    ______ ____
ROOT
ATOM      1  O   UNL     1     -32.331  29.524   1.112  0.00  0.00    -0.317 OA
ATOM      2  O   UNL     1     -32.364  30.112   3.420  0.00  0.00    -0.315 OA
ATOM      3  O   UNL     1     -30.358  29.320   2.435  0.00  0.00    -0.315 OA
ATOM      4  C   UNL     1     -33.658  28.187   2.669  0.00  0.00    +0.109 C 
ATOM      5  C   UNL     1     -34.268  26.755   2.926  0.00  0.00    +0.041 C 
ATOM      6  C   UNL     1     -35.030  26.245   1.659  0.00  0.00    +0.028 C 
ATOM      7  C   UNL     1     -35.699  24.855   1.845  0.00  0.00    +0.089 C 
ATOM      8  C   UNL     1     -32.754  28.173   1.392  0.00  0.00    +0.108 C 
ATOM      9  C   UNL     1     -36.564  24.750   3.127  0.00  0.00    +0.029 C 
ATOM     10  C   UNL     1     -35.168  26.650   4.183  0.00  0.00    +0.111 C 
ATOM     11  C   UNL     1     -32.783  28.783   3.812  0.00  0.00    +0.131 C 
ATOM     12  C   UNL     1     -34.129  26.275   0.404  0.00  0.00    +0.005 C 
ATOM     13  C   UNL     1     -33.493  27.639   0.162  0.00  0.00    +0.028 C 
ATOM     14  C   UNL     1     -35.766  25.252   4.354  0.00  0.00    +0.032 C 
ATOM     15  C   UNL     1     -36.784  23.206   3.267  0.00  0.00    +0.028 C 
ATOM     16  C   UNL     1     -31.454  27.354   1.624  0.00  0.00    +0.058 C 
ATOM     17  C   UNL     1     -34.721  23.674   1.973  0.00  0.00    +0.027 C 
ATOM     18  C   UNL     1     -30.670  27.963   2.785  0.00  0.00    +0.125 C 
ATOM     19  C   UNL     1     -31.507  27.971   4.066  0.00  0.00    +0.060 C 
ATOM     20  C   UNL     1     -35.452  22.595   2.784  0.00  0.00    +0.007 C 
ATOM     21  C   UNL     1     -31.578  30.048   2.221  0.00  0.00    +0.296 C 
ATOM     22  C   UNL     1     -37.884  25.542   3.039  0.00  0.00    +0.003 C 
ATOM     23  C   UNL     1     -31.191  31.476   1.861  0.00  0.00    +0.096 C 
ENDROOT
BRANCH  15  26
ATOM     24  O   UNL     1     -40.279  22.503   1.909  0.00  0.00    -0.418 OA
ATOM     25  O   UNL     1     -40.973  20.976   0.375  0.00  0.00    -0.244 OA
ATOM     26  C   UNL     1     -37.940  22.624   2.500  0.00  0.00    +0.015 C 
ATOM     27  C   UNL     1     -37.682  21.550   1.577  0.00  0.00    +0.006 C 
ATOM     28  C   UNL     1     -39.202  23.045   2.625  0.00  0.00    +0.179 C 
ATOM     29  C   UNL     1     -38.674  20.998   0.871  0.00  0.00    +0.082 C 
ATOM     30  C   UNL     1     -40.062  21.481   1.023  0.00  0.00    +0.346 C 
ENDBRANCH  15  26
BRANCH   7  31
ATOM     31  O   UNL     1     -36.542  24.606   0.709  0.00  0.00    -0.387 OA
ATOM     32  H   UNL     1     -36.142  23.919   0.154  0.00  0.00    +0.210 HD
ENDBRANCH   7  31
BRANCH  10  33
ATOM     33  O   UNL     1     -34.403  26.909   5.359  0.00  0.00    -0.384 OA
ATOM     34  H   UNL     1     -34.457  26.146   5.955  0.00  0.00    +0.210 HD
ENDBRANCH  10  33
BRANCH   4  36
ATOM     35  O   UNL     1     -35.176  29.941   3.375  0.00  0.00    -0.288 OA
ATOM     36  C   UNL     1     -34.814  29.162   2.500  0.00  0.00    +0.211 C 
ENDBRANCH   4  36
TORSDOF 4
ENDMDL
MODEL 6
REMARK VINA RESULT:      -6.3      3.342      7.322
REMARK  Name = 5488801
REMARK  4 active torsions:
REMARK  status: ('A' for Active; 'I' for Inactive)
REMARK    1  A    between atoms: C_4  and  C_36
REMARK    2  A    between atoms: C_7  and  O_31
REMARK    3  A    between atoms: C_10  and  O_33
REMARK    4  A    between atoms: C_15  and  C_26
REMARK                            x       y       z     vdW  Elec       q    Type
REMARK                         _______ _______ _______ _____ _____    ______ ____
ROOT
ATOM      1  O   UNL     1     -40.847  24.893   1.956  0.00  0.00    -0.317 OA
ATOM      2  O   UNL     1     -39.468  26.623   2.838  0.00  0.00    -0.315 OA
ATOM      3  O   UNL     1     -40.722  27.009   0.863  0.00  0.00    -0.315 OA
ATOM      4  C   UNL     1     -38.419  24.610   1.947  0.00  0.00    +0.109 C 
ATOM      5  C   UNL     1     -37.219  23.891   1.218  0.00  0.00    +0.041 C 
ATOM      6  C   UNL     1     -37.514  22.366   1.044  0.00  0.00    +0.028 C 
ATOM      7  C   UNL     1     -36.358  21.575   0.371  0.00  0.00    +0.089 C 
ATOM      8  C   UNL     1     -39.760  24.341   1.185  0.00  0.00    +0.108 C 
ATOM      9  C   UNL     1     -34.972  21.832   1.017  0.00  0.00    +0.029 C 
ATOM     10  C   UNL     1     -35.836  24.109   1.881  0.00  0.00    +0.111 C 
ATOM     11  C   UNL     1     -38.312  26.156   2.102  0.00  0.00    +0.131 C 
ATOM     12  C   UNL     1     -38.858  22.125   0.322  0.00  0.00    +0.005 C 
ATOM     13  C   UNL     1     -40.026  22.847   0.985  0.00  0.00    +0.028 C 
ATOM     14  C   UNL     1     -34.720  23.353   1.157  0.00  0.00    +0.032 C 
ATOM     15  C   UNL     1     -33.983  21.253  -0.050  0.00  0.00    +0.028 C 
ATOM     16  C   UNL     1     -39.790  25.072  -0.187  0.00  0.00    +0.058 C 
ATOM     17  C   UNL     1     -36.127  21.900  -1.116  0.00  0.00    +0.027 C 
ATOM     18  C   UNL     1     -39.633  26.575   0.034  0.00  0.00    +0.125 C 
ATOM     19  C   UNL     1     -38.319  26.888   0.754  0.00  0.00    +0.060 C 
ATOM     20  C   UNL     1     -34.649  21.595  -1.399  0.00  0.00    +0.007 C 
ATOM     21  C   UNL     1     -40.670  26.312   2.119  0.00  0.00    +0.296 C 
ATOM     22  C   UNL     1     -34.815  21.176   2.404  0.00  0.00    +0.003 C 
ATOM     23  C   UNL     1     -41.837  26.814   2.958  0.00  0.00    +0.096 C 
ENDROOT
BRANCH  15  26
ATOM     24  O   UNL     1     -33.883  17.506  -0.760  0.00  0.00    -0.418 OA
ATOM     25  O   UNL     1     -32.848  15.829   0.373  0.00  0.00    -0.244 OA
ATOM     26  C   UNL     1     -33.695  19.780   0.037  0.00  0.00    +0.015 C 
ATOM     27  C   UNL     1     -32.881  19.300   1.123  0.00  0.00    +0.006 C 
ATOM     28  C   UNL     1     -34.153  18.880  -0.840  0.00  0.00    +0.179 C 
ATOM     29  C   UNL     1     -32.595  18.000   1.245  0.00  0.00    +0.082 C 
ATOM     30  C   UNL     1     -33.110  17.023   0.263  0.00  0.00    +0.346 C 
ENDBRANCH  15  26
BRANCH   7  31
ATOM     31  O   UNL     1     -36.652  20.173   0.474  0.00  0.00    -0.387 OA
ATOM     32  H   UNL     1     -35.827  19.678   0.599  0.00  0.00    +0.210 HD
ENDBRANCH   7  31
BRANCH  10  33
ATOM     33  O   UNL     1     -35.481  25.490   1.839  0.00  0.00    -0.384 OA
ATOM     34  H   UNL     1     -36.011  25.980   2.487  0.00  0.00    +0.210 HD
ENDBRANCH  10  33
BRANCH   4  36
ATOM     35  O   UNL     1     -37.708  24.392   4.255  0.00  0.00    -0.288 OA
ATOM     36  C   UNL     1     -38.492  24.070   3.368  0.00  0.00    +0.211 C 
ENDBRANCH   4  36
TORSDOF 4
ENDMDL
MODEL 7
REMARK VINA RESULT:      -6.3      1.417      1.956
REMARK  Name = 5488801
REMARK  4 active torsions:
REMARK  status: ('A' for Active; 'I' for Inactive)
REMARK    1  A    between atoms: C_4  and  C_36
REMARK    2  A    between atoms: C_7  and  O_31
REMARK    3  A    between atoms: C_10  and  O_33
REMARK    4  A    between atoms: C_15  and  C_26
REMARK                            x       y       z     vdW  Elec       q    Type
REMARK                         _______ _______ _______ _____ _____    ______ ____
ROOT
ATOM      1  O   UNL     1     -35.538  19.318  -1.877  0.00  0.00    -0.317 OA
ATOM      2  O   UNL     1     -37.346  18.252  -0.750  0.00  0.00    -0.315 OA
ATOM      3  O   UNL     1     -37.679  19.157  -2.916  0.00  0.00    -0.315 OA
ATOM      4  C   UNL     1     -36.462  20.343   0.140  0.00  0.00    +0.109 C 
ATOM      5  C   UNL     1     -36.667  21.711   0.900  0.00  0.00    +0.041 C 
ATOM      6  C   UNL     1     -35.324  22.508   0.970  0.00  0.00    +0.028 C 
ATOM      7  C   UNL     1     -35.431  23.852   1.743  0.00  0.00    +0.089 C 
ATOM      8  C   UNL     1     -35.839  20.594  -1.274  0.00  0.00    +0.108 C 
ATOM      9  C   UNL     1     -36.101  23.715   3.135  0.00  0.00    +0.029 C 
ATOM     10  C   UNL     1     -37.299  21.579   2.309  0.00  0.00    +0.111 C 
ATOM     11  C   UNL     1     -37.739  19.482  -0.096  0.00  0.00    +0.131 C 
ATOM     12  C   UNL     1     -34.710  22.712  -0.433  0.00  0.00    +0.005 C 
ATOM     13  C   UNL     1     -34.544  21.407  -1.203  0.00  0.00    +0.028 C 
ATOM     14  C   UNL     1     -37.431  22.931   3.013  0.00  0.00    +0.032 C 
ATOM     15  C   UNL     1     -36.426  25.201   3.507  0.00  0.00    +0.028 C 
ATOM     16  C   UNL     1     -36.851  21.292  -2.225  0.00  0.00    +0.058 C 
ATOM     17  C   UNL     1     -36.269  24.939   1.046  0.00  0.00    +0.027 C 
ATOM     18  C   UNL     1     -38.096  20.418  -2.374  0.00  0.00    +0.125 C 
ATOM     19  C   UNL     1     -38.756  20.170  -1.015  0.00  0.00    +0.060 C 
ATOM     20  C   UNL     1     -36.808  25.848   2.160  0.00  0.00    +0.007 C 
ATOM     21  C   UNL     1     -36.741  18.540  -2.019  0.00  0.00    +0.296 C 
ATOM     22  C   UNL     1     -35.207  23.013   4.176  0.00  0.00    +0.003 C 
ATOM     23  C   UNL     1     -36.339  17.208  -2.637  0.00  0.00    +0.096 C 
ENDROOT
BRANCH  15  26
ATOM     24  O   UNL     1     -33.682  27.752   4.228  0.00  0.00    -0.418 OA
ATOM     25  O   UNL     1     -32.359  28.000   6.060  0.00  0.00    -0.244 OA
ATOM     26  C   UNL     1     -35.322  25.979   4.171  0.00  0.00    +0.015 C 
ATOM     27  C   UNL     1     -34.893  25.580   5.486  0.00  0.00    +0.006 C 
ATOM     28  C   UNL     1     -34.710  27.026   3.609  0.00  0.00    +0.179 C 
ATOM     29  C   UNL     1     -33.917  26.238   6.118  0.00  0.00    +0.082 C 
ATOM     30  C   UNL     1     -33.255  27.395   5.480  0.00  0.00    +0.346 C 
ENDBRANCH  15  26
BRANCH   7  31
ATOM     31  O   UNL     1     -34.105  24.371   1.929  0.00  0.00    -0.387 OA
ATOM     32  H   UNL     1     -34.135  25.340   1.939  0.00  0.00    +0.210 HD
ENDBRANCH   7  31
BRANCH  10  33
ATOM     33  O   UNL     1     -38.618  21.045   2.209  0.00  0.00    -0.384 OA
ATOM     34  H   UNL     1     -38.846  20.591   3.035  0.00  0.00    +0.210 HD
ENDBRANCH  10  33
BRANCH   4  36
ATOM     35  O   UNL     1     -34.883  19.901   1.926  0.00  0.00    -0.288 OA
ATOM     36  C   UNL     1     -35.544  19.473   0.986  0.00  0.00    +0.211 C 
ENDBRANCH   4  36
TORSDOF 4
ENDMDL
MODEL 8
REMARK VINA RESULT:      -6.3      3.480      5.682
REMARK  Name = 5488801
REMARK  4 active torsions:
REMARK  status: ('A' for Active; 'I' for Inactive)
REMARK    1  A    between atoms: C_4  and  C_36
REMARK    2  A    between atoms: C_7  and  O_31
REMARK    3  A    between atoms: C_10  and  O_33
REMARK    4  A    between atoms: C_15  and  C_26
REMARK                            x       y       z     vdW  Elec       q    Type
REMARK                         _______ _______ _______ _____ _____    ______ ____
ROOT
ATOM      1  O   UNL     1     -33.554  17.586  -1.075  0.00  0.00    -0.317 OA
ATOM      2  O   UNL     1     -31.684  18.738  -1.995  0.00  0.00    -0.315 OA
ATOM      3  O   UNL     1     -31.356  17.160  -0.257  0.00  0.00    -0.315 OA
ATOM      4  C   UNL     1     -33.345  19.997  -0.730  0.00  0.00    +0.109 C 
ATOM      5  C   UNL     1     -33.731  21.190   0.228  0.00  0.00    +0.041 C 
ATOM      6  C   UNL     1     -35.258  21.159   0.559  0.00  0.00    +0.028 C 
ATOM      7  C   UNL     1     -35.728  22.329   1.466  0.00  0.00    +0.089 C 
ATOM      8  C   UNL     1     -33.796  18.633  -0.111  0.00  0.00    +0.108 C 
ATOM      9  C   UNL     1     -35.268  23.724   0.968  0.00  0.00    +0.029 C 
ATOM     10  C   UNL     1     -33.310  22.591  -0.282  0.00  0.00    +0.111 C 
ATOM     11  C   UNL     1     -31.832  19.840  -1.068  0.00  0.00    +0.131 C 
ATOM     12  C   UNL     1     -35.687  19.791   1.135  0.00  0.00    +0.005 C 
ATOM     13  C   UNL     1     -35.285  18.620   0.246  0.00  0.00    +0.028 C 
ATOM     14  C   UNL     1     -33.750  23.709   0.666  0.00  0.00    +0.032 C 
ATOM     15  C   UNL     1     -35.524  24.636   2.214  0.00  0.00    +0.028 C 
ATOM     16  C   UNL     1     -32.950  18.269   1.141  0.00  0.00    +0.058 C 
ATOM     17  C   UNL     1     -35.213  22.277   2.915  0.00  0.00    +0.027 C 
ATOM     18  C   UNL     1     -31.476  18.177   0.749  0.00  0.00    +0.125 C 
ATOM     19  C   UNL     1     -30.982  19.502   0.163  0.00  0.00    +0.060 C 
ATOM     20  C   UNL     1     -35.186  23.728   3.416  0.00  0.00    +0.007 C 
ATOM     21  C   UNL     1     -32.153  17.521  -1.396  0.00  0.00    +0.296 C 
ATOM     22  C   UNL     1     -36.018  24.199  -0.293  0.00  0.00    +0.003 C 
ATOM     23  C   UNL     1     -31.984  16.417  -2.430  0.00  0.00    +0.096 C 
ENDROOT
BRANCH  15  26
ATOM     24  O   UNL     1     -38.627  26.826   1.854  0.00  0.00    -0.418 OA
ATOM     25  O   UNL     1     -40.679  26.625   2.811  0.00  0.00    -0.244 OA
ATOM     26  C   UNL     1     -36.912  25.200   2.354  0.00  0.00    +0.015 C 
ATOM     27  C   UNL     1     -37.846  24.524   3.216  0.00  0.00    +0.006 C 
ATOM     28  C   UNL     1     -37.333  26.301   1.724  0.00  0.00    +0.179 C 
ATOM     29  C   UNL     1     -39.090  24.984   3.375  0.00  0.00    +0.082 C 
ATOM     30  C   UNL     1     -39.537  26.202   2.666  0.00  0.00    +0.346 C 
ENDBRANCH  15  26
BRANCH   7  31
ATOM     31  O   UNL     1     -37.164  22.316   1.509  0.00  0.00    -0.387 OA
ATOM     32  H   UNL     1     -37.459  22.087   2.404  0.00  0.00    +0.210 HD
ENDBRANCH   7  31
BRANCH  10  33
ATOM     33  O   UNL     1     -31.889  22.676  -0.375  0.00  0.00    -0.384 OA
ATOM     34  H   UNL     1     -31.644  23.460  -0.890  0.00  0.00    +0.210 HD
ENDBRANCH  10  33
BRANCH   4  36
ATOM     35  O   UNL     1     -33.527  20.877  -2.983  0.00  0.00    -0.288 OA
ATOM     36  C   UNL     1     -34.031  20.234  -2.068  0.00  0.00    +0.211 C 
ENDBRANCH   4  36
TORSDOF 4
ENDMDL
MODEL 9
REMARK VINA RESULT:      -6.3      3.686      7.618
REMARK  Name = 5488801
REMARK  4 active torsions:
REMARK  status: ('A' for Active; 'I' for Inactive)
REMARK    1  A    between atoms: C_4  and  C_36
REMARK    2  A    between atoms: C_7  and  O_31
REMARK    3  A    between atoms: C_10  and  O_33
REMARK    4  A    between atoms: C_15  and  C_26
REMARK                            x       y       z     vdW  Elec       q    Type
REMARK                         _______ _______ _______ _____ _____    ______ ____
ROOT
ATOM      1  O   UNL     1     -39.670  25.285   0.393  0.00  0.00    -0.317 OA
ATOM      2  O   UNL     1     -39.938  24.911   2.730  0.00  0.00    -0.315 OA
ATOM      3  O   UNL     1     -38.984  26.942   1.965  0.00  0.00    -0.315 OA
ATOM      4  C   UNL     1     -38.357  23.535   1.484  0.00  0.00    +0.109 C 
ATOM      5  C   UNL     1     -37.016  22.707   1.406  0.00  0.00    +0.041 C 
ATOM      6  C   UNL     1     -36.808  22.129  -0.031  0.00  0.00    +0.028 C 
ATOM      7  C   UNL     1     -35.527  21.262  -0.180  0.00  0.00    +0.089 C 
ATOM      8  C   UNL     1     -38.376  24.646   0.382  0.00  0.00    +0.108 C 
ATOM      9  C   UNL     1     -35.385  20.172   0.914  0.00  0.00    +0.029 C 
ATOM     10  C   UNL     1     -36.884  21.588   2.470  0.00  0.00    +0.111 C 
ATOM     11  C   UNL     1     -38.650  24.258   2.832  0.00  0.00    +0.131 C 
ATOM     12  C   UNL     1     -36.867  23.238  -1.105  0.00  0.00    +0.005 C 
ATOM     13  C   UNL     1     -38.135  24.079  -1.020  0.00  0.00    +0.028 C 
ATOM     14  C   UNL     1     -35.586  20.793   2.317  0.00  0.00    +0.032 C 
ATOM     15  C   UNL     1     -33.890  19.731   0.767  0.00  0.00    +0.028 C 
ATOM     16  C   UNL     1     -37.341  25.765   0.685  0.00  0.00    +0.058 C 
ATOM     17  C   UNL     1     -34.202  22.038  -0.088  0.00  0.00    +0.027 C 
ATOM     18  C   UNL     1     -37.658  26.398   2.039  0.00  0.00    +0.125 C 
ATOM     19  C   UNL     1     -37.623  25.350   3.154  0.00  0.00    +0.060 C 
ATOM     20  C   UNL     1     -33.150  21.038   0.412  0.00  0.00    +0.007 C 
ATOM     21  C   UNL     1     -39.915  25.886   1.678  0.00  0.00    +0.296 C 
ATOM     22  C   UNL     1     -36.378  19.005   0.744  0.00  0.00    +0.003 C 
ATOM     23  C   UNL     1     -41.301  26.514   1.618  0.00  0.00    +0.096 C 
ENDROOT
BRANCH  15  26
ATOM     24  O   UNL     1     -32.730  17.915  -2.380  0.00  0.00    -0.418 OA
ATOM     25  O   UNL     1     -32.886  15.718  -2.944  0.00  0.00    -0.244 OA
ATOM     26  C   UNL     1     -33.604  18.669  -0.258  0.00  0.00    +0.015 C 
ATOM     27  C   UNL     1     -34.005  17.315   0.023  0.00  0.00    +0.006 C 
ATOM     28  C   UNL     1     -32.997  18.906  -1.425  0.00  0.00    +0.179 C 
ATOM     29  C   UNL     1     -33.774  16.334  -0.854  0.00  0.00    +0.082 C 
ATOM     30  C   UNL     1     -33.099  16.619  -2.138  0.00  0.00    +0.346 C 
ENDBRANCH  15  26
BRANCH   7  31
ATOM     31  O   UNL     1     -35.569  20.614  -1.461  0.00  0.00    -0.387 OA
ATOM     32  H   UNL     1     -36.492  20.514  -1.743  0.00  0.00    +0.210 HD
ENDBRANCH   7  31
BRANCH  10  33
ATOM     33  O   UNL     1     -36.859  22.155   3.780  0.00  0.00    -0.384 OA
ATOM     34  H   UNL     1     -37.574  21.772   4.312  0.00  0.00    +0.210 HD
ENDBRANCH  10  33
BRANCH   4  36
ATOM     35  O   UNL     1     -40.079  21.992   2.216  0.00  0.00    -0.288 OA
ATOM     36  C   UNL     1     -39.515  22.566   1.290  0.00  0.00    +0.211 C 
ENDBRANCH   4  36
TORSDOF 4
ENDMDL
