MODEL 1
REMARK VINA RESULT:      -5.0      0.000      0.000
REMARK  Name = 193020
REMARK  6 active torsions:
REMARK  status: ('A' for Active; 'I' for Inactive)
REMARK    1  A    between atoms: C_1  and  C_13
REMARK    2  A    between atoms: C_2  and  N_9
REMARK    3  A    between atoms: C_5  and  N_12
REMARK    4  A    between atoms: C_13  and  C_14
REMARK    5  A    between atoms: C_14  and  C_16
REMARK    6  A    between atoms: C_16  and  C_18
REMARK                            x       y       z     vdW  Elec       q    Type
REMARK                         _______ _______ _______ _____ _____    ______ ____
ROOT
ATOM      1  C   UNL     1     -36.029  24.149   4.753  0.00  0.00    +0.001 C 
ATOM      2  C   UNL     1     -36.904  23.955   3.694  0.00  0.00    +0.141 C 
ATOM      3  C   UNL     1     -35.096  23.181   5.099  0.00  0.00    -0.001 C 
ATOM      4  C   UNL     1     -36.845  22.767   2.965  0.00  0.00    +0.048 C 
ATOM      5  C   UNL     1     -35.912  21.786   3.303  0.00  0.00    +0.145 C 
ATOM      6  C   UNL     1     -35.037  21.994   4.369  0.00  0.00    +0.024 C 
ENDROOT
BRANCH   2   9
ATOM      7  O   UNL     1     -37.491  25.925   2.652  0.00  0.00    -0.126 OA
ATOM      8  O   UNL     1     -39.050  24.797   3.705  0.00  0.00    -0.126 OA
ATOM      9  N   UNL     1     -37.862  24.941   3.333  0.00  0.00    +0.057 N 
ENDBRANCH   2   9
BRANCH   5  12
ATOM     10  O   UNL     1     -36.868  20.199   1.930  0.00  0.00    -0.126 OA
ATOM     11  O   UNL     1     -34.783  19.919   2.558  0.00  0.00    -0.126 OA
ATOM     12  N   UNL     1     -35.852  20.577   2.561  0.00  0.00    +0.058 N 
ENDBRANCH   5  12
BRANCH   1  13
ATOM     13  C   UNL     1     -36.065  25.423   5.563  0.00  0.00    +0.036 C 
BRANCH  13  14
ATOM     14  C   UNL     1     -34.720  26.148   5.589  0.00  0.00    +0.070 C 
BRANCH  14  16
ATOM     15  O   UNL     1     -34.922  27.735   3.785  0.00  0.00    -0.295 OA
ATOM     16  C   UNL     1     -34.342  26.751   4.244  0.00  0.00    +0.162 C 
BRANCH  16  18
ATOM     17 BR   UNL     1     -33.944  25.439   1.839  0.00  0.00    -0.072 Br
ATOM     18  C   UNL     1     -33.206  26.107   3.498  0.00  0.00    +0.132 C 
ENDBRANCH  16  18
ENDBRANCH  14  16
ENDBRANCH  13  14
ENDBRANCH   1  13
TORSDOF 6
ENDMDL
MODEL 2
REMARK VINA RESULT:      -5.0      2.996      5.697
REMARK  Name = 193020
REMARK  6 active torsions:
REMARK  status: ('A' for Active; 'I' for Inactive)
REMARK    1  A    between atoms: C_1  and  C_13
REMARK    2  A    between atoms: C_2  and  N_9
REMARK    3  A    between atoms: C_5  and  N_12
REMARK    4  A    between atoms: C_13  and  C_14
REMARK    5  A    between atoms: C_14  and  C_16
REMARK    6  A    between atoms: C_16  and  C_18
REMARK                            x       y       z     vdW  Elec       q    Type
REMARK                         _______ _______ _______ _____ _____    ______ ____
ROOT
ATOM      1  C   UNL     1     -35.706  23.776   3.813  0.00  0.00    +0.001 C 
ATOM      2  C   UNL     1     -35.080  23.663   5.046  0.00  0.00    +0.141 C 
ATOM      3  C   UNL     1     -35.578  24.928   3.049  0.00  0.00    -0.001 C 
ATOM      4  C   UNL     1     -34.312  24.724   5.525  0.00  0.00    +0.048 C 
ATOM      5  C   UNL     1     -34.177  25.887   4.767  0.00  0.00    +0.145 C 
ATOM      6  C   UNL     1     -34.810  25.988   3.528  0.00  0.00    +0.024 C 
ENDROOT
BRANCH   2   9
ATOM      7  O   UNL     1     -36.248  22.317   6.509  0.00  0.00    -0.126 OA
ATOM      8  O   UNL     1     -34.267  21.655   5.836  0.00  0.00    -0.126 OA
ATOM      9  N   UNL     1     -35.204  22.487   5.836  0.00  0.00    +0.057 N 
ENDBRANCH   2   9
BRANCH   5  12
ATOM     10  O   UNL     1     -33.318  28.018   4.573  0.00  0.00    -0.126 OA
ATOM     11  O   UNL     1     -32.802  26.841   6.353  0.00  0.00    -0.126 OA
ATOM     12  N   UNL     1     -33.395  26.967   5.254  0.00  0.00    +0.058 N 
ENDBRANCH   5  12
BRANCH   1  13
ATOM     13  C   UNL     1     -36.544  22.647   3.265  0.00  0.00    +0.036 C 
BRANCH  13  14
ATOM     14  C   UNL     1     -36.048  22.144   1.909  0.00  0.00    +0.070 C 
BRANCH  14  16
ATOM     15  O   UNL     1     -35.126  20.243   3.070  0.00  0.00    -0.295 OA
ATOM     16  C   UNL     1     -35.248  20.854   2.009  0.00  0.00    +0.162 C 
BRANCH  16  18
ATOM     17 BR   UNL     1     -33.391  18.939   1.268  0.00  0.00    -0.072 Br
ATOM     18  C   UNL     1     -34.624  20.335   0.742  0.00  0.00    +0.132 C 
ENDBRANCH  16  18
ENDBRANCH  14  16
ENDBRANCH  13  14
ENDBRANCH   1  13
TORSDOF 6
ENDMDL
MODEL 3
REMARK VINA RESULT:      -5.0      2.933      5.685
REMARK  Name = 193020
REMARK  6 active torsions:
REMARK  status: ('A' for Active; 'I' for Inactive)
REMARK    1  A    between atoms: C_1  and  C_13
REMARK    2  A    between atoms: C_2  and  N_9
REMARK    3  A    between atoms: C_5  and  N_12
REMARK    4  A    between atoms: C_13  and  C_14
REMARK    5  A    between atoms: C_14  and  C_16
REMARK    6  A    between atoms: C_16  and  C_18
REMARK                            x       y       z     vdW  Elec       q    Type
REMARK                         _______ _______ _______ _____ _____    ______ ____
ROOT
ATOM      1  C   UNL     1     -36.251  23.451   3.552  0.00  0.00    +0.001 C 
ATOM      2  C   UNL     1     -35.507  23.281   4.710  0.00  0.00    +0.141 C 
ATOM      3  C   UNL     1     -36.210  24.645   2.844  0.00  0.00    -0.001 C 
ATOM      4  C   UNL     1     -34.707  24.325   5.172  0.00  0.00    +0.048 C 
ATOM      5  C   UNL     1     -34.658  25.530   4.470  0.00  0.00    +0.145 C 
ATOM      6  C   UNL     1     -35.410  25.690   3.306  0.00  0.00    +0.024 C 
ENDROOT
BRANCH   2   9
ATOM      7  O   UNL     1     -36.099  22.044   6.564  0.00  0.00    -0.126 OA
ATOM      8  O   UNL     1     -35.016  21.040   4.941  0.00  0.00    -0.126 OA
ATOM      9  N   UNL     1     -35.542  22.061   5.441  0.00  0.00    +0.057 N 
ENDBRANCH   2   9
BRANCH   5  12
ATOM     10  O   UNL     1     -33.143  26.417   5.965  0.00  0.00    -0.126 OA
ATOM     11  O   UNL     1     -33.847  27.683   4.315  0.00  0.00    -0.126 OA
ATOM     12  N   UNL     1     -33.843  26.594   4.939  0.00  0.00    +0.058 N 
ENDBRANCH   5  12
BRANCH   1  13
ATOM     13  C   UNL     1     -37.127  22.341   3.024  0.00  0.00    +0.036 C 
BRANCH  13  14
ATOM     14  C   UNL     1     -37.896  22.740   1.764  0.00  0.00    +0.070 C 
BRANCH  14  16
ATOM     15  O   UNL     1     -39.930  21.538   2.244  0.00  0.00    -0.295 OA
ATOM     16  C   UNL     1     -39.403  22.601   1.917  0.00  0.00    +0.162 C 
BRANCH  16  18
ATOM     17 BR   UNL     1     -39.906  25.022   3.162  0.00  0.00    -0.072 Br
ATOM     18  C   UNL     1     -40.233  23.831   1.672  0.00  0.00    +0.132 C 
ENDBRANCH  16  18
ENDBRANCH  14  16
ENDBRANCH  13  14
ENDBRANCH   1  13
TORSDOF 6
ENDMDL
MODEL 4
REMARK VINA RESULT:      -4.8      2.957      5.550
REMARK  Name = 193020
REMARK  6 active torsions:
REMARK  status: ('A' for Active; 'I' for Inactive)
REMARK    1  A    between atoms: C_1  and  C_13
REMARK    2  A    between atoms: C_2  and  N_9
REMARK    3  A    between atoms: C_5  and  N_12
REMARK    4  A    between atoms: C_13  and  C_14
REMARK    5  A    between atoms: C_14  and  C_16
REMARK    6  A    between atoms: C_16  and  C_18
REMARK                            x       y       z     vdW  Elec       q    Type
REMARK                         _______ _______ _______ _____ _____    ______ ____
ROOT
ATOM      1  C   UNL     1     -35.273  23.205   3.333  0.00  0.00    +0.001 C 
ATOM      2  C   UNL     1     -35.072  23.198   4.705  0.00  0.00    +0.141 C 
ATOM      3  C   UNL     1     -34.941  24.314   2.567  0.00  0.00    -0.001 C 
ATOM      4  C   UNL     1     -34.528  24.323   5.326  0.00  0.00    +0.048 C 
ATOM      5  C   UNL     1     -34.191  25.443   4.567  0.00  0.00    +0.145 C 
ATOM      6  C   UNL     1     -34.397  25.439   3.187  0.00  0.00    +0.024 C 
ENDROOT
BRANCH   2   9
ATOM      7  O   UNL     1     -34.931  20.949   5.191  0.00  0.00    -0.126 OA
ATOM      8  O   UNL     1     -36.171  22.219   6.481  0.00  0.00    -0.126 OA
ATOM      9  N   UNL     1     -35.408  22.066   5.498  0.00  0.00    +0.057 N 
ENDBRANCH   2   9
BRANCH   5  12
ATOM     10  O   UNL     1     -33.674  27.691   4.597  0.00  0.00    -0.126 OA
ATOM     11  O   UNL     1     -33.128  26.468   6.337  0.00  0.00    -0.126 OA
ATOM     12  N   UNL     1     -33.638  26.589   5.197  0.00  0.00    +0.058 N 
ENDBRANCH   5  12
BRANCH   1  13
ATOM     13  C   UNL     1     -35.859  22.005   2.630  0.00  0.00    +0.036 C 
BRANCH  13  14
ATOM     14  C   UNL     1     -36.973  22.376   1.652  0.00  0.00    +0.070 C 
BRANCH  14  16
ATOM     15  O   UNL     1     -38.508  23.520   3.117  0.00  0.00    -0.295 OA
ATOM     16  C   UNL     1     -38.316  22.591   2.332  0.00  0.00    +0.162 C 
BRANCH  16  18
ATOM     17 BR   UNL     1     -39.073  21.007   0.192  0.00  0.00    -0.072 Br
ATOM     18  C   UNL     1     -39.420  21.629   1.991  0.00  0.00    +0.132 C 
ENDBRANCH  16  18
ENDBRANCH  14  16
ENDBRANCH  13  14
ENDBRANCH   1  13
TORSDOF 6
ENDMDL
MODEL 5
REMARK VINA RESULT:      -4.8      2.113      3.772
REMARK  Name = 193020
REMARK  6 active torsions:
REMARK  status: ('A' for Active; 'I' for Inactive)
REMARK    1  A    between atoms: C_1  and  C_13
REMARK    2  A    between atoms: C_2  and  N_9
REMARK    3  A    between atoms: C_5  and  N_12
REMARK    4  A    between atoms: C_13  and  C_14
REMARK    5  A    between atoms: C_14  and  C_16
REMARK    6  A    between atoms: C_16  and  C_18
REMARK                            x       y       z     vdW  Elec       q    Type
REMARK                         _______ _______ _______ _____ _____    ______ ____
ROOT
ATOM      1  C   UNL     1     -36.315  23.485   3.236  0.00  0.00    +0.001 C 
ATOM      2  C   UNL     1     -36.488  22.190   2.770  0.00  0.00    +0.141 C 
ATOM      3  C   UNL     1     -37.350  24.408   3.185  0.00  0.00    -0.001 C 
ATOM      4  C   UNL     1     -37.721  21.809   2.242  0.00  0.00    +0.048 C 
ATOM      5  C   UNL     1     -38.769  22.729   2.185  0.00  0.00    +0.145 C 
ATOM      6  C   UNL     1     -38.584  24.028   2.657  0.00  0.00    +0.024 C 
ENDROOT
BRANCH   2   9
ATOM      7  O   UNL     1     -35.243  20.599   3.881  0.00  0.00    -0.126 OA
ATOM      8  O   UNL     1     -34.726  21.062   1.800  0.00  0.00    -0.126 OA
ATOM      9  N   UNL     1     -35.433  21.237   2.819  0.00  0.00    +0.057 N 
ENDBRANCH   2   9
BRANCH   5  12
ATOM     10  O   UNL     1     -40.840  23.233   1.303  0.00  0.00    -0.126 OA
ATOM     11  O   UNL     1     -40.286  21.120   1.530  0.00  0.00    -0.126 OA
ATOM     12  N   UNL     1     -40.026  22.342   1.646  0.00  0.00    +0.058 N 
ENDBRANCH   5  12
BRANCH   1  13
ATOM     13  C   UNL     1     -34.993  23.929   3.814  0.00  0.00    +0.036 C 
BRANCH  13  14
ATOM     14  C   UNL     1     -35.072  24.231   5.311  0.00  0.00    +0.070 C 
BRANCH  14  16
ATOM     15  O   UNL     1     -36.080  26.392   5.667  0.00  0.00    -0.295 OA
ATOM     16  C   UNL     1     -35.050  25.720   5.620  0.00  0.00    +0.162 C 
BRANCH  16  18
ATOM     17 BR   UNL     1     -33.173  27.231   4.257  0.00  0.00    -0.072 Br
ATOM     18  C   UNL     1     -33.709  26.344   5.891  0.00  0.00    +0.132 C 
ENDBRANCH  16  18
ENDBRANCH  14  16
ENDBRANCH  13  14
ENDBRANCH   1  13
TORSDOF 6
ENDMDL
MODEL 6
REMARK VINA RESULT:      -4.8      2.870      5.604
REMARK  Name = 193020
REMARK  6 active torsions:
REMARK  status: ('A' for Active; 'I' for Inactive)
REMARK    1  A    between atoms: C_1  and  C_13
REMARK    2  A    between atoms: C_2  and  N_9
REMARK    3  A    between atoms: C_5  and  N_12
REMARK    4  A    between atoms: C_13  and  C_14
REMARK    5  A    between atoms: C_14  and  C_16
REMARK    6  A    between atoms: C_16  and  C_18
REMARK                            x       y       z     vdW  Elec       q    Type
REMARK                         _______ _______ _______ _____ _____    ______ ____
ROOT
ATOM      1  C   UNL     1     -34.956  24.284   2.649  0.00  0.00    +0.001 C 
ATOM      2  C   UNL     1     -35.418  24.574   3.924  0.00  0.00    +0.141 C 
ATOM      3  C   UNL     1     -33.880  24.972   2.104  0.00  0.00    -0.001 C 
ATOM      4  C   UNL     1     -34.793  25.572   4.670  0.00  0.00    +0.048 C 
ATOM      5  C   UNL     1     -33.712  26.271   4.134  0.00  0.00    +0.145 C 
ATOM      6  C   UNL     1     -33.255  25.970   2.851  0.00  0.00    +0.024 C 
ENDROOT
BRANCH   2   9
ATOM      7  O   UNL     1     -37.682  24.244   4.207  0.00  0.00    -0.126 OA
ATOM      8  O   UNL     1     -36.294  22.907   5.255  0.00  0.00    -0.126 OA
ATOM      9  N   UNL     1     -36.519  23.874   4.491  0.00  0.00    +0.057 N 
ENDBRANCH   2   9
BRANCH   5  12
ATOM     10  O   UNL     1     -33.065  28.462   4.450  0.00  0.00    -0.126 OA
ATOM     11  O   UNL     1     -32.540  26.985   5.986  0.00  0.00    -0.126 OA
ATOM     12  N   UNL     1     -33.075  27.288   4.893  0.00  0.00    +0.058 N 
ENDBRANCH   5  12
BRANCH   1  13
ATOM     13  C   UNL     1     -35.609  23.209   1.814  0.00  0.00    +0.036 C 
BRANCH  13  14
ATOM     14  C   UNL     1     -34.642  22.090   1.426  0.00  0.00    +0.070 C 
BRANCH  14  16
ATOM     15  O   UNL     1     -35.476  20.574   3.106  0.00  0.00    -0.295 OA
ATOM     16  C   UNL     1     -35.064  20.728   1.956  0.00  0.00    +0.162 C 
BRANCH  16  18
ATOM     17 BR   UNL     1     -33.230  18.776   1.257  0.00  0.00    -0.072 Br
ATOM     18  C   UNL     1     -34.978  19.566   1.005  0.00  0.00    +0.132 C 
ENDBRANCH  16  18
ENDBRANCH  14  16
ENDBRANCH  13  14
ENDBRANCH   1  13
TORSDOF 6
ENDMDL
MODEL 7
REMARK VINA RESULT:      -4.7      2.770      5.621
REMARK  Name = 193020
REMARK  6 active torsions:
REMARK  status: ('A' for Active; 'I' for Inactive)
REMARK    1  A    between atoms: C_1  and  C_13
REMARK    2  A    between atoms: C_2  and  N_9
REMARK    3  A    between atoms: C_5  and  N_12
REMARK    4  A    between atoms: C_13  and  C_14
REMARK    5  A    between atoms: C_14  and  C_16
REMARK    6  A    between atoms: C_16  and  C_18
REMARK                            x       y       z     vdW  Elec       q    Type
REMARK                         _______ _______ _______ _____ _____    ______ ____
ROOT
ATOM      1  C   UNL     1     -34.858  24.796   2.906  0.00  0.00    +0.001 C 
ATOM      2  C   UNL     1     -35.305  24.918   4.214  0.00  0.00    +0.141 C 
ATOM      3  C   UNL     1     -33.768  25.526   2.451  0.00  0.00    -0.001 C 
ATOM      4  C   UNL     1     -34.649  25.787   5.086  0.00  0.00    +0.048 C 
ATOM      5  C   UNL     1     -33.553  26.526   4.640  0.00  0.00    +0.145 C 
ATOM      6  C   UNL     1     -33.112  26.395   3.323  0.00  0.00    +0.024 C 
ENDROOT
BRANCH   2   9
ATOM      7  O   UNL     1     -36.213  23.155   5.390  0.00  0.00    -0.126 OA
ATOM      8  O   UNL     1     -37.575  24.559   4.395  0.00  0.00    -0.126 OA
ATOM      9  N   UNL     1     -36.420  24.174   4.689  0.00  0.00    +0.057 N 
ENDBRANCH   2   9
BRANCH   5  12
ATOM     10  O   UNL     1     -32.552  26.998   6.663  0.00  0.00    -0.126 OA
ATOM     11  O   UNL     1     -32.645  28.584   5.147  0.00  0.00    -0.126 OA
ATOM     12  N   UNL     1     -32.884  27.412   5.526  0.00  0.00    +0.058 N 
ENDBRANCH   5  12
BRANCH   1  13
ATOM     13  C   UNL     1     -35.545  23.864   1.938  0.00  0.00    +0.036 C 
BRANCH  13  14
ATOM     14  C   UNL     1     -34.958  22.453   1.955  0.00  0.00    +0.070 C 
BRANCH  14  16
ATOM     15  O   UNL     1     -35.609  20.347   2.932  0.00  0.00    -0.295 OA
ATOM     16  C   UNL     1     -35.960  21.396   2.392  0.00  0.00    +0.162 C 
BRANCH  16  18
ATOM     17 BR   UNL     1     -37.899  20.813   0.504  0.00  0.00    -0.072 Br
ATOM     18  C   UNL     1     -37.416  21.694   2.158  0.00  0.00    +0.132 C 
ENDBRANCH  16  18
ENDBRANCH  14  16
ENDBRANCH  13  14
ENDBRANCH   1  13
TORSDOF 6
ENDMDL
MODEL 8
REMARK VINA RESULT:      -4.5      2.484      5.233
REMARK  Name = 193020
REMARK  6 active torsions:
REMARK  status: ('A' for Active; 'I' for Inactive)
REMARK    1  A    between atoms: C_1  and  C_13
REMARK    2  A    between atoms: C_2  and  N_9
REMARK    3  A    between atoms: C_5  and  N_12
REMARK    4  A    between atoms: C_13  and  C_14
REMARK    5  A    between atoms: C_14  and  C_16
REMARK    6  A    between atoms: C_16  and  C_18
REMARK                            x       y       z     vdW  Elec       q    Type
REMARK                         _______ _______ _______ _____ _____    ______ ____
ROOT
ATOM      1  C   UNL     1     -35.864  24.232   3.900  0.00  0.00    +0.001 C 
ATOM      2  C   UNL     1     -35.960  25.547   3.469  0.00  0.00    +0.141 C 
ATOM      3  C   UNL     1     -34.931  23.860   4.859  0.00  0.00    -0.001 C 
ATOM      4  C   UNL     1     -35.106  26.510   4.006  0.00  0.00    +0.048 C 
ATOM      5  C   UNL     1     -34.165  26.148   4.970  0.00  0.00    +0.145 C 
ATOM      6  C   UNL     1     -34.077  24.823   5.396  0.00  0.00    +0.024 C 
ENDROOT
BRANCH   2   9
ATOM      7  O   UNL     1     -36.611  25.835   1.276  0.00  0.00    -0.126 OA
ATOM      8  O   UNL     1     -38.026  26.373   2.864  0.00  0.00    -0.126 OA
ATOM      9  N   UNL     1     -36.913  25.938   2.488  0.00  0.00    +0.057 N 
ENDBRANCH   2   9
BRANCH   5  12
ATOM     10  O   UNL     1     -33.112  28.198   4.889  0.00  0.00    -0.126 OA
ATOM     11  O   UNL     1     -32.732  26.895   6.615  0.00  0.00    -0.126 OA
ATOM     12  N   UNL     1     -33.294  27.128   5.517  0.00  0.00    +0.058 N 
ENDBRANCH   5  12
BRANCH   1  13
ATOM     13  C   UNL     1     -36.773  23.165   3.340  0.00  0.00    +0.036 C 
BRANCH  13  14
ATOM     14  C   UNL     1     -36.130  22.378   2.198  0.00  0.00    +0.070 C 
BRANCH  14  16
ATOM     15  O   UNL     1     -35.445  20.673   3.759  0.00  0.00    -0.295 OA
ATOM     16  C   UNL     1     -35.733  20.965   2.599  0.00  0.00    +0.162 C 
BRANCH  16  18
ATOM     17 BR   UNL     1     -33.874  19.444   1.221  0.00  0.00    -0.072 Br
ATOM     18  C   UNL     1     -35.726  19.922   1.515  0.00  0.00    +0.132 C 
ENDBRANCH  16  18
ENDBRANCH  14  16
ENDBRANCH  13  14
ENDBRANCH   1  13
TORSDOF 6
ENDMDL
MODEL 9
REMARK VINA RESULT:      -4.5      2.976      5.563
REMARK  Name = 193020
REMARK  6 active torsions:
REMARK  status: ('A' for Active; 'I' for Inactive)
REMARK    1  A    between atoms: C_1  and  C_13
REMARK    2  A    between atoms: C_2  and  N_9
REMARK    3  A    between atoms: C_5  and  N_12
REMARK    4  A    between atoms: C_13  and  C_14
REMARK    5  A    between atoms: C_14  and  C_16
REMARK    6  A    between atoms: C_16  and  C_18
REMARK                            x       y       z     vdW  Elec       q    Type
REMARK                         _______ _______ _______ _____ _____    ______ ____
ROOT
ATOM      1  C   UNL     1     -36.314  22.530   3.015  0.00  0.00    +0.001 C 
ATOM      2  C   UNL     1     -36.241  23.495   4.009  0.00  0.00    +0.141 C 
ATOM      3  C   UNL     1     -37.057  22.743   1.863  0.00  0.00    -0.001 C 
ATOM      4  C   UNL     1     -36.926  24.699   3.848  0.00  0.00    +0.048 C 
ATOM      5  C   UNL     1     -37.677  24.925   2.695  0.00  0.00    +0.145 C 
ATOM      6  C   UNL     1     -37.743  23.947   1.702  0.00  0.00    +0.024 C 
ENDROOT
BRANCH   2   9
ATOM      7  O   UNL     1     -34.318  23.749   5.256  0.00  0.00    -0.126 OA
ATOM      8  O   UNL     1     -35.996  22.644   6.138  0.00  0.00    -0.126 OA
ATOM      9  N   UNL     1     -35.480  23.285   5.193  0.00  0.00    +0.057 N 
ENDBRANCH   2   9
BRANCH   5  12
ATOM     10  O   UNL     1     -37.839  27.072   1.869  0.00  0.00    -0.126 OA
ATOM     11  O   UNL     1     -39.510  26.278   3.050  0.00  0.00    -0.126 OA
ATOM     12  N   UNL     1     -38.376  26.151   2.530  0.00  0.00    +0.058 N 
ENDBRANCH   5  12
BRANCH   1  13
ATOM     13  C   UNL     1     -35.584  21.216   3.157  0.00  0.00    +0.036 C 
BRANCH  13  14
ATOM     14  C   UNL     1     -35.830  20.270   1.982  0.00  0.00    +0.070 C 
BRANCH  14  16
ATOM     15  O   UNL     1     -33.926  21.123   0.773  0.00  0.00    -0.295 OA
ATOM     16  C   UNL     1     -34.634  20.154   1.050  0.00  0.00    +0.162 C 
BRANCH  16  18
ATOM     17 BR   UNL     1     -32.673  18.216   1.308  0.00  0.00    -0.072 Br
ATOM     18  C   UNL     1     -34.330  18.791   0.491  0.00  0.00    +0.132 C 
ENDBRANCH  16  18
ENDBRANCH  14  16
ENDBRANCH  13  14
ENDBRANCH   1  13
TORSDOF 6
ENDMDL
