MODEL 1
REMARK VINA RESULT:      -5.4      0.000      0.000
REMARK  Name = 21455047
REMARK  6 active torsions:
REMARK  status: ('A' for Active; 'I' for Inactive)
REMARK    1  A    between atoms: N_1  and  S_3
REMARK    2  A    between atoms: N_1  and  C_12
REMARK    3  A    between atoms: S_3  and  C_6
REMARK    4  A    between atoms: C_12  and  C_13
REMARK    5  A    between atoms: C_13  and  C_16
REMARK    6  A    between atoms: N_15  and  N_18
REMARK                            x       y       z     vdW  Elec       q    Type
REMARK                         _______ _______ _______ _____ _____    ______ ____
ROOT
ATOM      1  N   UNL     1     -35.155  22.535   2.106  0.00  0.00    -0.179 NA
ATOM      2  H   UNL     1     -34.459  22.896   1.455  0.00  0.00    +0.149 HD
ENDROOT
BRANCH   1   3
ATOM      3  S   UNL     1     -35.585  20.986   1.556  0.00  0.00    +0.060 S 
ATOM      4  O   UNL     1     -36.403  21.107   0.365  0.00  0.00    -0.153 OA
ATOM      5  O   UNL     1     -36.051  20.200   2.684  0.00  0.00    -0.153 OA
BRANCH   3   6
ATOM      6  C   UNL     1     -34.019  20.322   1.078  0.00  0.00    +0.122 C 
ATOM      7  C   UNL     1     -33.171  21.059   0.251  0.00  0.00    +0.020 C 
ATOM      8  C   UNL     1     -33.630  19.059   1.527  0.00  0.00    +0.020 C 
ATOM      9  C   UNL     1     -31.935  20.534  -0.126  0.00  0.00    +0.001 C 
ATOM     10  C   UNL     1     -32.393  18.535   1.150  0.00  0.00    +0.001 C 
ATOM     11  C   UNL     1     -31.546  19.273   0.323  0.00  0.00    +0.000 C 
ENDBRANCH   3   6
ENDBRANCH   1   3
BRANCH   1  12
ATOM     12  C   UNL     1     -36.192  23.582   2.250  0.00  0.00    +0.101 C 
BRANCH  12  13
ATOM     13  C   UNL     1     -36.465  23.849   3.723  0.00  0.00    +0.105 C 
BRANCH  13  16
ATOM     14  O   UNL     1     -34.443  23.555   5.024  0.00  0.00    -0.274 OA
ATOM     15  N   UNL     1     -36.046  21.872   5.019  0.00  0.00    -0.253 N 
ATOM     16  C   UNL     1     -35.526  23.104   4.659  0.00  0.00    +0.237 C 
ATOM     17  H   UNL     1     -36.925  21.583   4.682  0.00  0.00    +0.169 HD
BRANCH  15  18
ATOM     18  N   UNL     1     -35.316  21.056   5.858  0.00  0.00    -0.254 NA
ATOM     19  H   UNL     1     -35.644  20.094   5.768  0.00  0.00    +0.140 HD
ATOM     20  H   UNL     1     -35.435  21.366   6.823  0.00  0.00    +0.140 HD
ENDBRANCH  15  18
ENDBRANCH  13  16
ENDBRANCH  12  13
ENDBRANCH   1  12
TORSDOF 6
ENDMDL
MODEL 2
REMARK VINA RESULT:      -5.3      2.372      2.865
REMARK  Name = 21455047
REMARK  6 active torsions:
REMARK  status: ('A' for Active; 'I' for Inactive)
REMARK    1  A    between atoms: N_1  and  S_3
REMARK    2  A    between atoms: N_1  and  C_12
REMARK    3  A    between atoms: S_3  and  C_6
REMARK    4  A    between atoms: C_12  and  C_13
REMARK    5  A    between atoms: C_13  and  C_16
REMARK    6  A    between atoms: N_15  and  N_18
REMARK                            x       y       z     vdW  Elec       q    Type
REMARK                         _______ _______ _______ _____ _____    ______ ____
ROOT
ATOM      1  N   UNL     1     -36.507  22.426   4.079  0.00  0.00    -0.179 NA
ATOM      2  H   UNL     1     -36.396  21.451   4.360  0.00  0.00    +0.149 HD
ENDROOT
BRANCH   1   3
ATOM      3  S   UNL     1     -36.876  22.419   2.421  0.00  0.00    +0.060 S 
ATOM      4  O   UNL     1     -36.856  23.779   1.917  0.00  0.00    -0.153 OA
ATOM      5  O   UNL     1     -38.037  21.578   2.202  0.00  0.00    -0.153 OA
BRANCH   3   6
ATOM      6  C   UNL     1     -35.486  21.565   1.742  0.00  0.00    +0.122 C 
ATOM      7  C   UNL     1     -34.677  22.192   0.793  0.00  0.00    +0.020 C 
ATOM      8  C   UNL     1     -35.197  20.263   2.154  0.00  0.00    +0.020 C 
ATOM      9  C   UNL     1     -33.580  21.517   0.257  0.00  0.00    +0.001 C 
ATOM     10  C   UNL     1     -34.100  19.590   1.617  0.00  0.00    +0.001 C 
ATOM     11  C   UNL     1     -33.292  20.216   0.669  0.00  0.00    +0.000 C 
ENDBRANCH   3   6
ENDBRANCH   1   3
BRANCH   1  12
ATOM     12  C   UNL     1     -35.311  23.151   4.567  0.00  0.00    +0.101 C 
BRANCH  12  13
ATOM     13  C   UNL     1     -35.721  24.212   5.578  0.00  0.00    +0.105 C 
BRANCH  13  16
ATOM     14  O   UNL     1     -35.738  26.556   4.967  0.00  0.00    -0.274 OA
ATOM     15  N   UNL     1     -37.530  25.210   4.356  0.00  0.00    -0.253 N 
ATOM     16  C   UNL     1     -36.302  25.465   4.941  0.00  0.00    +0.237 C 
ATOM     17  H   UNL     1     -37.916  24.304   4.378  0.00  0.00    +0.169 HD
BRANCH  15  18
ATOM     18  N   UNL     1     -38.206  26.242   3.739  0.00  0.00    -0.254 NA
ATOM     19  H   UNL     1     -38.540  26.900   4.445  0.00  0.00    +0.140 HD
ATOM     20  H   UNL     1     -39.001  25.867   3.222  0.00  0.00    +0.140 HD
ENDBRANCH  15  18
ENDBRANCH  13  16
ENDBRANCH  12  13
ENDBRANCH   1  12
TORSDOF 6
ENDMDL
MODEL 3
REMARK VINA RESULT:      -5.2      4.881      6.345
REMARK  Name = 21455047
REMARK  6 active torsions:
REMARK  status: ('A' for Active; 'I' for Inactive)
REMARK    1  A    between atoms: N_1  and  S_3
REMARK    2  A    between atoms: N_1  and  C_12
REMARK    3  A    between atoms: S_3  and  C_6
REMARK    4  A    between atoms: C_12  and  C_13
REMARK    5  A    between atoms: C_13  and  C_16
REMARK    6  A    between atoms: N_15  and  N_18
REMARK                            x       y       z     vdW  Elec       q    Type
REMARK                         _______ _______ _______ _____ _____    ______ ____
ROOT
ATOM      1  N   UNL     1     -32.989  26.314   3.961  0.00  0.00    -0.179 NA
ATOM      2  H   UNL     1     -32.877  25.433   3.459  0.00  0.00    +0.149 HD
ENDROOT
BRANCH   1   3
ATOM      3  S   UNL     1     -34.332  26.129   4.985  0.00  0.00    +0.060 S 
ATOM      4  O   UNL     1     -35.412  26.979   4.522  0.00  0.00    -0.153 OA
ATOM      5  O   UNL     1     -33.885  26.203   6.363  0.00  0.00    -0.153 OA
BRANCH   3   6
ATOM      6  C   UNL     1     -34.792  24.449   4.682  0.00  0.00    +0.122 C 
ATOM      7  C   UNL     1     -34.927  23.987   3.373  0.00  0.00    +0.020 C 
ATOM      8  C   UNL     1     -35.020  23.584   5.754  0.00  0.00    +0.020 C 
ATOM      9  C   UNL     1     -35.290  22.661   3.135  0.00  0.00    +0.001 C 
ATOM     10  C   UNL     1     -35.382  22.259   5.515  0.00  0.00    +0.001 C 
ATOM     11  C   UNL     1     -35.518  21.798   4.206  0.00  0.00    +0.000 C 
ENDBRANCH   3   6
ENDBRANCH   1   3
BRANCH   1  12
ATOM     12  C   UNL     1     -32.978  27.390   2.944  0.00  0.00    +0.101 C 
BRANCH  12  13
ATOM     13  C   UNL     1     -32.189  28.585   3.457  0.00  0.00    +0.105 C 
BRANCH  13  16
ATOM     14  O   UNL     1     -30.423  27.801   4.920  0.00  0.00    -0.274 OA
ATOM     15  N   UNL     1     -32.314  28.786   5.846  0.00  0.00    -0.253 N 
ATOM     16  C   UNL     1     -31.522  28.340   4.801  0.00  0.00    +0.237 C 
ATOM     17  H   UNL     1     -33.185  29.209   5.667  0.00  0.00    +0.169 HD
BRANCH  15  18
ATOM     18  N   UNL     1     -31.865  28.631   7.141  0.00  0.00    -0.254 NA
ATOM     19  H   UNL     1     -32.526  29.067   7.786  0.00  0.00    +0.140 HD
ATOM     20  H   UNL     1     -30.952  29.075   7.240  0.00  0.00    +0.140 HD
ENDBRANCH  15  18
ENDBRANCH  13  16
ENDBRANCH  12  13
ENDBRANCH   1  12
TORSDOF 6
ENDMDL
MODEL 4
REMARK VINA RESULT:      -5.2      4.834      6.002
REMARK  Name = 21455047
REMARK  6 active torsions:
REMARK  status: ('A' for Active; 'I' for Inactive)
REMARK    1  A    between atoms: N_1  and  S_3
REMARK    2  A    between atoms: N_1  and  C_12
REMARK    3  A    between atoms: S_3  and  C_6
REMARK    4  A    between atoms: C_12  and  C_13
REMARK    5  A    between atoms: C_13  and  C_16
REMARK    6  A    between atoms: N_15  and  N_18
REMARK                            x       y       z     vdW  Elec       q    Type
REMARK                         _______ _______ _______ _____ _____    ______ ____
ROOT
ATOM      1  N   UNL     1     -35.424  26.973   4.236  0.00  0.00    -0.179 NA
ATOM      2  H   UNL     1     -35.604  27.753   4.869  0.00  0.00    +0.149 HD
ENDROOT
BRANCH   1   3
ATOM      3  S   UNL     1     -34.120  26.102   4.890  0.00  0.00    +0.060 S 
ATOM      4  O   UNL     1     -33.983  26.422   6.298  0.00  0.00    -0.153 OA
ATOM      5  O   UNL     1     -32.980  26.226   4.000  0.00  0.00    -0.153 OA
BRANCH   3   6
ATOM      6  C   UNL     1     -34.694  24.436   4.762  0.00  0.00    +0.122 C 
ATOM      7  C   UNL     1     -34.973  23.703   5.916  0.00  0.00    +0.020 C 
ATOM      8  C   UNL     1     -34.869  23.853   3.506  0.00  0.00    +0.020 C 
ATOM      9  C   UNL     1     -35.426  22.388   5.814  0.00  0.00    +0.001 C 
ATOM     10  C   UNL     1     -35.322  22.538   3.405  0.00  0.00    +0.001 C 
ATOM     11  C   UNL     1     -35.600  21.805   4.559  0.00  0.00    +0.000 C 
ENDBRANCH   3   6
ENDBRANCH   1   3
BRANCH   1  12
ATOM     12  C   UNL     1     -35.323  27.542   2.873  0.00  0.00    +0.101 C 
BRANCH  12  13
ATOM     13  C   UNL     1     -36.090  26.673   1.887  0.00  0.00    +0.105 C 
BRANCH  13  16
ATOM     14  O   UNL     1     -38.314  27.314   1.171  0.00  0.00    -0.274 OA
ATOM     15  N   UNL     1     -38.042  26.243   3.216  0.00  0.00    -0.253 N 
ATOM     16  C   UNL     1     -37.600  26.788   2.022  0.00  0.00    +0.237 C 
ATOM     17  H   UNL     1     -37.404  25.839   3.847  0.00  0.00    +0.169 HD
BRANCH  15  18
ATOM     18  N   UNL     1     -39.390  26.274   3.508  0.00  0.00    -0.254 NA
ATOM     19  H   UNL     1     -39.895  26.721   2.742  0.00  0.00    +0.140 HD
ATOM     20  H   UNL     1     -39.540  26.802   4.368  0.00  0.00    +0.140 HD
ENDBRANCH  15  18
ENDBRANCH  13  16
ENDBRANCH  12  13
ENDBRANCH   1  12
TORSDOF 6
ENDMDL
MODEL 5
REMARK VINA RESULT:      -5.1      4.247      5.512
REMARK  Name = 21455047
REMARK  6 active torsions:
REMARK  status: ('A' for Active; 'I' for Inactive)
REMARK    1  A    between atoms: N_1  and  S_3
REMARK    2  A    between atoms: N_1  and  C_12
REMARK    3  A    between atoms: S_3  and  C_6
REMARK    4  A    between atoms: C_12  and  C_13
REMARK    5  A    between atoms: C_13  and  C_16
REMARK    6  A    between atoms: N_15  and  N_18
REMARK                            x       y       z     vdW  Elec       q    Type
REMARK                         _______ _______ _______ _____ _____    ______ ____
ROOT
ATOM      1  N   UNL     1     -37.689  25.725   4.064  0.00  0.00    -0.179 NA
ATOM      2  H   UNL     1     -37.999  26.620   4.444  0.00  0.00    +0.149 HD
ENDROOT
BRANCH   1   3
ATOM      3  S   UNL     1     -35.993  25.712   4.154  0.00  0.00    +0.060 S 
ATOM      4  O   UNL     1     -35.563  26.549   5.258  0.00  0.00    -0.153 OA
ATOM      5  O   UNL     1     -35.451  25.923   2.825  0.00  0.00    -0.153 OA
BRANCH   3   6
ATOM      6  C   UNL     1     -35.664  24.030   4.583  0.00  0.00    +0.122 C 
ATOM      7  C   UNL     1     -35.604  23.054   3.588  0.00  0.00    +0.020 C 
ATOM      8  C   UNL     1     -35.463  23.677   5.919  0.00  0.00    +0.020 C 
ATOM      9  C   UNL     1     -35.344  21.726   3.927  0.00  0.00    +0.001 C 
ATOM     10  C   UNL     1     -35.203  22.349   6.257  0.00  0.00    +0.001 C 
ATOM     11  C   UNL     1     -35.144  21.374   5.262  0.00  0.00    +0.000 C 
ENDBRANCH   3   6
ENDBRANCH   1   3
BRANCH   1  12
ATOM     12  C   UNL     1     -38.362  25.559   2.755  0.00  0.00    +0.101 C 
BRANCH  12  13
ATOM     13  C   UNL     1     -39.721  24.904   2.945  0.00  0.00    +0.105 C 
BRANCH  13  16
ATOM     14  O   UNL     1     -40.714  23.220   1.513  0.00  0.00    -0.274 OA
ATOM     15  N   UNL     1     -38.815  22.690   2.743  0.00  0.00    -0.253 N 
ATOM     16  C   UNL     1     -39.827  23.528   2.306  0.00  0.00    +0.237 C 
ATOM     17  H   UNL     1     -38.140  23.013   3.382  0.00  0.00    +0.169 HD
BRANCH  15  18
ATOM     18  N   UNL     1     -38.766  21.395   2.271  0.00  0.00    -0.254 NA
ATOM     19  H   UNL     1     -38.320  20.795   2.966  0.00  0.00    +0.140 HD
ATOM     20  H   UNL     1     -38.229  21.369   1.404  0.00  0.00    +0.140 HD
ENDBRANCH  15  18
ENDBRANCH  13  16
ENDBRANCH  12  13
ENDBRANCH   1  12
TORSDOF 6
ENDMDL
MODEL 6
REMARK VINA RESULT:      -5.1      4.396      6.043
REMARK  Name = 21455047
REMARK  6 active torsions:
REMARK  status: ('A' for Active; 'I' for Inactive)
REMARK    1  A    between atoms: N_1  and  S_3
REMARK    2  A    between atoms: N_1  and  C_12
REMARK    3  A    between atoms: S_3  and  C_6
REMARK    4  A    between atoms: C_12  and  C_13
REMARK    5  A    between atoms: C_13  and  C_16
REMARK    6  A    between atoms: N_15  and  N_18
REMARK                            x       y       z     vdW  Elec       q    Type
REMARK                         _______ _______ _______ _____ _____    ______ ____
ROOT
ATOM      1  N   UNL     1     -37.521  25.870   3.990  0.00  0.00    -0.179 NA
ATOM      2  H   UNL     1     -37.761  26.689   3.431  0.00  0.00    +0.149 HD
ENDROOT
BRANCH   1   3
ATOM      3  S   UNL     1     -35.828  25.727   3.951  0.00  0.00    +0.060 S 
ATOM      4  O   UNL     1     -35.248  26.603   4.951  0.00  0.00    -0.153 OA
ATOM      5  O   UNL     1     -35.382  25.799   2.572  0.00  0.00    -0.153 OA
BRANCH   3   6
ATOM      6  C   UNL     1     -35.592  24.059   4.482  0.00  0.00    +0.122 C 
ATOM      7  C   UNL     1     -35.481  23.035   3.541  0.00  0.00    +0.020 C 
ATOM      8  C   UNL     1     -35.515  23.764   5.845  0.00  0.00    +0.020 C 
ATOM      9  C   UNL     1     -35.295  21.718   3.961  0.00  0.00    +0.001 C 
ATOM     10  C   UNL     1     -35.328  22.447   6.263  0.00  0.00    +0.001 C 
ATOM     11  C   UNL     1     -35.219  21.424   5.322  0.00  0.00    +0.000 C 
ENDBRANCH   3   6
ENDBRANCH   1   3
BRANCH   1  12
ATOM     12  C   UNL     1     -38.368  24.757   3.502  0.00  0.00    +0.101 C 
BRANCH  12  13
ATOM     13  C   UNL     1     -39.077  25.164   2.219  0.00  0.00    +0.105 C 
BRANCH  13  16
ATOM     14  O   UNL     1     -40.409  27.065   1.525  0.00  0.00    -0.274 OA
ATOM     15  N   UNL     1     -40.588  26.288   3.708  0.00  0.00    -0.253 N 
ATOM     16  C   UNL     1     -40.093  26.278   2.415  0.00  0.00    +0.237 C 
ATOM     17  H   UNL     1     -40.283  25.621   4.364  0.00  0.00    +0.169 HD
BRANCH  15  18
ATOM     18  N   UNL     1     -41.515  27.246   4.063  0.00  0.00    -0.254 NA
ATOM     19  H   UNL     1     -41.075  27.937   4.672  0.00  0.00    +0.140 HD
ATOM     20  H   UNL     1     -42.290  26.803   4.557  0.00  0.00    +0.140 HD
ENDBRANCH  15  18
ENDBRANCH  13  16
ENDBRANCH  12  13
ENDBRANCH   1  12
TORSDOF 6
ENDMDL
MODEL 7
REMARK VINA RESULT:      -5.1      4.252      5.243
REMARK  Name = 21455047
REMARK  6 active torsions:
REMARK  status: ('A' for Active; 'I' for Inactive)
REMARK    1  A    between atoms: N_1  and  S_3
REMARK    2  A    between atoms: N_1  and  C_12
REMARK    3  A    between atoms: S_3  and  C_6
REMARK    4  A    between atoms: C_12  and  C_13
REMARK    5  A    between atoms: C_13  and  C_16
REMARK    6  A    between atoms: N_15  and  N_18
REMARK                            x       y       z     vdW  Elec       q    Type
REMARK                         _______ _______ _______ _____ _____    ______ ____
ROOT
ATOM      1  N   UNL     1     -35.912  25.506   2.744  0.00  0.00    -0.179 NA
ATOM      2  H   UNL     1     -36.359  25.002   1.979  0.00  0.00    +0.149 HD
ENDROOT
BRANCH   1   3
ATOM      3  S   UNL     1     -36.770  25.118   4.157  0.00  0.00    +0.060 S 
ATOM      4  O   UNL     1     -38.166  24.902   3.829  0.00  0.00    -0.153 OA
ATOM      5  O   UNL     1     -36.403  26.056   5.202  0.00  0.00    -0.153 OA
BRANCH   3   6
ATOM      6  C   UNL     1     -36.064  23.559   4.595  0.00  0.00    +0.122 C 
ATOM      7  C   UNL     1     -36.019  22.525   3.659  0.00  0.00    +0.020 C 
ATOM      8  C   UNL     1     -35.552  23.360   5.879  0.00  0.00    +0.020 C 
ATOM      9  C   UNL     1     -35.461  21.294   4.006  0.00  0.00    +0.001 C 
ATOM     10  C   UNL     1     -34.995  22.129   6.224  0.00  0.00    +0.001 C 
ATOM     11  C   UNL     1     -34.950  21.096   5.288  0.00  0.00    +0.000 C 
ENDBRANCH   3   6
ENDBRANCH   1   3
BRANCH   1  12
ATOM     12  C   UNL     1     -35.795  26.919   2.314  0.00  0.00    +0.101 C 
BRANCH  12  13
ATOM     13  C   UNL     1     -34.342  27.366   2.383  0.00  0.00    +0.105 C 
BRANCH  13  16
ATOM     14  O   UNL     1     -32.741  25.811   3.325  0.00  0.00    -0.274 OA
ATOM     15  N   UNL     1     -33.894  27.252   4.738  0.00  0.00    -0.253 N 
ATOM     16  C   UNL     1     -33.557  26.712   3.508  0.00  0.00    +0.237 C 
ATOM     17  H   UNL     1     -34.560  27.974   4.801  0.00  0.00    +0.169 HD
BRANCH  15  18
ATOM     18  N   UNL     1     -33.282  26.764   5.874  0.00  0.00    -0.254 NA
ATOM     19  H   UNL     1     -32.629  26.022   5.618  0.00  0.00    +0.140 HD
ATOM     20  H   UNL     1     -33.989  26.390   6.507  0.00  0.00    +0.140 HD
ENDBRANCH  15  18
ENDBRANCH  13  16
ENDBRANCH  12  13
ENDBRANCH   1  12
TORSDOF 6
ENDMDL
MODEL 8
REMARK VINA RESULT:      -5.0      3.240      3.901
REMARK  Name = 21455047
REMARK  6 active torsions:
REMARK  status: ('A' for Active; 'I' for Inactive)
REMARK    1  A    between atoms: N_1  and  S_3
REMARK    2  A    between atoms: N_1  and  C_12
REMARK    3  A    between atoms: S_3  and  C_6
REMARK    4  A    between atoms: C_12  and  C_13
REMARK    5  A    between atoms: C_13  and  C_16
REMARK    6  A    between atoms: N_15  and  N_18
REMARK                            x       y       z     vdW  Elec       q    Type
REMARK                         _______ _______ _______ _____ _____    ______ ____
ROOT
ATOM      1  N   UNL     1     -35.661  24.662   3.630  0.00  0.00    -0.179 NA
ATOM      2  H   UNL     1     -35.802  24.973   2.669  0.00  0.00    +0.149 HD
ENDROOT
BRANCH   1   3
ATOM      3  S   UNL     1     -36.436  23.158   3.778  0.00  0.00    +0.060 S 
ATOM      4  O   UNL     1     -37.796  23.265   3.285  0.00  0.00    -0.153 OA
ATOM      5  O   UNL     1     -36.181  22.627   5.104  0.00  0.00    -0.153 OA
BRANCH   3   6
ATOM      6  C   UNL     1     -35.520  22.163   2.641  0.00  0.00    +0.122 C 
ATOM      7  C   UNL     1     -35.460  20.779   2.814  0.00  0.00    +0.020 C 
ATOM      8  C   UNL     1     -34.856  22.760   1.568  0.00  0.00    +0.020 C 
ATOM      9  C   UNL     1     -34.737  19.994   1.916  0.00  0.00    +0.001 C 
ATOM     10  C   UNL     1     -34.134  21.974   0.671  0.00  0.00    +0.001 C 
ATOM     11  C   UNL     1     -34.073  20.592   0.845  0.00  0.00    +0.000 C 
ENDBRANCH   3   6
ENDBRANCH   1   3
BRANCH   1  12
ATOM     12  C   UNL     1     -36.057  25.787   4.507  0.00  0.00    +0.101 C 
BRANCH  12  13
ATOM     13  C   UNL     1     -35.221  25.778   5.778  0.00  0.00    +0.105 C 
BRANCH  13  16
ATOM     14  O   UNL     1     -33.172  26.075   4.519  0.00  0.00    -0.274 OA
ATOM     15  N   UNL     1     -33.291  26.870   6.699  0.00  0.00    -0.253 N 
ATOM     16  C   UNL     1     -33.790  26.248   5.567  0.00  0.00    +0.237 C 
ATOM     17  H   UNL     1     -33.852  26.970   7.502  0.00  0.00    +0.169 HD
BRANCH  15  18
ATOM     18  N   UNL     1     -31.998  27.349   6.686  0.00  0.00    -0.254 NA
ATOM     19  H   UNL     1     -31.345  26.566   6.636  0.00  0.00    +0.140 HD
ATOM     20  H   UNL     1     -31.824  27.882   7.538  0.00  0.00    +0.140 HD
ENDBRANCH  15  18
ENDBRANCH  13  16
ENDBRANCH  12  13
ENDBRANCH   1  12
TORSDOF 6
ENDMDL
MODEL 9
REMARK VINA RESULT:      -5.0      3.609      4.545
REMARK  Name = 21455047
REMARK  6 active torsions:
REMARK  status: ('A' for Active; 'I' for Inactive)
REMARK    1  A    between atoms: N_1  and  S_3
REMARK    2  A    between atoms: N_1  and  C_12
REMARK    3  A    between atoms: S_3  and  C_6
REMARK    4  A    between atoms: C_12  and  C_13
REMARK    5  A    between atoms: C_13  and  C_16
REMARK    6  A    between atoms: N_15  and  N_18
REMARK                            x       y       z     vdW  Elec       q    Type
REMARK                         _______ _______ _______ _____ _____    ______ ____
ROOT
ATOM      1  N   UNL     1     -37.850  21.551   2.650  0.00  0.00    -0.179 NA
ATOM      2  H   UNL     1     -37.938  22.122   3.491  0.00  0.00    +0.149 HD
ENDROOT
BRANCH   1   3
ATOM      3  S   UNL     1     -36.197  21.499   2.262  0.00  0.00    +0.060 S 
ATOM      4  O   UNL     1     -36.002  21.998   0.914  0.00  0.00    -0.153 OA
ATOM      5  O   UNL     1     -35.666  20.204   2.644  0.00  0.00    -0.153 OA
BRANCH   3   6
ATOM      6  C   UNL     1     -35.522  22.684   3.386  0.00  0.00    +0.122 C 
ATOM      7  C   UNL     1     -34.856  23.809   2.898  0.00  0.00    +0.020 C 
ATOM      8  C   UNL     1     -35.655  22.495   4.763  0.00  0.00    +0.020 C 
ATOM      9  C   UNL     1     -34.323  24.744   3.786  0.00  0.00    +0.001 C 
ATOM     10  C   UNL     1     -35.122  23.431   5.649  0.00  0.00    +0.001 C 
ATOM     11  C   UNL     1     -34.456  24.554   5.161  0.00  0.00    +0.000 C 
ENDBRANCH   3   6
ENDBRANCH   1   3
BRANCH   1  12
ATOM     12  C   UNL     1     -38.824  22.081   1.668  0.00  0.00    +0.101 C 
BRANCH  12  13
ATOM     13  C   UNL     1     -39.552  23.283   2.252  0.00  0.00    +0.105 C 
BRANCH  13  16
ATOM     14  O   UNL     1     -38.152  25.136   1.561  0.00  0.00    -0.274 OA
ATOM     15  N   UNL     1     -38.471  24.736   3.828  0.00  0.00    -0.253 N 
ATOM     16  C   UNL     1     -38.652  24.488   2.478  0.00  0.00    +0.237 C 
ATOM     17  H   UNL     1     -38.909  24.169   4.503  0.00  0.00    +0.169 HD
BRANCH  15  18
ATOM     18  N   UNL     1     -37.670  25.791   4.213  0.00  0.00    -0.254 NA
ATOM     19  H   UNL     1     -38.188  26.665   4.118  0.00  0.00    +0.140 HD
ATOM     20  H   UNL     1     -36.840  25.822   3.622  0.00  0.00    +0.140 HD
ENDBRANCH  15  18
ENDBRANCH  13  16
ENDBRANCH  12  13
ENDBRANCH   1  12
TORSDOF 6
ENDMDL
