MODEL 1
REMARK VINA RESULT:      -6.8      0.000      0.000
REMARK  Name = 54728247
REMARK  7 active torsions:
REMARK  status: ('A' for Active; 'I' for Inactive)
REMARK    1  A    between atoms: C_12  and  O_18
REMARK    2  A    between atoms: C_17  and  O_20
REMARK    3  A    between atoms: C_17  and  C_22
REMARK    4  A    between atoms: C_23  and  C_24
REMARK    5  A    between atoms: C_25  and  C_26
REMARK    6  A    between atoms: C_27  and  C_29
REMARK    7  A    between atoms: C_29  and  O_30
REMARK                            x       y       z     vdW  Elec       q    Type
REMARK                         _______ _______ _______ _____ _____    ______ ____
ROOT
ATOM      1  O   UNL     1     -35.379  22.941   3.707  0.00  0.00    -0.449 OA
ATOM      2  O   UNL     1     -37.562  23.395   3.078  0.00  0.00    -0.245 OA
ATOM      3  C   UNL     1     -35.823  25.238   5.608  0.00  0.00    +0.004 C 
ATOM      4  C   UNL     1     -34.847  26.307   5.094  0.00  0.00    +0.005 C 
ATOM      5  C   UNL     1     -35.163  23.879   5.914  0.00  0.00    +0.044 C 
ATOM      6  C   UNL     1     -34.337  26.108   3.659  0.00  0.00    +0.029 C 
ATOM      7  C   UNL     1     -35.723  22.712   5.086  0.00  0.00    +0.169 C 
ATOM      8  C   UNL     1     -35.315  26.508   2.567  0.00  0.00    +0.012 C 
ATOM      9  C   UNL     1     -35.915  25.592   1.675  0.00  0.00    +0.008 C 
ATOM     10  C   UNL     1     -35.087  21.392   5.499  0.00  0.00    +0.047 C 
ATOM     11  C   UNL     1     -35.710  24.141   1.781  0.00  0.00    +0.109 C 
ATOM     12  C   UNL     1     -35.596  27.880   2.410  0.00  0.00    +0.130 C 
ATOM     13  C   UNL     1     -36.356  23.406   2.889  0.00  0.00    +0.344 C 
ATOM     14  C   UNL     1     -36.771  26.064   0.664  0.00  0.00    +0.000 C 
ATOM     15  C   UNL     1     -36.450  28.333   1.406  0.00  0.00    +0.036 C 
ATOM     16  C   UNL     1     -37.036  27.426   0.530  0.00  0.00    +0.003 C 
ATOM     17  C   UNL     1     -34.960  23.452   0.910  0.00  0.00    +0.140 C 
ENDROOT
BRANCH  12  18
ATOM     18  O   UNL     1     -35.044  28.815   3.240  0.00  0.00    -0.506 OA
ATOM     19  H   UNL     1     -34.970  28.643   4.158  0.00  0.00    +0.292 HD
ENDBRANCH  12  18
BRANCH  17  20
ATOM     20  O   UNL     1     -34.332  24.071  -0.150  0.00  0.00    -0.505 OA
ATOM     21  H   UNL     1     -34.768  24.752  -0.621  0.00  0.00    +0.292 HD
ENDBRANCH  17  20
BRANCH  17  22
ATOM     22  C   UNL     1     -34.763  22.021   1.021  0.00  0.00    +0.037 C 
ATOM     23  C   UNL     1     -33.720  21.339   0.519  0.00  0.00    +0.003 C 
BRANCH  23  24
ATOM     24  C   UNL     1     -33.576  19.906   0.661  0.00  0.00    +0.000 C 
ATOM     25  C   UNL     1     -32.383  19.293   0.710  0.00  0.00    +0.000 C 
BRANCH  25  26
ATOM     26  C   UNL     1     -32.238  17.860   0.851  0.00  0.00    +0.007 C 
ATOM     27  C   UNL     1     -32.280  17.023  -0.195  0.00  0.00    +0.082 C 
BRANCH  27  29
ATOM     28  O   UNL     1     -31.102  14.994   0.351  0.00  0.00    -0.245 OA
ATOM     29  C   UNL     1     -32.125  15.571   0.024  0.00  0.00    +0.338 C 
BRANCH  29  30
ATOM     30  O   UNL     1     -33.315  14.969  -0.199  0.00  0.00    -0.477 OA
ATOM     31  H   UNL     1     -33.343  14.086  -0.509  0.00  0.00    +0.295 HD
ENDBRANCH  29  30
ENDBRANCH  27  29
ENDBRANCH  25  26
ENDBRANCH  23  24
ENDBRANCH  17  22
TORSDOF 7
ENDMDL
MODEL 2
REMARK VINA RESULT:      -6.5      3.527      9.351
REMARK  Name = 54728247
REMARK  7 active torsions:
REMARK  status: ('A' for Active; 'I' for Inactive)
REMARK    1  A    between atoms: C_12  and  O_18
REMARK    2  A    between atoms: C_17  and  O_20
REMARK    3  A    between atoms: C_17  and  C_22
REMARK    4  A    between atoms: C_23  and  C_24
REMARK    5  A    between atoms: C_25  and  C_26
REMARK    6  A    between atoms: C_27  and  C_29
REMARK    7  A    between atoms: C_29  and  O_30
REMARK                            x       y       z     vdW  Elec       q    Type
REMARK                         _______ _______ _______ _____ _____    ______ ____
ROOT
ATOM      1  O   UNL     1     -36.883  25.892   2.324  0.00  0.00    -0.449 OA
ATOM      2  O   UNL     1     -37.974  25.458   4.322  0.00  0.00    -0.245 OA
ATOM      3  C   UNL     1     -38.027  23.220   1.527  0.00  0.00    +0.004 C 
ATOM      4  C   UNL     1     -36.776  22.344   1.358  0.00  0.00    +0.005 C 
ATOM      5  C   UNL     1     -38.003  24.517   0.696  0.00  0.00    +0.044 C 
ATOM      6  C   UNL     1     -35.496  22.875   2.021  0.00  0.00    +0.029 C 
ATOM      7  C   UNL     1     -38.085  25.800   1.538  0.00  0.00    +0.169 C 
ATOM      8  C   UNL     1     -35.414  22.662   3.523  0.00  0.00    +0.012 C 
ATOM      9  C   UNL     1     -35.436  23.711   4.468  0.00  0.00    +0.008 C 
ATOM     10  C   UNL     1     -38.142  27.036   0.650  0.00  0.00    +0.047 C 
ATOM     11  C   UNL     1     -35.630  25.116   4.080  0.00  0.00    +0.109 C 
ATOM     12  C   UNL     1     -35.258  21.342   3.990  0.00  0.00    +0.130 C 
ATOM     13  C   UNL     1     -36.968  25.557   3.636  0.00  0.00    +0.344 C 
ATOM     14  C   UNL     1     -35.305  23.418   5.837  0.00  0.00    +0.000 C 
ATOM     15  C   UNL     1     -35.133  21.065   5.350  0.00  0.00    +0.036 C 
ATOM     16  C   UNL     1     -35.154  22.103   6.275  0.00  0.00    +0.003 C 
ATOM     17  C   UNL     1     -34.639  26.018   4.116  0.00  0.00    +0.140 C 
ENDROOT
BRANCH  12  18
ATOM     18  O   UNL     1     -35.226  20.284   3.124  0.00  0.00    -0.506 OA
ATOM     19  H   UNL     1     -34.438  19.789   3.019  0.00  0.00    +0.292 HD
ENDBRANCH  12  18
BRANCH  17  20
ATOM     20  O   UNL     1     -33.367  25.677   4.524  0.00  0.00    -0.505 OA
ATOM     21  H   UNL     1     -33.214  24.857   4.950  0.00  0.00    +0.292 HD
ENDBRANCH  17  20
BRANCH  17  22
ATOM     22  C   UNL     1     -34.838  27.401   3.733  0.00  0.00    +0.037 C 
ATOM     23  C   UNL     1     -34.122  28.061   2.807  0.00  0.00    +0.003 C 
BRANCH  23  24
ATOM     24  C   UNL     1     -34.366  29.446   2.465  0.00  0.00    +0.000 C 
ATOM     25  C   UNL     1     -35.581  29.915   2.139  0.00  0.00    +0.000 C 
BRANCH  25  26
ATOM     26  C   UNL     1     -35.825  31.299   1.795  0.00  0.00    +0.007 C 
ATOM     27  C   UNL     1     -37.049  31.845   1.823  0.00  0.00    +0.082 C 
BRANCH  27  29
ATOM     28  O   UNL     1     -36.371  34.003   0.995  0.00  0.00    -0.245 OA
ATOM     29  C   UNL     1     -37.223  33.266   1.460  0.00  0.00    +0.338 C 
BRANCH  29  30
ATOM     30  O   UNL     1     -38.498  33.629   1.730  0.00  0.00    -0.477 OA
ATOM     31  H   UNL     1     -39.046  33.959   1.046  0.00  0.00    +0.295 HD
ENDBRANCH  29  30
ENDBRANCH  27  29
ENDBRANCH  25  26
ENDBRANCH  23  24
ENDBRANCH  17  22
TORSDOF 7
ENDMDL
MODEL 3
REMARK VINA RESULT:      -6.5      3.640      9.662
REMARK  Name = 54728247
REMARK  7 active torsions:
REMARK  status: ('A' for Active; 'I' for Inactive)
REMARK    1  A    between atoms: C_12  and  O_18
REMARK    2  A    between atoms: C_17  and  O_20
REMARK    3  A    between atoms: C_17  and  C_22
REMARK    4  A    between atoms: C_23  and  C_24
REMARK    5  A    between atoms: C_25  and  C_26
REMARK    6  A    between atoms: C_27  and  C_29
REMARK    7  A    between atoms: C_29  and  O_30
REMARK                            x       y       z     vdW  Elec       q    Type
REMARK                         _______ _______ _______ _____ _____    ______ ____
ROOT
ATOM      1  O   UNL     1     -38.191  25.177   1.789  0.00  0.00    -0.449 OA
ATOM      2  O   UNL     1     -38.896  25.076   3.994  0.00  0.00    -0.245 OA
ATOM      3  C   UNL     1     -38.870  22.240   1.807  0.00  0.00    +0.004 C 
ATOM      4  C   UNL     1     -37.504  21.567   1.614  0.00  0.00    +0.005 C 
ATOM      5  C   UNL     1     -39.219  23.278   0.723  0.00  0.00    +0.044 C 
ATOM      6  C   UNL     1     -36.280  22.447   1.908  0.00  0.00    +0.029 C 
ATOM      7  C   UNL     1     -39.444  24.698   1.267  0.00  0.00    +0.169 C 
ATOM      8  C   UNL     1     -35.957  22.627   3.382  0.00  0.00    +0.012 C 
ATOM      9  C   UNL     1     -36.063  23.859   4.065  0.00  0.00    +0.008 C 
ATOM     10  C   UNL     1     -39.866  25.650   0.156  0.00  0.00    +0.047 C 
ATOM     11  C   UNL     1     -36.585  25.073   3.422  0.00  0.00    +0.109 C 
ATOM     12  C   UNL     1     -35.478  21.507   4.089  0.00  0.00    +0.130 C 
ATOM     13  C   UNL     1     -38.031  25.166   3.136  0.00  0.00    +0.344 C 
ATOM     14  C   UNL     1     -35.694  23.938   5.420  0.00  0.00    +0.000 C 
ATOM     15  C   UNL     1     -35.119  21.599   5.434  0.00  0.00    +0.036 C 
ATOM     16  C   UNL     1     -35.225  22.815   6.099  0.00  0.00    +0.003 C 
ATOM     17  C   UNL     1     -35.800  26.106   3.085  0.00  0.00    +0.140 C 
ENDROOT
BRANCH  12  18
ATOM     18  O   UNL     1     -35.350  20.289   3.483  0.00  0.00    -0.506 OA
ATOM     19  H   UNL     1     -35.598  19.509   3.940  0.00  0.00    +0.292 HD
ENDBRANCH  12  18
BRANCH  17  20
ATOM     20  O   UNL     1     -34.442  26.090   3.325  0.00  0.00    -0.505 OA
ATOM     21  H   UNL     1     -33.926  26.852   3.151  0.00  0.00    +0.292 HD
ENDBRANCH  17  20
BRANCH  17  22
ATOM     22  C   UNL     1     -36.321  27.300   2.451  0.00  0.00    +0.037 C 
ATOM     23  C   UNL     1     -35.584  28.337   2.021  0.00  0.00    +0.003 C 
BRANCH  23  24
ATOM     24  C   UNL     1     -36.162  29.506   1.393  0.00  0.00    +0.000 C 
ATOM     25  C   UNL     1     -36.157  30.720   1.967  0.00  0.00    +0.000 C 
BRANCH  25  26
ATOM     26  C   UNL     1     -36.736  31.889   1.340  0.00  0.00    +0.007 C 
ATOM     27  C   UNL     1     -37.770  32.556   1.872  0.00  0.00    +0.082 C 
BRANCH  27  29
ATOM     28  O   UNL     1     -37.982  34.145   0.075  0.00  0.00    -0.245 OA
ATOM     29  C   UNL     1     -38.309  33.742   1.177  0.00  0.00    +0.338 C 
BRANCH  29  30
ATOM     30  O   UNL     1     -39.241  34.322   1.969  0.00  0.00    -0.477 OA
ATOM     31  H   UNL     1     -39.881  33.794   2.404  0.00  0.00    +0.295 HD
ENDBRANCH  29  30
ENDBRANCH  27  29
ENDBRANCH  25  26
ENDBRANCH  23  24
ENDBRANCH  17  22
TORSDOF 7
ENDMDL
MODEL 4
REMARK VINA RESULT:      -6.4      5.661      8.931
REMARK  Name = 54728247
REMARK  7 active torsions:
REMARK  status: ('A' for Active; 'I' for Inactive)
REMARK    1  A    between atoms: C_12  and  O_18
REMARK    2  A    between atoms: C_17  and  O_20
REMARK    3  A    between atoms: C_17  and  C_22
REMARK    4  A    between atoms: C_23  and  C_24
REMARK    5  A    between atoms: C_25  and  C_26
REMARK    6  A    between atoms: C_27  and  C_29
REMARK    7  A    between atoms: C_29  and  O_30
REMARK                            x       y       z     vdW  Elec       q    Type
REMARK                         _______ _______ _______ _____ _____    ______ ____
ROOT
ATOM      1  O   UNL     1     -31.001  28.700   3.518  0.00  0.00    -0.449 OA
ATOM      2  O   UNL     1     -29.203  27.372   4.129  0.00  0.00    -0.245 OA
ATOM      3  C   UNL     1     -28.852  30.445   2.323  0.00  0.00    +0.004 C 
ATOM      4  C   UNL     1     -28.931  31.723   3.172  0.00  0.00    +0.005 C 
ATOM      5  C   UNL     1     -30.192  30.032   1.683  0.00  0.00    +0.044 C 
ATOM      6  C   UNL     1     -29.659  31.585   4.518  0.00  0.00    +0.029 C 
ATOM      7  C   UNL     1     -30.688  28.643   2.114  0.00  0.00    +0.169 C 
ATOM      8  C   UNL     1     -28.848  30.929   5.622  0.00  0.00    +0.012 C 
ATOM      9  C   UNL     1     -29.158  29.670   6.185  0.00  0.00    +0.008 C 
ATOM     10  C   UNL     1     -31.969  28.266   1.380  0.00  0.00    +0.047 C 
ATOM     11  C   UNL     1     -30.258  28.834   5.683  0.00  0.00    +0.109 C 
ATOM     12  C   UNL     1     -27.753  31.645   6.145  0.00  0.00    +0.130 C 
ATOM     13  C   UNL     1     -30.105  28.157   4.380  0.00  0.00    +0.344 C 
ATOM     14  C   UNL     1     -28.375  29.167   7.239  0.00  0.00    +0.000 C 
ATOM     15  C   UNL     1     -26.983  31.132   7.188  0.00  0.00    +0.036 C 
ATOM     16  C   UNL     1     -27.296  29.893   7.737  0.00  0.00    +0.003 C 
ATOM     17  C   UNL     1     -31.399  28.658   6.365  0.00  0.00    +0.140 C 
ENDROOT
BRANCH  12  18
ATOM     18  O   UNL     1     -27.404  32.869   5.646  0.00  0.00    -0.506 OA
ATOM     19  H   UNL     1     -27.030  32.936   4.789  0.00  0.00    +0.292 HD
ENDBRANCH  12  18
BRANCH  17  20
ATOM     20  O   UNL     1     -31.609  29.256   7.589  0.00  0.00    -0.505 OA
ATOM     21  H   UNL     1     -32.190  29.988   7.660  0.00  0.00    +0.292 HD
ENDBRANCH  17  20
BRANCH  17  22
ATOM     22  C   UNL     1     -32.479  27.832   5.864  0.00  0.00    +0.037 C 
ATOM     23  C   UNL     1     -33.111  26.873   6.561  0.00  0.00    +0.003 C 
BRANCH  23  24
ATOM     24  C   UNL     1     -34.186  26.078   6.007  0.00  0.00    +0.000 C 
ATOM     25  C   UNL     1     -34.059  25.363   4.878  0.00  0.00    +0.000 C 
BRANCH  25  26
ATOM     26  C   UNL     1     -35.134  24.568   4.323  0.00  0.00    +0.007 C 
ATOM     27  C   UNL     1     -35.137  23.229   4.362  0.00  0.00    +0.082 C 
BRANCH  27  29
ATOM     28  O   UNL     1     -37.316  22.959   3.372  0.00  0.00    -0.245 OA
ATOM     29  C   UNL     1     -36.268  22.483   3.775  0.00  0.00    +0.338 C 
BRANCH  29  30
ATOM     30  O   UNL     1     -35.956  21.167   3.755  0.00  0.00    -0.477 OA
ATOM     31  H   UNL     1     -35.527  20.776   4.490  0.00  0.00    +0.295 HD
ENDBRANCH  29  30
ENDBRANCH  27  29
ENDBRANCH  25  26
ENDBRANCH  23  24
ENDBRANCH  17  22
TORSDOF 7
ENDMDL
MODEL 5
REMARK VINA RESULT:      -6.4      2.089      4.101
REMARK  Name = 54728247
REMARK  7 active torsions:
REMARK  status: ('A' for Active; 'I' for Inactive)
REMARK    1  A    between atoms: C_12  and  O_18
REMARK    2  A    between atoms: C_17  and  O_20
REMARK    3  A    between atoms: C_17  and  C_22
REMARK    4  A    between atoms: C_23  and  C_24
REMARK    5  A    between atoms: C_25  and  C_26
REMARK    6  A    between atoms: C_27  and  C_29
REMARK    7  A    between atoms: C_29  and  O_30
REMARK                            x       y       z     vdW  Elec       q    Type
REMARK                         _______ _______ _______ _____ _____    ______ ____
ROOT
ATOM      1  O   UNL     1     -35.911  22.129   0.161  0.00  0.00    -0.449 OA
ATOM      2  O   UNL     1     -34.024  23.379   0.656  0.00  0.00    -0.245 OA
ATOM      3  C   UNL     1     -37.200  24.839  -0.125  0.00  0.00    +0.004 C 
ATOM      4  C   UNL     1     -38.217  24.862   1.026  0.00  0.00    +0.005 C 
ATOM      5  C   UNL     1     -37.342  23.627  -1.066  0.00  0.00    +0.044 C 
ATOM      6  C   UNL     1     -37.986  23.831   2.140  0.00  0.00    +0.029 C 
ATOM      7  C   UNL     1     -36.091  22.736  -1.131  0.00  0.00    +0.169 C 
ATOM      8  C   UNL     1     -36.891  24.189   3.131  0.00  0.00    +0.012 C 
ATOM      9  C   UNL     1     -35.679  23.475   3.256  0.00  0.00    +0.008 C 
ATOM     10  C   UNL     1     -36.272  21.610  -2.140  0.00  0.00    +0.047 C 
ATOM     11  C   UNL     1     -35.328  22.359   2.366  0.00  0.00    +0.109 C 
ATOM     12  C   UNL     1     -37.127  25.268   4.006  0.00  0.00    +0.130 C 
ATOM     13  C   UNL     1     -34.953  22.650   0.968  0.00  0.00    +0.344 C 
ATOM     14  C   UNL     1     -34.746  23.854   4.238  0.00  0.00    +0.000 C 
ATOM     15  C   UNL     1     -36.192  25.634   4.973  0.00  0.00    +0.036 C 
ATOM     16  C   UNL     1     -35.001  24.926   5.090  0.00  0.00    +0.003 C 
ATOM     17  C   UNL     1     -35.332  21.082   2.775  0.00  0.00    +0.140 C 
ENDROOT
BRANCH  12  18
ATOM     18  O   UNL     1     -38.282  25.996   3.937  0.00  0.00    -0.506 OA
ATOM     19  H   UNL     1     -38.599  26.295   3.107  0.00  0.00    +0.292 HD
ENDBRANCH  12  18
BRANCH  17  20
ATOM     20  O   UNL     1     -35.667  20.738   4.067  0.00  0.00    -0.505 OA
ATOM     21  H   UNL     1     -35.053  20.279   4.605  0.00  0.00    +0.292 HD
ENDBRANCH  17  20
BRANCH  17  22
ATOM     22  C   UNL     1     -34.985  19.987   1.892  0.00  0.00    +0.037 C 
ATOM     23  C   UNL     1     -33.777  19.405   1.814  0.00  0.00    +0.003 C 
BRANCH  23  24
ATOM     24  C   UNL     1     -33.488  18.311   0.911  0.00  0.00    +0.000 C 
ATOM     25  C   UNL     1     -32.306  17.675   0.888  0.00  0.00    +0.000 C 
BRANCH  25  26
ATOM     26  C   UNL     1     -32.016  16.583  -0.017  0.00  0.00    +0.007 C 
ATOM     27  C   UNL     1     -32.896  15.605  -0.273  0.00  0.00    +0.082 C 
BRANCH  27  29
ATOM     28  O   UNL     1     -31.670  14.568  -2.068  0.00  0.00    -0.245 OA
ATOM     29  C   UNL     1     -32.532  14.521  -1.207  0.00  0.00    +0.338 C 
BRANCH  29  30
ATOM     30  O   UNL     1     -33.318  13.450  -0.956  0.00  0.00    -0.477 OA
ATOM     31  H   UNL     1     -33.539  12.858  -1.648  0.00  0.00    +0.295 HD
ENDBRANCH  29  30
ENDBRANCH  27  29
ENDBRANCH  25  26
ENDBRANCH  23  24
ENDBRANCH  17  22
TORSDOF 7
ENDMDL
MODEL 6
REMARK VINA RESULT:      -6.2      3.207      8.235
REMARK  Name = 54728247
REMARK  7 active torsions:
REMARK  status: ('A' for Active; 'I' for Inactive)
REMARK    1  A    between atoms: C_12  and  O_18
REMARK    2  A    between atoms: C_17  and  O_20
REMARK    3  A    between atoms: C_17  and  C_22
REMARK    4  A    between atoms: C_23  and  C_24
REMARK    5  A    between atoms: C_25  and  C_26
REMARK    6  A    between atoms: C_27  and  C_29
REMARK    7  A    between atoms: C_29  and  O_30
REMARK                            x       y       z     vdW  Elec       q    Type
REMARK                         _______ _______ _______ _____ _____    ______ ____
ROOT
ATOM      1  O   UNL     1     -34.136  24.393   2.039  0.00  0.00    -0.449 OA
ATOM      2  O   UNL     1     -36.193  25.299   1.476  0.00  0.00    -0.245 OA
ATOM      3  C   UNL     1     -34.212  23.359  -0.791  0.00  0.00    +0.004 C 
ATOM      4  C   UNL     1     -34.291  21.837  -0.602  0.00  0.00    +0.005 C 
ATOM      5  C   UNL     1     -33.025  24.021  -0.064  0.00  0.00    +0.044 C 
ATOM      6  C   UNL     1     -34.735  21.360   0.790  0.00  0.00    +0.029 C 
ATOM      7  C   UNL     1     -33.440  25.072   0.978  0.00  0.00    +0.169 C 
ATOM      8  C   UNL     1     -36.229  21.448   1.052  0.00  0.00    +0.012 C 
ATOM      9  C   UNL     1     -36.812  22.322   1.997  0.00  0.00    +0.008 C 
ATOM     10  C   UNL     1     -32.219  25.744   1.594  0.00  0.00    +0.047 C 
ATOM     11  C   UNL     1     -36.019  23.300   2.757  0.00  0.00    +0.109 C 
ATOM     12  C   UNL     1     -37.072  20.568   0.345  0.00  0.00    +0.130 C 
ATOM     13  C   UNL     1     -35.489  24.489   2.059  0.00  0.00    +0.344 C 
ATOM     14  C   UNL     1     -38.202  22.296   2.205  0.00  0.00    +0.000 C 
ATOM     15  C   UNL     1     -38.449  20.556   0.559  0.00  0.00    +0.036 C 
ATOM     16  C   UNL     1     -39.015  21.418   1.491  0.00  0.00    +0.003 C 
ATOM     17  C   UNL     1     -35.759  23.157   4.064  0.00  0.00    +0.140 C 
ENDROOT
BRANCH  12  18
ATOM     18  O   UNL     1     -36.568  19.696  -0.580  0.00  0.00    -0.506 OA
ATOM     19  H   UNL     1     -36.526  19.943  -1.483  0.00  0.00    +0.292 HD
ENDBRANCH  12  18
BRANCH  17  20
ATOM     20  O   UNL     1     -36.225  22.075   4.780  0.00  0.00    -0.505 OA
ATOM     21  H   UNL     1     -35.775  21.794   5.552  0.00  0.00    +0.292 HD
ENDBRANCH  17  20
BRANCH  17  22
ATOM     22  C   UNL     1     -34.978  24.125   4.808  0.00  0.00    +0.037 C 
ATOM     23  C   UNL     1     -35.475  25.185   5.465  0.00  0.00    +0.003 C 
BRANCH  23  24
ATOM     24  C   UNL     1     -34.643  26.121   6.193  0.00  0.00    +0.000 C 
ATOM     25  C   UNL     1     -33.429  26.502   5.767  0.00  0.00    +0.000 C 
BRANCH  25  26
ATOM     26  C   UNL     1     -32.597  27.436   6.494  0.00  0.00    +0.007 C 
ATOM     27  C   UNL     1     -31.890  28.399   5.886  0.00  0.00    +0.082 C 
BRANCH  27  29
ATOM     28  O   UNL     1     -30.099  29.955   6.301  0.00  0.00    -0.245 OA
ATOM     29  C   UNL     1     -31.062  29.318   6.692  0.00  0.00    +0.338 C 
BRANCH  29  30
ATOM     30  O   UNL     1     -31.546  29.343   7.955  0.00  0.00    -0.477 OA
ATOM     31  H   UNL     1     -31.533  30.140   8.446  0.00  0.00    +0.295 HD
ENDBRANCH  29  30
ENDBRANCH  27  29
ENDBRANCH  25  26
ENDBRANCH  23  24
ENDBRANCH  17  22
TORSDOF 7
ENDMDL
MODEL 7
REMARK VINA RESULT:      -6.1      3.158      9.198
REMARK  Name = 54728247
REMARK  7 active torsions:
REMARK  status: ('A' for Active; 'I' for Inactive)
REMARK    1  A    between atoms: C_12  and  O_18
REMARK    2  A    between atoms: C_17  and  O_20
REMARK    3  A    between atoms: C_17  and  C_22
REMARK    4  A    between atoms: C_23  and  C_24
REMARK    5  A    between atoms: C_25  and  C_26
REMARK    6  A    between atoms: C_27  and  C_29
REMARK    7  A    between atoms: C_29  and  O_30
REMARK                            x       y       z     vdW  Elec       q    Type
REMARK                         _______ _______ _______ _____ _____    ______ ____
ROOT
ATOM      1  O   UNL     1     -33.620  19.925  -0.179  0.00  0.00    -0.449 OA
ATOM      2  O   UNL     1     -35.179  20.492  -1.798  0.00  0.00    -0.245 OA
ATOM      3  C   UNL     1     -33.112  17.574  -1.996  0.00  0.00    +0.004 C 
ATOM      4  C   UNL     1     -33.575  16.377  -1.152  0.00  0.00    +0.005 C 
ATOM      5  C   UNL     1     -32.066  18.467  -1.299  0.00  0.00    +0.044 C 
ATOM      6  C   UNL     1     -34.491  16.714   0.035  0.00  0.00    +0.029 C 
ATOM      7  C   UNL     1     -32.519  19.923  -1.105  0.00  0.00    +0.169 C 
ATOM      8  C   UNL     1     -35.940  16.989  -0.330  0.00  0.00    +0.012 C 
ATOM      9  C   UNL     1     -36.560  18.250  -0.191  0.00  0.00    +0.008 C 
ATOM     10  C   UNL     1     -31.408  20.765  -0.490  0.00  0.00    +0.047 C 
ATOM     11  C   UNL     1     -35.823  19.446   0.242  0.00  0.00    +0.109 C 
ATOM     12  C   UNL     1     -36.718  15.906  -0.785  0.00  0.00    +0.130 C 
ATOM     13  C   UNL     1     -34.867  20.075  -0.693  0.00  0.00    +0.344 C 
ATOM     14  C   UNL     1     -37.922  18.395  -0.509  0.00  0.00    +0.000 C 
ATOM     15  C   UNL     1     -38.067  16.065  -1.100  0.00  0.00    +0.036 C 
ATOM     16  C   UNL     1     -38.670  17.309  -0.960  0.00  0.00    +0.003 C 
ATOM     17  C   UNL     1     -35.985  19.993   1.455  0.00  0.00    +0.140 C 
ENDROOT
BRANCH  12  18
ATOM     18  O   UNL     1     -36.177  14.660  -0.936  0.00  0.00    -0.506 OA
ATOM     19  H   UNL     1     -35.706  14.264  -0.229  0.00  0.00    +0.292 HD
ENDBRANCH  12  18
BRANCH  17  20
ATOM     20  O   UNL     1     -36.862  19.462   2.376  0.00  0.00    -0.505 OA
ATOM     21  H   UNL     1     -36.728  19.609   3.291  0.00  0.00    +0.292 HD
ENDBRANCH  17  20
BRANCH  17  22
ATOM     22  C   UNL     1     -35.254  21.172   1.875  0.00  0.00    +0.037 C 
ATOM     23  C   UNL     1     -35.808  22.301   2.348  0.00  0.00    +0.003 C 
BRANCH  23  24
ATOM     24  C   UNL     1     -35.025  23.450   2.754  0.00  0.00    +0.000 C 
ATOM     25  C   UNL     1     -35.335  24.205   3.819  0.00  0.00    +0.000 C 
BRANCH  25  26
ATOM     26  C   UNL     1     -34.554  25.354   4.224  0.00  0.00    +0.007 C 
ATOM     27  C   UNL     1     -34.143  25.540   5.486  0.00  0.00    +0.082 C 
BRANCH  27  29
ATOM     28  O   UNL     1     -32.709  26.913   6.850  0.00  0.00    -0.245 OA
ATOM     29  C   UNL     1     -33.349  26.737   5.827  0.00  0.00    +0.338 C 
BRANCH  29  30
ATOM     30  O   UNL     1     -33.444  27.625   4.811  0.00  0.00    -0.477 OA
ATOM     31  H   UNL     1     -33.906  27.395   4.029  0.00  0.00    +0.295 HD
ENDBRANCH  29  30
ENDBRANCH  27  29
ENDBRANCH  25  26
ENDBRANCH  23  24
ENDBRANCH  17  22
TORSDOF 7
ENDMDL
MODEL 8
REMARK VINA RESULT:      -6.1      2.516      2.849
REMARK  Name = 54728247
REMARK  7 active torsions:
REMARK  status: ('A' for Active; 'I' for Inactive)
REMARK    1  A    between atoms: C_12  and  O_18
REMARK    2  A    between atoms: C_17  and  O_20
REMARK    3  A    between atoms: C_17  and  C_22
REMARK    4  A    between atoms: C_23  and  C_24
REMARK    5  A    between atoms: C_25  and  C_26
REMARK    6  A    between atoms: C_27  and  C_29
REMARK    7  A    between atoms: C_29  and  O_30
REMARK                            x       y       z     vdW  Elec       q    Type
REMARK                         _______ _______ _______ _____ _____    ______ ____
ROOT
ATOM      1  O   UNL     1     -35.598  23.064   3.906  0.00  0.00    -0.449 OA
ATOM      2  O   UNL     1     -37.714  23.998   3.758  0.00  0.00    -0.245 OA
ATOM      3  C   UNL     1     -35.113  25.337   5.825  0.00  0.00    +0.004 C 
ATOM      4  C   UNL     1     -34.062  26.188   5.097  0.00  0.00    +0.005 C 
ATOM      5  C   UNL     1     -34.714  23.858   5.999  0.00  0.00    +0.044 C 
ATOM      6  C   UNL     1     -33.927  25.932   3.588  0.00  0.00    +0.029 C 
ATOM      7  C   UNL     1     -35.680  22.868   5.329  0.00  0.00    +0.169 C 
ATOM      8  C   UNL     1     -35.006  26.570   2.729  0.00  0.00    +0.012 C 
ATOM      9  C   UNL     1     -35.968  25.836   2.001  0.00  0.00    +0.008 C 
ATOM     10  C   UNL     1     -35.272  21.428   5.613  0.00  0.00    +0.047 C 
ATOM     11  C   UNL     1     -36.066  24.371   2.081  0.00  0.00    +0.109 C 
ATOM     12  C   UNL     1     -35.010  27.974   2.618  0.00  0.00    +0.130 C 
ATOM     13  C   UNL     1     -36.603  23.756   3.312  0.00  0.00    +0.344 C 
ATOM     14  C   UNL     1     -36.898  26.515   1.193  0.00  0.00    +0.000 C 
ATOM     15  C   UNL     1     -35.940  28.635   1.816  0.00  0.00    +0.036 C 
ATOM     16  C   UNL     1     -36.883  27.905   1.101  0.00  0.00    +0.003 C 
ATOM     17  C   UNL     1     -35.689  23.567   1.077  0.00  0.00    +0.140 C 
ENDROOT
BRANCH  12  18
ATOM     18  O   UNL     1     -34.102  28.740   3.294  0.00  0.00    -0.506 OA
ATOM     19  H   UNL     1     -33.729  28.427   4.095  0.00  0.00    +0.292 HD
ENDBRANCH  12  18
BRANCH  17  20
ATOM     20  O   UNL     1     -35.183  24.072  -0.102  0.00  0.00    -0.505 OA
ATOM     21  H   UNL     1     -34.286  23.926  -0.328  0.00  0.00    +0.292 HD
ENDBRANCH  17  20
BRANCH  17  22
ATOM     22  C   UNL     1     -35.788  22.124   1.163  0.00  0.00    +0.037 C 
ATOM     23  C   UNL     1     -36.826  21.389   0.731  0.00  0.00    +0.003 C 
BRANCH  23  24
ATOM     24  C   UNL     1     -36.870  19.947   0.844  0.00  0.00    +0.000 C 
ATOM     25  C   UNL     1     -37.199  19.144  -0.180  0.00  0.00    +0.000 C 
BRANCH  25  26
ATOM     26  C   UNL     1     -37.244  17.701  -0.067  0.00  0.00    +0.007 C 
ATOM     27  C   UNL     1     -38.147  16.954  -0.716  0.00  0.00    +0.082 C 
BRANCH  27  29
ATOM     28  O   UNL     1     -38.985  14.812   0.000  0.00  0.00    -0.245 OA
ATOM     29  C   UNL     1     -38.133  15.486  -0.554  0.00  0.00    +0.338 C 
BRANCH  29  30
ATOM     30  O   UNL     1     -37.009  14.997  -1.125  0.00  0.00    -0.477 OA
ATOM     31  H   UNL     1     -36.206  14.983  -0.643  0.00  0.00    +0.295 HD
ENDBRANCH  29  30
ENDBRANCH  27  29
ENDBRANCH  25  26
ENDBRANCH  23  24
ENDBRANCH  17  22
TORSDOF 7
ENDMDL
MODEL 9
REMARK VINA RESULT:      -6.0      5.135     10.438
REMARK  Name = 54728247
REMARK  7 active torsions:
REMARK  status: ('A' for Active; 'I' for Inactive)
REMARK    1  A    between atoms: C_12  and  O_18
REMARK    2  A    between atoms: C_17  and  O_20
REMARK    3  A    between atoms: C_17  and  C_22
REMARK    4  A    between atoms: C_23  and  C_24
REMARK    5  A    between atoms: C_25  and  C_26
REMARK    6  A    between atoms: C_27  and  C_29
REMARK    7  A    between atoms: C_29  and  O_30
REMARK                            x       y       z     vdW  Elec       q    Type
REMARK                         _______ _______ _______ _____ _____    ______ ____
ROOT
ATOM      1  O   UNL     1     -33.539  28.049   4.567  0.00  0.00    -0.449 OA
ATOM      2  O   UNL     1     -32.681  26.893   2.752  0.00  0.00    -0.245 OA
ATOM      3  C   UNL     1     -34.085  25.280   5.625  0.00  0.00    +0.004 C 
ATOM      4  C   UNL     1     -35.619  25.220   5.665  0.00  0.00    +0.005 C 
ATOM      5  C   UNL     1     -33.482  26.476   6.388  0.00  0.00    +0.044 C 
ATOM      6  C   UNL     1     -36.349  26.271   4.816  0.00  0.00    +0.029 C 
ATOM      7  C   UNL     1     -32.649  27.422   5.509  0.00  0.00    +0.169 C 
ATOM      8  C   UNL     1     -36.399  25.973   3.328  0.00  0.00    +0.012 C 
ATOM      9  C   UNL     1     -35.735  26.744   2.348  0.00  0.00    +0.008 C 
ATOM     10  C   UNL     1     -32.017  28.530   6.341  0.00  0.00    +0.047 C 
ATOM     11  C   UNL     1     -34.852  27.867   2.696  0.00  0.00    +0.109 C 
ATOM     12  C   UNL     1     -37.198  24.893   2.902  0.00  0.00    +0.130 C 
ATOM     13  C   UNL     1     -33.532  27.581   3.294  0.00  0.00    +0.344 C 
ATOM     14  C   UNL     1     -35.881  26.418   0.988  0.00  0.00    +0.000 C 
ATOM     15  C   UNL     1     -37.331  24.579   1.551  0.00  0.00    +0.036 C 
ATOM     16  C   UNL     1     -36.674  25.343   0.593  0.00  0.00    +0.003 C 
ATOM     17  C   UNL     1     -35.197  29.145   2.490  0.00  0.00    +0.140 C 
ENDROOT
BRANCH  12  18
ATOM     18  O   UNL     1     -37.868  24.111   3.801  0.00  0.00    -0.506 OA
ATOM     19  H   UNL     1     -37.781  23.179   3.769  0.00  0.00    +0.292 HD
ENDBRANCH  12  18
BRANCH  17  20
ATOM     20  O   UNL     1     -36.411  29.486   1.932  0.00  0.00    -0.505 OA
ATOM     21  H   UNL     1     -36.462  30.183   1.309  0.00  0.00    +0.292 HD
ENDBRANCH  17  20
BRANCH  17  22
ATOM     22  C   UNL     1     -34.322  30.248   2.835  0.00  0.00    +0.037 C 
ATOM     23  C   UNL     1     -34.097  31.330   2.072  0.00  0.00    +0.003 C 
BRANCH  23  24
ATOM     24  C   UNL     1     -33.210  32.402   2.470  0.00  0.00    +0.000 C 
ATOM     25  C   UNL     1     -33.413  33.684   2.127  0.00  0.00    +0.000 C 
BRANCH  25  26
ATOM     26  C   UNL     1     -32.525  34.756   2.524  0.00  0.00    +0.007 C 
ATOM     27  C   UNL     1     -32.648  36.006   2.056  0.00  0.00    +0.082 C 
BRANCH  27  29
ATOM     28  O   UNL     1     -31.540  38.143   1.992  0.00  0.00    -0.245 OA
ATOM     29  C   UNL     1     -31.706  37.050   2.505  0.00  0.00    +0.338 C 
BRANCH  29  30
ATOM     30  O   UNL     1     -31.043  36.597   3.594  0.00  0.00    -0.477 OA
ATOM     31  H   UNL     1     -30.261  36.091   3.490  0.00  0.00    +0.295 HD
ENDBRANCH  29  30
ENDBRANCH  27  29
ENDBRANCH  25  26
ENDBRANCH  23  24
ENDBRANCH  17  22
TORSDOF 7
ENDMDL
