MODEL 1
REMARK VINA RESULT:      -5.4      0.000      0.000
REMARK  Name = 193436
REMARK  6 active torsions:
REMARK  status: ('A' for Active; 'I' for Inactive)
REMARK    1  A    between atoms: C_1  and  S_7
REMARK    2  A    between atoms: C_4  and  O_13
REMARK    3  A    between atoms: S_7  and  N_10
REMARK    4  A    between atoms: O_13  and  C_14
REMARK    5  A    between atoms: C_14  and  C_16
REMARK    6  A    between atoms: C_16  and  O_17
REMARK                            x       y       z     vdW  Elec       q    Type
REMARK                         _______ _______ _______ _____ _____    ______ ____
ROOT
ATOM      1  C   UNL     1     -33.381  26.770   4.829  0.00  0.00    +0.122 C 
ATOM      2  C   UNL     1     -34.035  26.334   5.982  0.00  0.00    +0.023 C 
ATOM      3  C   UNL     1     -33.713  26.223   3.590  0.00  0.00    +0.023 C 
ATOM      4  C   UNL     1     -35.353  24.804   4.657  0.00  0.00    +0.139 C 
ATOM      5  C   UNL     1     -35.019  25.351   5.896  0.00  0.00    +0.038 C 
ATOM      6  C   UNL     1     -34.699  25.240   3.504  0.00  0.00    +0.038 C 
ENDROOT
BRANCH   1   7
ATOM      7  S   UNL     1     -32.148  28.001   4.937  0.00  0.00    +0.057 S 
ATOM      8  O   UNL     1     -31.101  27.689   3.976  0.00  0.00    -0.153 OA
ATOM      9  O   UNL     1     -32.794  29.307   4.905  0.00  0.00    -0.153 OA
BRANCH   7  10
ATOM     10  N   UNL     1     -31.549  27.726   6.514  0.00  0.00    -0.203 NA
ATOM     11  H   UNL     1     -32.098  28.262   7.185  0.00  0.00    +0.144 HD
ATOM     12  H   UNL     1     -30.572  28.018   6.562  0.00  0.00    +0.144 HD
ENDBRANCH   7  10
ENDBRANCH   1   7
BRANCH   4  13
ATOM     13  O   UNL     1     -36.314  23.845   4.572  0.00  0.00    -0.464 OA
BRANCH  13  14
ATOM     14  C   UNL     1     -35.883  22.515   4.286  0.00  0.00    +0.314 C 
BRANCH  14  16
ATOM     15  O   UNL     1     -36.006  22.130   6.681  0.00  0.00    -0.246 OA
ATOM     16  C   UNL     1     -35.655  21.766   5.569  0.00  0.00    +0.359 C 
BRANCH  16  17
ATOM     17  O   UNL     1     -34.996  20.605   5.324  0.00  0.00    -0.478 OA
ATOM     18  H   UNL     1     -34.578  20.470   4.496  0.00  0.00    +0.295 HD
ENDBRANCH  16  17
ENDBRANCH  14  16
ENDBRANCH  13  14
ENDBRANCH   4  13
TORSDOF 6
ENDMDL
MODEL 2
REMARK VINA RESULT:      -5.3      3.005      6.128
REMARK  Name = 193436
REMARK  6 active torsions:
REMARK  status: ('A' for Active; 'I' for Inactive)
REMARK    1  A    between atoms: C_1  and  S_7
REMARK    2  A    between atoms: C_4  and  O_13
REMARK    3  A    between atoms: S_7  and  N_10
REMARK    4  A    between atoms: O_13  and  C_14
REMARK    5  A    between atoms: C_14  and  C_16
REMARK    6  A    between atoms: C_16  and  O_17
REMARK                            x       y       z     vdW  Elec       q    Type
REMARK                         _______ _______ _______ _____ _____    ______ ____
ROOT
ATOM      1  C   UNL     1     -35.105  24.312   4.321  0.00  0.00    +0.122 C 
ATOM      2  C   UNL     1     -35.042  24.854   5.605  0.00  0.00    +0.023 C 
ATOM      3  C   UNL     1     -34.440  24.939   3.267  0.00  0.00    +0.023 C 
ATOM      4  C   UNL     1     -33.652  26.650   4.782  0.00  0.00    +0.139 C 
ATOM      5  C   UNL     1     -34.317  26.022   5.835  0.00  0.00    +0.038 C 
ATOM      6  C   UNL     1     -33.714  26.108   3.497  0.00  0.00    +0.038 C 
ENDROOT
BRANCH   1   7
ATOM      7  S   UNL     1     -36.013  22.850   4.033  0.00  0.00    +0.057 S 
ATOM      8  O   UNL     1     -37.378  23.216   3.687  0.00  0.00    -0.153 OA
ATOM      9  O   UNL     1     -35.243  21.997   3.137  0.00  0.00    -0.153 OA
BRANCH   7  10
ATOM     10  N   UNL     1     -36.008  22.150   5.592  0.00  0.00    -0.203 NA
ATOM     11  H   UNL     1     -36.966  22.061   5.928  0.00  0.00    +0.144 HD
ATOM     12  H   UNL     1     -35.478  22.747   6.230  0.00  0.00    +0.144 HD
ENDBRANCH   7  10
ENDBRANCH   1   7
BRANCH   4  13
ATOM     13  O   UNL     1     -32.944  27.789   5.006  0.00  0.00    -0.464 OA
BRANCH  13  14
ATOM     14  C   UNL     1     -32.180  27.852   6.210  0.00  0.00    +0.314 C 
BRANCH  14  16
ATOM     15  O   UNL     1     -32.310  30.267   5.978  0.00  0.00    -0.246 OA
ATOM     16  C   UNL     1     -31.827  29.282   6.515  0.00  0.00    +0.359 C 
BRANCH  16  17
ATOM     17  O   UNL     1     -30.883  29.335   7.488  0.00  0.00    -0.478 OA
ATOM     18  H   UNL     1     -30.791  30.108   8.010  0.00  0.00    +0.295 HD
ENDBRANCH  16  17
ENDBRANCH  14  16
ENDBRANCH  13  14
ENDBRANCH   4  13
TORSDOF 6
ENDMDL
MODEL 3
REMARK VINA RESULT:      -5.3      3.088      3.967
REMARK  Name = 193436
REMARK  6 active torsions:
REMARK  status: ('A' for Active; 'I' for Inactive)
REMARK    1  A    between atoms: C_1  and  S_7
REMARK    2  A    between atoms: C_4  and  O_13
REMARK    3  A    between atoms: S_7  and  N_10
REMARK    4  A    between atoms: O_13  and  C_14
REMARK    5  A    between atoms: C_14  and  C_16
REMARK    6  A    between atoms: C_16  and  O_17
REMARK                            x       y       z     vdW  Elec       q    Type
REMARK                         _______ _______ _______ _____ _____    ______ ____
ROOT
ATOM      1  C   UNL     1     -35.105  24.557   4.639  0.00  0.00    +0.122 C 
ATOM      2  C   UNL     1     -35.099  24.233   3.283  0.00  0.00    +0.023 C 
ATOM      3  C   UNL     1     -35.227  23.550   5.597  0.00  0.00    +0.023 C 
ATOM      4  C   UNL     1     -35.337  21.894   3.840  0.00  0.00    +0.139 C 
ATOM      5  C   UNL     1     -35.216  22.902   2.883  0.00  0.00    +0.038 C 
ATOM      6  C   UNL     1     -35.343  22.219   5.197  0.00  0.00    +0.038 C 
ENDROOT
BRANCH   1   7
ATOM      7  S   UNL     1     -34.960  26.224   5.140  0.00  0.00    +0.057 S 
ATOM      8  O   UNL     1     -34.104  26.278   6.316  0.00  0.00    -0.153 OA
ATOM      9  O   UNL     1     -34.635  27.030   3.971  0.00  0.00    -0.153 OA
BRANCH   7  10
ATOM     10  N   UNL     1     -36.567  26.564   5.610  0.00  0.00    -0.203 NA
ATOM     11  H   UNL     1     -36.640  27.542   5.888  0.00  0.00    +0.144 HD
ATOM     12  H   UNL     1     -36.825  25.966   6.397  0.00  0.00    +0.144 HD
ENDBRANCH   7  10
ENDBRANCH   1   7
BRANCH   4  13
ATOM     13  O   UNL     1     -35.450  20.596   3.450  0.00  0.00    -0.464 OA
BRANCH  13  14
ATOM     14  C   UNL     1     -35.325  20.323   2.055  0.00  0.00    +0.314 C 
BRANCH  14  16
ATOM     15  O   UNL     1     -37.599  20.773   1.328  0.00  0.00    -0.246 OA
ATOM     16  C   UNL     1     -36.673  19.990   1.479  0.00  0.00    +0.359 C 
BRANCH  16  17
ATOM     17  O   UNL     1     -36.726  18.678   1.138  0.00  0.00    -0.478 OA
ATOM     18  H   UNL     1     -37.542  18.217   1.175  0.00  0.00    +0.295 HD
ENDBRANCH  16  17
ENDBRANCH  14  16
ENDBRANCH  13  14
ENDBRANCH   4  13
TORSDOF 6
ENDMDL
MODEL 4
REMARK VINA RESULT:      -5.2      3.043      6.122
REMARK  Name = 193436
REMARK  6 active torsions:
REMARK  status: ('A' for Active; 'I' for Inactive)
REMARK    1  A    between atoms: C_1  and  S_7
REMARK    2  A    between atoms: C_4  and  O_13
REMARK    3  A    between atoms: S_7  and  N_10
REMARK    4  A    between atoms: O_13  and  C_14
REMARK    5  A    between atoms: C_14  and  C_16
REMARK    6  A    between atoms: C_16  and  O_17
REMARK                            x       y       z     vdW  Elec       q    Type
REMARK                         _______ _______ _______ _____ _____    ______ ____
ROOT
ATOM      1  C   UNL     1     -35.112  24.291   4.298  0.00  0.00    +0.122 C 
ATOM      2  C   UNL     1     -34.344  24.897   3.303  0.00  0.00    +0.023 C 
ATOM      3  C   UNL     1     -35.154  24.841   5.579  0.00  0.00    +0.023 C 
ATOM      4  C   UNL     1     -33.660  26.604   4.870  0.00  0.00    +0.139 C 
ATOM      5  C   UNL     1     -33.618  26.053   3.589  0.00  0.00    +0.038 C 
ATOM      6  C   UNL     1     -34.429  25.998   5.865  0.00  0.00    +0.038 C 
ENDROOT
BRANCH   1   7
ATOM      7  S   UNL     1     -36.020  22.844   3.940  0.00  0.00    +0.057 S 
ATOM      8  O   UNL     1     -37.396  23.223   3.652  0.00  0.00    -0.153 OA
ATOM      9  O   UNL     1     -35.270  22.054   2.972  0.00  0.00    -0.153 OA
BRANCH   7  10
ATOM     10  N   UNL     1     -35.972  22.047   5.451  0.00  0.00    -0.203 NA
ATOM     11  H   UNL     1     -35.036  22.124   5.847  0.00  0.00    +0.144 HD
ATOM     12  H   UNL     1     -36.207  21.061   5.323  0.00  0.00    +0.144 HD
ENDBRANCH   7  10
ENDBRANCH   1   7
BRANCH   4  13
ATOM     13  O   UNL     1     -32.953  27.732   5.149  0.00  0.00    -0.464 OA
BRANCH  13  14
ATOM     14  C   UNL     1     -32.273  27.779   6.403  0.00  0.00    +0.314 C 
BRANCH  14  16
ATOM     15  O   UNL     1     -30.667  29.458   5.691  0.00  0.00    -0.246 OA
ATOM     16  C   UNL     1     -30.908  28.383   6.220  0.00  0.00    +0.359 C 
BRANCH  16  17
ATOM     17  O   UNL     1     -29.959  27.560   6.732  0.00  0.00    -0.478 OA
ATOM     18  H   UNL     1     -29.459  27.009   6.161  0.00  0.00    +0.295 HD
ENDBRANCH  16  17
ENDBRANCH  14  16
ENDBRANCH  13  14
ENDBRANCH   4  13
TORSDOF 6
ENDMDL
MODEL 5
REMARK VINA RESULT:      -5.1      1.732      2.118
REMARK  Name = 193436
REMARK  6 active torsions:
REMARK  status: ('A' for Active; 'I' for Inactive)
REMARK    1  A    between atoms: C_1  and  S_7
REMARK    2  A    between atoms: C_4  and  O_13
REMARK    3  A    between atoms: S_7  and  N_10
REMARK    4  A    between atoms: O_13  and  C_14
REMARK    5  A    between atoms: C_14  and  C_16
REMARK    6  A    between atoms: C_16  and  O_17
REMARK                            x       y       z     vdW  Elec       q    Type
REMARK                         _______ _______ _______ _____ _____    ______ ____
ROOT
ATOM      1  C   UNL     1     -34.121  25.942   4.275  0.00  0.00    +0.122 C 
ATOM      2  C   UNL     1     -34.510  25.260   5.428  0.00  0.00    +0.023 C 
ATOM      3  C   UNL     1     -34.563  25.508   3.025  0.00  0.00    +0.023 C 
ATOM      4  C   UNL     1     -35.783  23.710   4.082  0.00  0.00    +0.139 C 
ATOM      5  C   UNL     1     -35.341  24.145   5.332  0.00  0.00    +0.038 C 
ATOM      6  C   UNL     1     -35.394  24.392   2.929  0.00  0.00    +0.038 C 
ENDROOT
BRANCH   1   7
ATOM      7  S   UNL     1     -33.081  27.339   4.395  0.00  0.00    +0.057 S 
ATOM      8  O   UNL     1     -31.839  27.051   3.693  0.00  0.00    -0.153 OA
ATOM      9  O   UNL     1     -33.854  28.522   4.042  0.00  0.00    -0.153 OA
BRANCH   7  10
ATOM     10  N   UNL     1     -32.770  27.370   6.075  0.00  0.00    -0.203 NA
ATOM     11  H   UNL     1     -33.324  26.651   6.538  0.00  0.00    +0.144 HD
ATOM     12  H   UNL     1     -33.021  28.286   6.450  0.00  0.00    +0.144 HD
ENDBRANCH   7  10
ENDBRANCH   1   7
BRANCH   4  13
ATOM     13  O   UNL     1     -36.594  22.622   3.988  0.00  0.00    -0.464 OA
BRANCH  13  14
ATOM     14  C   UNL     1     -36.834  22.101   2.681  0.00  0.00    +0.314 C 
BRANCH  14  16
ATOM     15  O   UNL     1     -34.868  20.743   2.242  0.00  0.00    -0.246 OA
ATOM     16  C   UNL     1     -36.061  20.826   2.492  0.00  0.00    +0.359 C 
BRANCH  16  17
ATOM     17  O   UNL     1     -36.879  19.754   2.642  0.00  0.00    -0.478 OA
ATOM     18  H   UNL     1     -37.347  19.630   3.445  0.00  0.00    +0.295 HD
ENDBRANCH  16  17
ENDBRANCH  14  16
ENDBRANCH  13  14
ENDBRANCH   4  13
TORSDOF 6
ENDMDL
MODEL 6
REMARK VINA RESULT:      -5.0      1.985      3.182
REMARK  Name = 193436
REMARK  6 active torsions:
REMARK  status: ('A' for Active; 'I' for Inactive)
REMARK    1  A    between atoms: C_1  and  S_7
REMARK    2  A    between atoms: C_4  and  O_13
REMARK    3  A    between atoms: S_7  and  N_10
REMARK    4  A    between atoms: O_13  and  C_14
REMARK    5  A    between atoms: C_14  and  C_16
REMARK    6  A    between atoms: C_16  and  O_17
REMARK                            x       y       z     vdW  Elec       q    Type
REMARK                         _______ _______ _______ _____ _____    ______ ____
ROOT
ATOM      1  C   UNL     1     -33.740  26.781   4.782  0.00  0.00    +0.122 C 
ATOM      2  C   UNL     1     -34.302  26.618   3.516  0.00  0.00    +0.023 C 
ATOM      3  C   UNL     1     -34.292  26.122   5.880  0.00  0.00    +0.023 C 
ATOM      4  C   UNL     1     -35.968  25.136   4.445  0.00  0.00    +0.139 C 
ATOM      5  C   UNL     1     -35.416  25.797   3.348  0.00  0.00    +0.038 C 
ATOM      6  C   UNL     1     -35.406  25.299   5.712  0.00  0.00    +0.038 C 
ENDROOT
BRANCH   1   7
ATOM      7  S   UNL     1     -32.346  27.810   4.993  0.00  0.00    +0.057 S 
ATOM      8  O   UNL     1     -31.329  27.411   4.031  0.00  0.00    -0.153 OA
ATOM      9  O   UNL     1     -32.796  29.195   5.037  0.00  0.00    -0.153 OA
BRANCH   7  10
ATOM     10  N   UNL     1     -31.836  27.351   6.558  0.00  0.00    -0.203 NA
ATOM     11  H   UNL     1     -30.835  27.157   6.547  0.00  0.00    +0.144 HD
ATOM     12  H   UNL     1     -32.341  26.512   6.848  0.00  0.00    +0.144 HD
ENDBRANCH   7  10
ENDBRANCH   1   7
BRANCH   4  13
ATOM     13  O   UNL     1     -37.054  24.334   4.281  0.00  0.00    -0.464 OA
BRANCH  13  14
ATOM     14  C   UNL     1     -37.751  24.429   3.039  0.00  0.00    +0.314 C 
BRANCH  14  16
ATOM     15  O   UNL     1     -38.994  26.475   2.628  0.00  0.00    -0.246 OA
ATOM     16  C   UNL     1     -38.903  25.385   3.172  0.00  0.00    +0.359 C 
BRANCH  16  17
ATOM     17  O   UNL     1     -39.850  24.865   3.993  0.00  0.00    -0.478 OA
ATOM     18  H   UNL     1     -40.687  24.622   3.648  0.00  0.00    +0.295 HD
ENDBRANCH  16  17
ENDBRANCH  14  16
ENDBRANCH  13  14
ENDBRANCH   4  13
TORSDOF 6
ENDMDL
MODEL 7
REMARK VINA RESULT:      -5.0      2.828      3.515
REMARK  Name = 193436
REMARK  6 active torsions:
REMARK  status: ('A' for Active; 'I' for Inactive)
REMARK    1  A    between atoms: C_1  and  S_7
REMARK    2  A    between atoms: C_4  and  O_13
REMARK    3  A    between atoms: S_7  and  N_10
REMARK    4  A    between atoms: O_13  and  C_14
REMARK    5  A    between atoms: C_14  and  C_16
REMARK    6  A    between atoms: C_16  and  O_17
REMARK                            x       y       z     vdW  Elec       q    Type
REMARK                         _______ _______ _______ _____ _____    ______ ____
ROOT
ATOM      1  C   UNL     1     -34.671  24.697   4.473  0.00  0.00    +0.122 C 
ATOM      2  C   UNL     1     -34.920  23.774   5.489  0.00  0.00    +0.023 C 
ATOM      3  C   UNL     1     -34.787  24.312   3.137  0.00  0.00    +0.023 C 
ATOM      4  C   UNL     1     -35.400  22.080   3.834  0.00  0.00    +0.139 C 
ATOM      5  C   UNL     1     -35.283  22.466   5.170  0.00  0.00    +0.038 C 
ATOM      6  C   UNL     1     -35.151  23.004   2.818  0.00  0.00    +0.038 C 
ENDROOT
BRANCH   1   7
ATOM      7  S   UNL     1     -34.215  26.334   4.872  0.00  0.00    +0.057 S 
ATOM      8  O   UNL     1     -35.168  27.241   4.250  0.00  0.00    -0.153 OA
ATOM      9  O   UNL     1     -33.975  26.410   6.307  0.00  0.00    -0.153 OA
BRANCH   7  10
ATOM     10  N   UNL     1     -32.718  26.463   4.060  0.00  0.00    -0.203 NA
ATOM     11  H   UNL     1     -32.842  26.225   3.077  0.00  0.00    +0.144 HD
ATOM     12  H   UNL     1     -32.045  25.821   4.483  0.00  0.00    +0.144 HD
ENDBRANCH   7  10
ENDBRANCH   1   7
BRANCH   4  13
ATOM     13  O   UNL     1     -35.755  20.805   3.522  0.00  0.00    -0.464 OA
BRANCH  13  14
ATOM     14  C   UNL     1     -35.454  20.349   2.204  0.00  0.00    +0.314 C 
BRANCH  14  16
ATOM     15  O   UNL     1     -37.602  20.871   1.197  0.00  0.00    -0.246 OA
ATOM     16  C   UNL     1     -36.728  20.060   1.461  0.00  0.00    +0.359 C 
BRANCH  16  17
ATOM     17  O   UNL     1     -36.780  18.749   1.113  0.00  0.00    -0.478 OA
ATOM     18  H   UNL     1     -36.158  18.145   1.468  0.00  0.00    +0.295 HD
ENDBRANCH  16  17
ENDBRANCH  14  16
ENDBRANCH  13  14
ENDBRANCH   4  13
TORSDOF 6
ENDMDL
MODEL 8
REMARK VINA RESULT:      -4.9      4.087      6.234
REMARK  Name = 193436
REMARK  6 active torsions:
REMARK  status: ('A' for Active; 'I' for Inactive)
REMARK    1  A    between atoms: C_1  and  S_7
REMARK    2  A    between atoms: C_4  and  O_13
REMARK    3  A    between atoms: S_7  and  N_10
REMARK    4  A    between atoms: O_13  and  C_14
REMARK    5  A    between atoms: C_14  and  C_16
REMARK    6  A    between atoms: C_16  and  O_17
REMARK                            x       y       z     vdW  Elec       q    Type
REMARK                         _______ _______ _______ _____ _____    ______ ____
ROOT
ATOM      1  C   UNL     1     -36.605  22.539   3.115  0.00  0.00    +0.122 C 
ATOM      2  C   UNL     1     -35.603  22.363   4.070  0.00  0.00    +0.023 C 
ATOM      3  C   UNL     1     -37.302  23.745   3.051  0.00  0.00    +0.023 C 
ATOM      4  C   UNL     1     -35.997  24.598   4.898  0.00  0.00    +0.139 C 
ATOM      5  C   UNL     1     -35.300  23.391   4.961  0.00  0.00    +0.038 C 
ATOM      6  C   UNL     1     -36.998  24.775   3.942  0.00  0.00    +0.038 C 
ENDROOT
BRANCH   1   7
ATOM      7  S   UNL     1     -36.985  21.252   1.998  0.00  0.00    +0.057 S 
ATOM      8  O   UNL     1     -36.748  21.731   0.645  0.00  0.00    -0.153 OA
ATOM      9  O   UNL     1     -36.332  20.033   2.459  0.00  0.00    -0.153 OA
BRANCH   7  10
ATOM     10  N   UNL     1     -38.669  21.096   2.242  0.00  0.00    -0.203 NA
ATOM     11  H   UNL     1     -39.166  21.642   1.540  0.00  0.00    +0.144 HD
ATOM     12  H   UNL     1     -38.910  21.438   3.173  0.00  0.00    +0.144 HD
ENDBRANCH   7  10
ENDBRANCH   1   7
BRANCH   4  13
ATOM     13  O   UNL     1     -35.701  25.601   5.767  0.00  0.00    -0.464 OA
BRANCH  13  14
ATOM     14  C   UNL     1     -34.334  26.005   5.852  0.00  0.00    +0.314 C 
BRANCH  14  16
ATOM     15  O   UNL     1     -34.447  27.700   4.115  0.00  0.00    -0.246 OA
ATOM     16  C   UNL     1     -33.927  26.697   4.581  0.00  0.00    +0.359 C 
BRANCH  16  17
ATOM     17  O   UNL     1     -32.882  26.049   4.007  0.00  0.00    -0.478 OA
ATOM     18  H   UNL     1     -32.024  26.424   4.040  0.00  0.00    +0.295 HD
ENDBRANCH  16  17
ENDBRANCH  14  16
ENDBRANCH  13  14
ENDBRANCH   4  13
TORSDOF 6
ENDMDL
MODEL 9
REMARK VINA RESULT:      -4.8      1.117      2.021
REMARK  Name = 193436
REMARK  6 active torsions:
REMARK  status: ('A' for Active; 'I' for Inactive)
REMARK    1  A    between atoms: C_1  and  S_7
REMARK    2  A    between atoms: C_4  and  O_13
REMARK    3  A    between atoms: S_7  and  N_10
REMARK    4  A    between atoms: O_13  and  C_14
REMARK    5  A    between atoms: C_14  and  C_16
REMARK    6  A    between atoms: C_16  and  O_17
REMARK                            x       y       z     vdW  Elec       q    Type
REMARK                         _______ _______ _______ _____ _____    ______ ____
ROOT
ATOM      1  C   UNL     1     -33.527  26.988   4.491  0.00  0.00    +0.122 C 
ATOM      2  C   UNL     1     -34.249  26.599   3.364  0.00  0.00    +0.023 C 
ATOM      3  C   UNL     1     -33.766  26.373   5.720  0.00  0.00    +0.023 C 
ATOM      4  C   UNL     1     -35.452  24.979   4.693  0.00  0.00    +0.139 C 
ATOM      5  C   UNL     1     -35.212  25.595   3.464  0.00  0.00    +0.038 C 
ATOM      6  C   UNL     1     -34.728  25.368   5.820  0.00  0.00    +0.038 C 
ENDROOT
BRANCH   1   7
ATOM      7  S   UNL     1     -32.321  28.245   4.366  0.00  0.00    +0.057 S 
ATOM      8  O   UNL     1     -32.969  29.528   4.592  0.00  0.00    -0.153 OA
ATOM      9  O   UNL     1     -31.170  27.863   5.172  0.00  0.00    -0.153 OA
BRANCH   7  10
ATOM     10  N   UNL     1     -31.896  28.125   2.715  0.00  0.00    -0.203 NA
ATOM     11  H   UNL     1     -31.819  29.058   2.314  0.00  0.00    +0.144 HD
ATOM     12  H   UNL     1     -32.616  27.599   2.216  0.00  0.00    +0.144 HD
ENDBRANCH   7  10
ENDBRANCH   1   7
BRANCH   4  13
ATOM     13  O   UNL     1     -36.390  23.999   4.791  0.00  0.00    -0.464 OA
BRANCH  13  14
ATOM     14  C   UNL     1     -36.101  22.756   4.151  0.00  0.00    +0.314 C 
BRANCH  14  16
ATOM     15  O   UNL     1     -34.954  20.770   4.953  0.00  0.00    -0.246 OA
ATOM     16  C   UNL     1     -35.648  21.751   5.173  0.00  0.00    +0.359 C 
BRANCH  16  17
ATOM     17  O   UNL     1     -36.119  22.085   6.401  0.00  0.00    -0.478 OA
ATOM     18  H   UNL     1     -36.069  22.974   6.696  0.00  0.00    +0.295 HD
ENDBRANCH  16  17
ENDBRANCH  14  16
ENDBRANCH  13  14
ENDBRANCH   4  13
TORSDOF 6
ENDMDL
