MODEL 1
REMARK VINA RESULT:      -7.0      0.000      0.000
REMARK  Name = 54718859
REMARK  7 active torsions:
REMARK  status: ('A' for Active; 'I' for Inactive)
REMARK    1  A    between atoms: C_6  and  C_23
REMARK    2  A    between atoms: C_8  and  C_15
REMARK    3  A    between atoms: C_9  and  O_21
REMARK    4  A    between atoms: N_14  and  C_17
REMARK    5  A    between atoms: C_17  and  C_18
REMARK    6  A    between atoms: C_18  and  O_19
REMARK    7  A    between atoms: C_23  and  C_25
REMARK                            x       y       z     vdW  Elec       q    Type
REMARK                         _______ _______ _______ _____ _____    ______ ____
ROOT
ATOM      1  O   UNL     1     -37.646  21.783   1.914  0.00  0.00    -0.267 OA
ATOM      2  N   UNL     1     -39.545  23.074   1.589  0.00  0.00    -0.292 N 
ATOM      3  N   UNL     1     -40.248  26.444   2.947  0.00  0.00    -0.240 NA
ATOM      4  C   UNL     1     -40.241  24.289   1.849  0.00  0.00    +0.083 A 
ATOM      5  C   UNL     1     -39.652  25.260   2.652  0.00  0.00    +0.131 A 
ATOM      6  C   UNL     1     -42.142  25.774   1.623  0.00  0.00    +0.003 C 
ATOM      7  C   UNL     1     -41.513  24.567   1.333  0.00  0.00    +0.017 C 
ATOM      8  C   UNL     1     -37.659  23.886   2.981  0.00  0.00    +0.144 A 
ATOM      9  C   UNL     1     -38.320  25.032   3.225  0.00  0.00    +0.162 A 
ATOM     10  C   UNL     1     -38.279  22.822   2.117  0.00  0.00    +0.268 A 
ATOM     11  C   UNL     1     -41.473  26.672   2.428  0.00  0.00    +0.095 C 
ATOM     12  C   UNL     1     -40.179  22.064   0.744  0.00  0.00    +0.134 C 
ENDROOT
BRANCH   8  15
ATOM     13  O   UNL     1     -35.328  23.638   2.834  0.00  0.00    -0.270 OA
ATOM     14  N   UNL     1     -36.354  23.462   4.920  0.00  0.00    -0.298 N 
ATOM     15  C   UNL     1     -36.319  23.651   3.554  0.00  0.00    +0.254 C 
ATOM     16  H   UNL     1     -37.225  23.497   5.378  0.00  0.00    +0.150 HD
BRANCH  14  17
ATOM     17  C   UNL     1     -35.170  23.213   5.710  0.00  0.00    +0.122 C 
BRANCH  17  18
ATOM     18  C   UNL     1     -35.275  21.908   6.478  0.00  0.00    +0.158 C 
BRANCH  18  19
ATOM     19  O   UNL     1     -35.263  20.819   5.563  0.00  0.00    -0.380 OA
ATOM     20  H   UNL     1     -36.106  20.790   5.085  0.00  0.00    +0.211 HD
ENDBRANCH  18  19
ENDBRANCH  17  18
ENDBRANCH  14  17
ENDBRANCH   8  15
BRANCH   9  21
ATOM     21  O   UNL     1     -37.865  26.080   3.997  0.00  0.00    -0.504 OA
ATOM     22  H   UNL     1     -37.509  25.915   4.848  0.00  0.00    +0.292 HD
ENDBRANCH   9  21
BRANCH   6  23
ATOM     23  C   UNL     1     -43.493  26.085   1.082  0.00  0.00    +0.054 C 
BRANCH  23  25
ATOM     24  F   UNL     1     -47.729  23.729   3.976  0.00  0.00    -0.204 F 
ATOM     25  C   UNL     1     -44.632  25.452   1.860  0.00  0.00    -0.018 C 
ATOM     26  C   UNL     1     -45.324  24.366   1.323  0.00  0.00    -0.002 C 
ATOM     27  C   UNL     1     -44.985  25.956   3.111  0.00  0.00    -0.002 C 
ATOM     28  C   UNL     1     -46.370  23.784   2.038  0.00  0.00    +0.029 C 
ATOM     29  C   UNL     1     -46.031  25.373   3.826  0.00  0.00    +0.029 C 
ATOM     30  C   UNL     1     -46.724  24.288   3.290  0.00  0.00    +0.140 C 
ENDBRANCH  23  25
ENDBRANCH   6  23
TORSDOF 7
ENDMDL
MODEL 2
REMARK VINA RESULT:      -6.7      6.978      9.327
REMARK  Name = 54718859
REMARK  7 active torsions:
REMARK  status: ('A' for Active; 'I' for Inactive)
REMARK    1  A    between atoms: C_6  and  C_23
REMARK    2  A    between atoms: C_8  and  C_15
REMARK    3  A    between atoms: C_9  and  O_21
REMARK    4  A    between atoms: N_14  and  C_17
REMARK    5  A    between atoms: C_17  and  C_18
REMARK    6  A    between atoms: C_18  and  O_19
REMARK    7  A    between atoms: C_23  and  C_25
REMARK                            x       y       z     vdW  Elec       q    Type
REMARK                         _______ _______ _______ _____ _____    ______ ____
ROOT
ATOM      1  O   UNL     1     -31.348  29.623   3.695  0.00  0.00    -0.267 OA
ATOM      2  N   UNL     1     -32.938  27.957   3.421  0.00  0.00    -0.292 N 
ATOM      3  N   UNL     1     -34.255  25.644   5.993  0.00  0.00    -0.240 NA
ATOM      4  C   UNL     1     -33.707  26.911   4.006  0.00  0.00    +0.083 A 
ATOM      5  C   UNL     1     -33.559  26.623   5.360  0.00  0.00    +0.131 A 
ATOM      6  C   UNL     1     -35.346  25.129   3.910  0.00  0.00    +0.003 C 
ATOM      7  C   UNL     1     -34.622  26.138   3.281  0.00  0.00    +0.017 C 
ATOM      8  C   UNL     1     -31.888  28.385   5.628  0.00  0.00    +0.144 A 
ATOM      9  C   UNL     1     -32.616  27.396   6.177  0.00  0.00    +0.162 A 
ATOM     10  C   UNL     1     -32.031  28.711   4.167  0.00  0.00    +0.268 A 
ATOM     11  C   UNL     1     -35.128  24.923   5.257  0.00  0.00    +0.095 C 
ATOM     12  C   UNL     1     -33.104  28.245   1.998  0.00  0.00    +0.134 C 
ENDROOT
BRANCH   8  15
ATOM     13  O   UNL     1     -31.329  29.799   7.418  0.00  0.00    -0.270 OA
ATOM     14  N   UNL     1     -29.643  29.078   5.979  0.00  0.00    -0.298 N 
ATOM     15  C   UNL     1     -30.938  29.165   6.445  0.00  0.00    +0.254 C 
ATOM     16  H   UNL     1     -29.466  28.530   5.180  0.00  0.00    +0.150 HD
BRANCH  14  17
ATOM     17  C   UNL     1     -28.533  29.755   6.610  0.00  0.00    +0.122 C 
BRANCH  17  18
ATOM     18  C   UNL     1     -27.987  28.958   7.782  0.00  0.00    +0.158 C 
BRANCH  18  19
ATOM     19  O   UNL     1     -28.482  29.507   8.996  0.00  0.00    -0.380 OA
ATOM     20  H   UNL     1     -29.324  29.082   9.223  0.00  0.00    +0.211 HD
ENDBRANCH  18  19
ENDBRANCH  17  18
ENDBRANCH  14  17
ENDBRANCH   8  15
BRANCH   9  21
ATOM     21  O   UNL     1     -32.578  26.999   7.497  0.00  0.00    -0.504 OA
ATOM     22  H   UNL     1     -31.788  26.646   7.857  0.00  0.00    +0.292 HD
ENDBRANCH   9  21
BRANCH   6  23
ATOM     23  C   UNL     1     -36.323  24.300   3.154  0.00  0.00    +0.054 C 
BRANCH  23  25
ATOM     24  F   UNL     1     -34.206  19.433   1.229  0.00  0.00    -0.204 F 
ATOM     25  C   UNL     1     -35.754  22.991   2.637  0.00  0.00    -0.018 C 
ATOM     26  C   UNL     1     -35.828  21.840   3.421  0.00  0.00    -0.002 C 
ATOM     27  C   UNL     1     -35.156  22.941   1.378  0.00  0.00    -0.002 C 
ATOM     28  C   UNL     1     -35.306  20.637   2.945  0.00  0.00    +0.029 C 
ATOM     29  C   UNL     1     -34.633  21.739   0.902  0.00  0.00    +0.029 C 
ATOM     30  C   UNL     1     -34.708  20.587   1.686  0.00  0.00    +0.140 C 
ENDBRANCH  23  25
ENDBRANCH   6  23
TORSDOF 7
ENDMDL
MODEL 3
REMARK VINA RESULT:      -6.6      5.445      8.475
REMARK  Name = 54718859
REMARK  7 active torsions:
REMARK  status: ('A' for Active; 'I' for Inactive)
REMARK    1  A    between atoms: C_6  and  C_23
REMARK    2  A    between atoms: C_8  and  C_15
REMARK    3  A    between atoms: C_9  and  O_21
REMARK    4  A    between atoms: N_14  and  C_17
REMARK    5  A    between atoms: C_17  and  C_18
REMARK    6  A    between atoms: C_18  and  O_19
REMARK    7  A    between atoms: C_23  and  C_25
REMARK                            x       y       z     vdW  Elec       q    Type
REMARK                         _______ _______ _______ _____ _____    ______ ____
ROOT
ATOM      1  O   UNL     1     -38.802  20.316  -0.298  0.00  0.00    -0.267 OA
ATOM      2  N   UNL     1     -38.174  21.880   1.294  0.00  0.00    -0.292 N 
ATOM      3  N   UNL     1     -35.201  21.792   3.498  0.00  0.00    -0.240 NA
ATOM      4  C   UNL     1     -37.240  22.282   2.292  0.00  0.00    +0.083 A 
ATOM      5  C   UNL     1     -36.136  21.480   2.563  0.00  0.00    +0.131 A 
ATOM      6  C   UNL     1     -36.428  23.801   3.995  0.00  0.00    +0.003 C 
ATOM      7  C   UNL     1     -37.374  23.463   3.033  0.00  0.00    +0.017 C 
ATOM      8  C   UNL     1     -36.815  19.846   0.879  0.00  0.00    +0.144 A 
ATOM      9  C   UNL     1     -35.936  20.229   1.823  0.00  0.00    +0.162 A 
ATOM     10  C   UNL     1     -38.016  20.697   0.571  0.00  0.00    +0.268 A 
ATOM     11  C   UNL     1     -35.368  22.940   4.188  0.00  0.00    +0.095 C 
ATOM     12  C   UNL     1     -39.329  22.733   1.023  0.00  0.00    +0.134 C 
ENDROOT
BRANCH   8  15
ATOM     13  O   UNL     1     -35.677  18.466  -0.644  0.00  0.00    -0.270 OA
ATOM     14  N   UNL     1     -37.585  17.646   0.418  0.00  0.00    -0.298 N 
ATOM     15  C   UNL     1     -36.619  18.589   0.131  0.00  0.00    +0.254 C 
ATOM     16  H   UNL     1     -38.290  17.877   1.065  0.00  0.00    +0.150 HD
BRANCH  14  17
ATOM     17  C   UNL     1     -37.608  16.335  -0.190  0.00  0.00    +0.122 C 
BRANCH  17  18
ATOM     18  C   UNL     1     -38.895  16.100  -0.960  0.00  0.00    +0.158 C 
BRANCH  18  19
ATOM     19  O   UNL     1     -39.638  17.311  -1.019  0.00  0.00    -0.380 OA
ATOM     20  H   UNL     1     -39.303  17.861  -1.744  0.00  0.00    +0.211 HD
ENDBRANCH  18  19
ENDBRANCH  17  18
ENDBRANCH  14  17
ENDBRANCH   8  15
BRANCH   9  21
ATOM     21  O   UNL     1     -34.801  19.541   2.199  0.00  0.00    -0.504 OA
ATOM     22  H   UNL     1     -34.863  18.828   2.803  0.00  0.00    +0.292 HD
ENDBRANCH   9  21
BRANCH   6  23
ATOM     23  C   UNL     1     -36.555  25.053   4.790  0.00  0.00    +0.054 C 
BRANCH  23  25
ATOM     24  F   UNL     1     -31.885  28.225   4.849  0.00  0.00    -0.204 F 
ATOM     25  C   UNL     1     -35.300  25.906   4.806  0.00  0.00    -0.018 C 
ATOM     26  C   UNL     1     -34.944  26.644   3.677  0.00  0.00    -0.002 C 
ATOM     27  C   UNL     1     -34.503  25.950   5.949  0.00  0.00    -0.002 C 
ATOM     28  C   UNL     1     -33.791  27.428   3.692  0.00  0.00    +0.029 C 
ATOM     29  C   UNL     1     -33.349  26.735   5.964  0.00  0.00    +0.029 C 
ATOM     30  C   UNL     1     -32.993  27.473   4.835  0.00  0.00    +0.140 C 
ENDBRANCH  23  25
ENDBRANCH   6  23
TORSDOF 7
ENDMDL
MODEL 4
REMARK VINA RESULT:      -6.4      7.325      9.053
REMARK  Name = 54718859
REMARK  7 active torsions:
REMARK  status: ('A' for Active; 'I' for Inactive)
REMARK    1  A    between atoms: C_6  and  C_23
REMARK    2  A    between atoms: C_8  and  C_15
REMARK    3  A    between atoms: C_9  and  O_21
REMARK    4  A    between atoms: N_14  and  C_17
REMARK    5  A    between atoms: C_17  and  C_18
REMARK    6  A    between atoms: C_18  and  O_19
REMARK    7  A    between atoms: C_23  and  C_25
REMARK                            x       y       z     vdW  Elec       q    Type
REMARK                         _______ _______ _______ _____ _____    ______ ____
ROOT
ATOM      1  O   UNL     1     -34.305  25.822   6.025  0.00  0.00    -0.267 OA
ATOM      2  N   UNL     1     -34.919  24.042   4.670  0.00  0.00    -0.292 N 
ATOM      3  N   UNL     1     -34.928  23.917   0.970  0.00  0.00    -0.240 NA
ATOM      4  C   UNL     1     -35.088  23.528   3.352  0.00  0.00    +0.083 A 
ATOM      5  C   UNL     1     -34.794  24.333   2.256  0.00  0.00    +0.131 A 
ATOM      6  C   UNL     1     -35.688  21.783   1.782  0.00  0.00    +0.003 C 
ATOM      7  C   UNL     1     -35.543  22.229   3.092  0.00  0.00    +0.017 C 
ATOM      8  C   UNL     1     -34.151  26.194   3.702  0.00  0.00    +0.144 A 
ATOM      9  C   UNL     1     -34.312  25.704   2.460  0.00  0.00    +0.162 A 
ATOM     10  C   UNL     1     -34.463  25.341   4.901  0.00  0.00    +0.268 A 
ATOM     11  C   UNL     1     -35.369  22.658   0.764  0.00  0.00    +0.095 C 
ATOM     12  C   UNL     1     -35.232  23.184   5.810  0.00  0.00    +0.134 C 
ENDROOT
BRANCH   8  15
ATOM     13  O   UNL     1     -34.233  28.519   3.379  0.00  0.00    -0.270 OA
ATOM     14  N   UNL     1     -32.562  27.625   4.738  0.00  0.00    -0.298 N 
ATOM     15  C   UNL     1     -33.666  27.573   3.912  0.00  0.00    +0.254 C 
ATOM     16  H   UNL     1     -32.205  26.783   5.101  0.00  0.00    +0.150 HD
BRANCH  14  17
ATOM     17  C   UNL     1     -31.905  28.863   5.093  0.00  0.00    +0.122 C 
BRANCH  17  18
ATOM     18  C   UNL     1     -31.773  29.013   6.598  0.00  0.00    +0.158 C 
BRANCH  18  19
ATOM     19  O   UNL     1     -32.460  27.946   7.240  0.00  0.00    -0.380 OA
ATOM     20  H   UNL     1     -33.346  27.854   6.856  0.00  0.00    +0.211 HD
ENDBRANCH  18  19
ENDBRANCH  17  18
ENDBRANCH  14  17
ENDBRANCH   8  15
BRANCH   9  21
ATOM     21  O   UNL     1     -34.064  26.381   1.284  0.00  0.00    -0.504 OA
ATOM     22  H   UNL     1     -33.204  26.375   0.912  0.00  0.00    +0.292 HD
ENDBRANCH   9  21
BRANCH   6  23
ATOM     23  C   UNL     1     -36.170  20.406   1.488  0.00  0.00    +0.054 C 
BRANCH  23  25
ATOM     24  F   UNL     1     -32.093  16.827  -0.077  0.00  0.00    -0.204 F 
ATOM     25  C   UNL     1     -35.074  19.445   1.068  0.00  0.00    -0.018 C 
ATOM     26  C   UNL     1     -33.857  19.432   1.750  0.00  0.00    -0.002 C 
ATOM     27  C   UNL     1     -35.284  18.574  -0.001  0.00  0.00    -0.002 C 
ATOM     28  C   UNL     1     -32.850  18.547   1.363  0.00  0.00    +0.029 C 
ATOM     29  C   UNL     1     -34.277  17.689  -0.388  0.00  0.00    +0.029 C 
ATOM     30  C   UNL     1     -33.060  17.676   0.295  0.00  0.00    +0.140 C 
ENDBRANCH  23  25
ENDBRANCH   6  23
TORSDOF 7
ENDMDL
MODEL 5
REMARK VINA RESULT:      -6.4      4.721      8.709
REMARK  Name = 54718859
REMARK  7 active torsions:
REMARK  status: ('A' for Active; 'I' for Inactive)
REMARK    1  A    between atoms: C_6  and  C_23
REMARK    2  A    between atoms: C_8  and  C_15
REMARK    3  A    between atoms: C_9  and  O_21
REMARK    4  A    between atoms: N_14  and  C_17
REMARK    5  A    between atoms: C_17  and  C_18
REMARK    6  A    between atoms: C_18  and  O_19
REMARK    7  A    between atoms: C_23  and  C_25
REMARK                            x       y       z     vdW  Elec       q    Type
REMARK                         _______ _______ _______ _____ _____    ______ ____
ROOT
ATOM      1  O   UNL     1     -41.071  23.457   0.847  0.00  0.00    -0.267 OA
ATOM      2  N   UNL     1     -39.189  23.390   2.199  0.00  0.00    -0.292 N 
ATOM      3  N   UNL     1     -36.480  20.867   2.181  0.00  0.00    -0.240 NA
ATOM      4  C   UNL     1     -37.983  22.724   2.562  0.00  0.00    +0.083 A 
ATOM      5  C   UNL     1     -37.614  21.560   1.895  0.00  0.00    +0.131 A 
ATOM      6  C   UNL     1     -35.965  22.489   3.881  0.00  0.00    +0.003 C 
ATOM      7  C   UNL     1     -37.131  23.184   3.573  0.00  0.00    +0.017 C 
ATOM      8  C   UNL     1     -39.602  21.650   0.479  0.00  0.00    +0.144 A 
ATOM      9  C   UNL     1     -38.463  21.024   0.825  0.00  0.00    +0.162 A 
ATOM     10  C   UNL     1     -40.021  22.909   1.188  0.00  0.00    +0.268 A 
ATOM     11  C   UNL     1     -35.687  21.346   3.162  0.00  0.00    +0.095 C 
ATOM     12  C   UNL     1     -39.563  24.611   2.910  0.00  0.00    +0.134 C 
ENDROOT
BRANCH   8  15
ATOM     13  O   UNL     1     -39.997  20.895  -1.710  0.00  0.00    -0.270 OA
ATOM     14  N   UNL     1     -41.762  20.919  -0.186  0.00  0.00    -0.298 N 
ATOM     15  C   UNL     1     -40.460  21.116  -0.597  0.00  0.00    +0.254 C 
ATOM     16  H   UNL     1     -42.002  21.140   0.743  0.00  0.00    +0.150 HD
BRANCH  14  17
ATOM     17  C   UNL     1     -42.792  20.404  -1.060  0.00  0.00    +0.122 C 
BRANCH  17  18
ATOM     18  C   UNL     1     -44.078  20.125  -0.303  0.00  0.00    +0.158 C 
BRANCH  18  19
ATOM     19  O   UNL     1     -43.786  19.350   0.854  0.00  0.00    -0.380 OA
ATOM     20  H   UNL     1     -44.415  18.614   0.917  0.00  0.00    +0.211 HD
ENDBRANCH  18  19
ENDBRANCH  17  18
ENDBRANCH  14  17
ENDBRANCH   8  15
BRANCH   9  21
ATOM     21  O   UNL     1     -37.970  19.868   0.258  0.00  0.00    -0.504 OA
ATOM     22  H   UNL     1     -37.553  19.898  -0.581  0.00  0.00    +0.292 HD
ENDBRANCH   9  21
BRANCH   6  23
ATOM     23  C   UNL     1     -35.048  22.965   4.952  0.00  0.00    +0.054 C 
BRANCH  23  25
ATOM     24  F   UNL     1     -32.954  28.132   4.060  0.00  0.00    -0.204 F 
ATOM     25  C   UNL     1     -34.486  24.354   4.712  0.00  0.00    -0.018 C 
ATOM     26  C   UNL     1     -34.410  25.267   5.764  0.00  0.00    -0.002 C 
ATOM     27  C   UNL     1     -34.044  24.717   3.440  0.00  0.00    -0.002 C 
ATOM     28  C   UNL     1     -33.892  26.544   5.544  0.00  0.00    +0.029 C 
ATOM     29  C   UNL     1     -33.526  25.993   3.220  0.00  0.00    +0.029 C 
ATOM     30  C   UNL     1     -33.451  26.906   4.272  0.00  0.00    +0.140 C 
ENDBRANCH  23  25
ENDBRANCH   6  23
TORSDOF 7
ENDMDL
MODEL 6
REMARK VINA RESULT:      -6.4      3.108      4.299
REMARK  Name = 54718859
REMARK  7 active torsions:
REMARK  status: ('A' for Active; 'I' for Inactive)
REMARK    1  A    between atoms: C_6  and  C_23
REMARK    2  A    between atoms: C_8  and  C_15
REMARK    3  A    between atoms: C_9  and  O_21
REMARK    4  A    between atoms: N_14  and  C_17
REMARK    5  A    between atoms: C_17  and  C_18
REMARK    6  A    between atoms: C_18  and  O_19
REMARK    7  A    between atoms: C_23  and  C_25
REMARK                            x       y       z     vdW  Elec       q    Type
REMARK                         _______ _______ _______ _____ _____    ______ ____
ROOT
ATOM      1  O   UNL     1     -34.382  27.842   2.820  0.00  0.00    -0.267 OA
ATOM      2  N   UNL     1     -36.511  27.139   2.226  0.00  0.00    -0.292 N 
ATOM      3  N   UNL     1     -38.469  24.368   3.705  0.00  0.00    -0.240 NA
ATOM      4  C   UNL     1     -37.591  26.237   2.445  0.00  0.00    +0.083 A 
ATOM      5  C   UNL     1     -37.485  25.264   3.434  0.00  0.00    +0.131 A 
ATOM      6  C   UNL     1     -39.799  25.364   1.964  0.00  0.00    +0.003 C 
ATOM      7  C   UNL     1     -38.779  26.273   1.703  0.00  0.00    +0.017 C 
ATOM      8  C   UNL     1     -35.244  26.022   4.044  0.00  0.00    +0.144 A 
ATOM      9  C   UNL     1     -36.267  25.171   4.247  0.00  0.00    +0.162 A 
ATOM     10  C   UNL     1     -35.337  27.080   2.980  0.00  0.00    +0.268 A 
ATOM     11  C   UNL     1     -39.598  24.438   2.967  0.00  0.00    +0.095 C 
ATOM     12  C   UNL     1     -36.638  28.154   1.183  0.00  0.00    +0.134 C 
ENDROOT
BRANCH   8  15
ATOM     13  O   UNL     1     -33.388  24.884   4.925  0.00  0.00    -0.270 OA
ATOM     14  N   UNL     1     -33.711  27.124   5.487  0.00  0.00    -0.298 N 
ATOM     15  C   UNL     1     -34.017  25.934   4.859  0.00  0.00    +0.254 C 
ATOM     16  H   UNL     1     -34.307  27.896   5.348  0.00  0.00    +0.150 HD
BRANCH  14  17
ATOM     17  C   UNL     1     -32.557  27.288   6.341  0.00  0.00    +0.122 C 
BRANCH  17  18
ATOM     18  C   UNL     1     -31.845  28.602   6.071  0.00  0.00    +0.158 C 
BRANCH  18  19
ATOM     19  O   UNL     1     -32.544  29.318   5.060  0.00  0.00    -0.380 OA
ATOM     20  H   UNL     1     -32.279  28.987   4.188  0.00  0.00    +0.211 HD
ENDBRANCH  18  19
ENDBRANCH  17  18
ENDBRANCH  14  17
ENDBRANCH   8  15
BRANCH   9  21
ATOM     21  O   UNL     1     -36.306  24.161   5.185  0.00  0.00    -0.504 OA
ATOM     22  H   UNL     1     -35.572  23.587   5.286  0.00  0.00    +0.292 HD
ENDBRANCH   9  21
BRANCH   6  23
ATOM     23  C   UNL     1     -41.067  25.390   1.187  0.00  0.00    +0.054 C 
BRANCH  23  25
ATOM     24  F   UNL     1     -45.556  27.080   4.165  0.00  0.00    -0.204 F 
ATOM     25  C   UNL     1     -42.274  25.844   1.987  0.00  0.00    -0.018 C 
ATOM     26  C   UNL     1     -43.555  25.443   1.607  0.00  0.00    -0.002 C 
ATOM     27  C   UNL     1     -42.102  26.663   3.103  0.00  0.00    -0.002 C 
ATOM     28  C   UNL     1     -44.664  25.860   2.343  0.00  0.00    +0.029 C 
ATOM     29  C   UNL     1     -43.211  27.080   3.839  0.00  0.00    +0.029 C 
ATOM     30  C   UNL     1     -44.491  26.679   3.458  0.00  0.00    +0.140 C 
ENDBRANCH  23  25
ENDBRANCH   6  23
TORSDOF 7
ENDMDL
MODEL 7
REMARK VINA RESULT:      -6.4      4.458      8.630
REMARK  Name = 54718859
REMARK  7 active torsions:
REMARK  status: ('A' for Active; 'I' for Inactive)
REMARK    1  A    between atoms: C_6  and  C_23
REMARK    2  A    between atoms: C_8  and  C_15
REMARK    3  A    between atoms: C_9  and  O_21
REMARK    4  A    between atoms: N_14  and  C_17
REMARK    5  A    between atoms: C_17  and  C_18
REMARK    6  A    between atoms: C_18  and  O_19
REMARK    7  A    between atoms: C_23  and  C_25
REMARK                            x       y       z     vdW  Elec       q    Type
REMARK                         _______ _______ _______ _____ _____    ______ ____
ROOT
ATOM      1  O   UNL     1     -41.688  24.002   0.722  0.00  0.00    -0.267 OA
ATOM      2  N   UNL     1     -39.759  22.919   1.418  0.00  0.00    -0.292 N 
ATOM      3  N   UNL     1     -37.115  24.226   3.654  0.00  0.00    -0.240 NA
ATOM      4  C   UNL     1     -38.557  22.961   2.180  0.00  0.00    +0.083 A 
ATOM      5  C   UNL     1     -38.240  24.107   2.903  0.00  0.00    +0.131 A 
ATOM      6  C   UNL     1     -36.497  21.992   3.008  0.00  0.00    +0.003 C 
ATOM      7  C   UNL     1     -37.655  21.891   2.245  0.00  0.00    +0.017 C 
ATOM      8  C   UNL     1     -40.279  25.229   2.160  0.00  0.00    +0.144 A 
ATOM      9  C   UNL     1     -39.142  25.264   2.879  0.00  0.00    +0.162 A 
ATOM     10  C   UNL     1     -40.640  24.001   1.371  0.00  0.00    +0.268 A 
ATOM     11  C   UNL     1     -36.274  23.170   3.690  0.00  0.00    +0.095 C 
ATOM     12  C   UNL     1     -40.076  21.708   0.664  0.00  0.00    +0.134 C 
ENDROOT
BRANCH   8  15
ATOM     13  O   UNL     1     -40.839  27.444   1.614  0.00  0.00    -0.270 OA
ATOM     14  N   UNL     1     -42.404  26.125   2.733  0.00  0.00    -0.298 N 
ATOM     15  C   UNL     1     -41.190  26.390   2.132  0.00  0.00    +0.254 C 
ATOM     16  H   UNL     1     -42.555  25.229   3.112  0.00  0.00    +0.150 HD
BRANCH  14  17
ATOM     17  C   UNL     1     -43.462  27.105   2.831  0.00  0.00    +0.122 C 
BRANCH  17  18
ATOM     18  C   UNL     1     -43.315  27.962   4.076  0.00  0.00    +0.158 C 
BRANCH  18  19
ATOM     19  O   UNL     1     -42.304  28.939   3.859  0.00  0.00    -0.380 OA
ATOM     20  H   UNL     1     -42.506  29.733   4.377  0.00  0.00    +0.211 HD
ENDBRANCH  18  19
ENDBRANCH  17  18
ENDBRANCH  14  17
ENDBRANCH   8  15
BRANCH   9  21
ATOM     21  O   UNL     1     -38.698  26.325   3.640  0.00  0.00    -0.504 OA
ATOM     22  H   UNL     1     -37.808  26.353   3.930  0.00  0.00    +0.292 HD
ENDBRANCH   9  21
BRANCH   6  23
ATOM     23  C   UNL     1     -35.529  20.864   3.088  0.00  0.00    +0.054 C 
BRANCH  23  25
ATOM     24  F   UNL     1     -32.201  20.364  -1.446  0.00  0.00    -0.204 F 
ATOM     25  C   UNL     1     -34.635  20.729   1.869  0.00  0.00    -0.018 C 
ATOM     26  C   UNL     1     -34.424  21.827   1.034  0.00  0.00    -0.002 C 
ATOM     27  C   UNL     1     -34.024  19.508   1.584  0.00  0.00    -0.002 C 
ATOM     28  C   UNL     1     -33.601  21.704  -0.085  0.00  0.00    +0.029 C 
ATOM     29  C   UNL     1     -33.202  19.385   0.465  0.00  0.00    +0.029 C 
ATOM     30  C   UNL     1     -32.991  20.482  -0.370  0.00  0.00    +0.140 C 
ENDBRANCH  23  25
ENDBRANCH   6  23
TORSDOF 7
ENDMDL
MODEL 8
REMARK VINA RESULT:      -6.2      6.512      8.778
REMARK  Name = 54718859
REMARK  7 active torsions:
REMARK  status: ('A' for Active; 'I' for Inactive)
REMARK    1  A    between atoms: C_6  and  C_23
REMARK    2  A    between atoms: C_8  and  C_15
REMARK    3  A    between atoms: C_9  and  O_21
REMARK    4  A    between atoms: N_14  and  C_17
REMARK    5  A    between atoms: C_17  and  C_18
REMARK    6  A    between atoms: C_18  and  O_19
REMARK    7  A    between atoms: C_23  and  C_25
REMARK                            x       y       z     vdW  Elec       q    Type
REMARK                         _______ _______ _______ _____ _____    ______ ____
ROOT
ATOM      1  O   UNL     1     -33.234  20.646  -0.631  0.00  0.00    -0.267 OA
ATOM      2  N   UNL     1     -34.052  22.414   0.627  0.00  0.00    -0.292 N 
ATOM      3  N   UNL     1     -36.726  22.320   3.186  0.00  0.00    -0.240 NA
ATOM      4  C   UNL     1     -34.961  22.870   1.625  0.00  0.00    +0.083 A 
ATOM      5  C   UNL     1     -35.831  21.966   2.227  0.00  0.00    +0.131 A 
ATOM      6  C   UNL     1     -35.939  24.588   3.025  0.00  0.00    +0.003 C 
ATOM      7  C   UNL     1     -35.030  24.204   2.044  0.00  0.00    +0.017 C 
ATOM      8  C   UNL     1     -34.954  20.117   0.892  0.00  0.00    +0.144 A 
ATOM      9  C   UNL     1     -35.810  20.552   1.834  0.00  0.00    +0.162 A 
ATOM     10  C   UNL     1     -34.005  21.078   0.229  0.00  0.00    +0.268 A 
ATOM     11  C   UNL     1     -36.758  23.617   3.561  0.00  0.00    +0.095 C 
ATOM     12  C   UNL     1     -33.146  23.376   0.005  0.00  0.00    +0.134 C 
ENDROOT
BRANCH   8  15
ATOM     13  O   UNL     1     -35.912  18.177  -0.022  0.00  0.00    -0.270 OA
ATOM     14  N   UNL     1     -33.720  18.091   0.770  0.00  0.00    -0.298 N 
ATOM     15  C   UNL     1     -34.928  18.697   0.494  0.00  0.00    +0.254 C 
ATOM     16  H   UNL     1     -33.009  18.628   1.189  0.00  0.00    +0.150 HD
BRANCH  14  17
ATOM     17  C   UNL     1     -33.451  16.702   0.473  0.00  0.00    +0.122 C 
BRANCH  17  18
ATOM     18  C   UNL     1     -32.150  16.538  -0.294  0.00  0.00    +0.158 C 
BRANCH  18  19
ATOM     19  O   UNL     1     -31.330  15.584   0.368  0.00  0.00    -0.380 OA
ATOM     20  H   UNL     1     -31.354  15.746   1.324  0.00  0.00    +0.211 HD
ENDBRANCH  18  19
ENDBRANCH  17  18
ENDBRANCH  14  17
ENDBRANCH   8  15
BRANCH   9  21
ATOM     21  O   UNL     1     -36.727  19.778   2.514  0.00  0.00    -0.504 OA
ATOM     22  H   UNL     1     -37.257  19.161   2.049  0.00  0.00    +0.292 HD
ENDBRANCH   9  21
BRANCH   6  23
ATOM     23  C   UNL     1     -36.024  26.002   3.481  0.00  0.00    +0.054 C 
BRANCH  23  25
ATOM     24  F   UNL     1     -31.594  27.701   6.542  0.00  0.00    -0.204 F 
ATOM     25  C   UNL     1     -34.833  26.459   4.304  0.00  0.00    -0.018 C 
ATOM     26  C   UNL     1     -34.663  25.987   5.606  0.00  0.00    -0.002 C 
ATOM     27  C   UNL     1     -33.910  27.350   3.758  0.00  0.00    -0.002 C 
ATOM     28  C   UNL     1     -33.569  26.407   6.361  0.00  0.00    +0.029 C 
ATOM     29  C   UNL     1     -32.816  27.769   4.514  0.00  0.00    +0.029 C 
ATOM     30  C   UNL     1     -32.645  27.298   5.815  0.00  0.00    +0.140 C 
ENDBRANCH  23  25
ENDBRANCH   6  23
TORSDOF 7
ENDMDL
MODEL 9
REMARK VINA RESULT:      -6.2      6.479      8.460
REMARK  Name = 54718859
REMARK  7 active torsions:
REMARK  status: ('A' for Active; 'I' for Inactive)
REMARK    1  A    between atoms: C_6  and  C_23
REMARK    2  A    between atoms: C_8  and  C_15
REMARK    3  A    between atoms: C_9  and  O_21
REMARK    4  A    between atoms: N_14  and  C_17
REMARK    5  A    between atoms: C_17  and  C_18
REMARK    6  A    between atoms: C_18  and  O_19
REMARK    7  A    between atoms: C_23  and  C_25
REMARK                            x       y       z     vdW  Elec       q    Type
REMARK                         _______ _______ _______ _____ _____    ______ ____
ROOT
ATOM      1  O   UNL     1     -32.311  28.524   2.505  0.00  0.00    -0.267 OA
ATOM      2  N   UNL     1     -33.835  26.778   2.588  0.00  0.00    -0.292 N 
ATOM      3  N   UNL     1     -35.059  24.988   5.588  0.00  0.00    -0.240 NA
ATOM      4  C   UNL     1     -34.562  25.844   3.381  0.00  0.00    +0.083 A 
ATOM      5  C   UNL     1     -34.402  25.844   4.763  0.00  0.00    +0.131 A 
ATOM      6  C   UNL     1     -36.131  24.020   3.663  0.00  0.00    +0.003 C 
ATOM      7  C   UNL     1     -35.448  24.906   2.836  0.00  0.00    +0.017 C 
ATOM      8  C   UNL     1     -32.800  27.685   4.653  0.00  0.00    +0.144 A 
ATOM      9  C   UNL     1     -33.489  26.801   5.398  0.00  0.00    +0.162 A 
ATOM     10  C   UNL     1     -32.958  27.702   3.157  0.00  0.00    +0.268 A 
ATOM     11  C   UNL     1     -35.904  24.100   5.021  0.00  0.00    +0.095 C 
ATOM     12  C   UNL     1     -34.014  26.764   1.138  0.00  0.00    +0.134 C 
ENDROOT
BRANCH   8  15
ATOM     13  O   UNL     1     -32.316  29.560   5.982  0.00  0.00    -0.270 OA
ATOM     14  N   UNL     1     -30.557  28.390   4.995  0.00  0.00    -0.298 N 
ATOM     15  C   UNL     1     -31.881  28.650   5.286  0.00  0.00    +0.254 C 
ATOM     16  H   UNL     1     -30.345  27.620   4.418  0.00  0.00    +0.150 HD
BRANCH  14  17
ATOM     17  C   UNL     1     -29.468  29.196   5.498  0.00  0.00    +0.122 C 
BRANCH  17  18
ATOM     18  C   UNL     1     -28.681  28.463   6.569  0.00  0.00    +0.158 C 
BRANCH  18  19
ATOM     19  O   UNL     1     -29.363  27.266   6.921  0.00  0.00    -0.380 OA
ATOM     20  H   UNL     1     -30.297  27.464   7.088  0.00  0.00    +0.211 HD
ENDBRANCH  18  19
ENDBRANCH  17  18
ENDBRANCH  14  17
ENDBRANCH   8  15
BRANCH   9  21
ATOM     21  O   UNL     1     -33.434  26.682   6.770  0.00  0.00    -0.504 OA
ATOM     22  H   UNL     1     -32.709  26.247   7.174  0.00  0.00    +0.292 HD
ENDBRANCH   9  21
BRANCH   6  23
ATOM     23  C   UNL     1     -37.076  23.018   3.100  0.00  0.00    +0.054 C 
BRANCH  23  25
ATOM     24  F   UNL     1     -34.587  18.961   0.063  0.00  0.00    -0.204 F 
ATOM     25  C   UNL     1     -36.407  21.927   2.284  0.00  0.00    -0.018 C 
ATOM     26  C   UNL     1     -36.748  21.752   0.942  0.00  0.00    -0.002 C 
ATOM     27  C   UNL     1     -35.452  21.101   2.876  0.00  0.00    -0.002 C 
ATOM     28  C   UNL     1     -36.132  20.750   0.192  0.00  0.00    +0.029 C 
ATOM     29  C   UNL     1     -34.837  20.099   2.125  0.00  0.00    +0.029 C 
ATOM     30  C   UNL     1     -35.177  19.924   0.784  0.00  0.00    +0.140 C 
ENDBRANCH  23  25
ENDBRANCH   6  23
TORSDOF 7
ENDMDL
