MODEL 1
REMARK VINA RESULT:      -6.4      0.000      0.000
REMARK  Name = 6011878
REMARK  3 active torsions:
REMARK  status: ('A' for Active; 'I' for Inactive)
REMARK    1  A    between atoms: N_1  and  C_16
REMARK    2  A    between atoms: C_2  and  C_10
REMARK    3  A    between atoms: C_21  and  N_24
REMARK                            x       y       z     vdW  Elec       q    Type
REMARK                         _______ _______ _______ _____ _____    ______ ____
ROOT
ATOM      1  N   UNL     1     -38.164  24.772   3.024  0.00  0.00    -0.264 N 
ATOM      2  C   UNL     1     -38.427  23.468   2.655  0.00  0.00    +0.057 C 
ATOM      3  C   UNL     1     -39.299  25.525   2.807  0.00  0.00    +0.070 C 
ATOM      4  C   UNL     1     -39.727  23.398   2.205  0.00  0.00    +0.017 C 
ATOM      5  C   UNL     1     -40.279  24.700   2.302  0.00  0.00    +0.018 C 
ENDROOT
BRANCH   2  10
ATOM      6  S   UNL     1     -38.230  18.827  -0.730  0.00  0.00    -0.018 S 
ATOM      7  O   UNL     1     -35.276  20.373   3.022  0.00  0.00    -0.268 OA
ATOM      8  N   UNL     1     -38.063  20.912   1.014  0.00  0.00    -0.292 N 
ATOM      9  N   UNL     1     -36.446  19.378   1.244  0.00  0.00    -0.263 N 
ATOM     10  C   UNL     1     -37.422  22.490   2.779  0.00  0.00    +0.034 C 
ATOM     11  C   UNL     1     -37.264  21.340   2.037  0.00  0.00    +0.105 C 
ATOM     12  C   UNL     1     -36.179  20.333   2.207  0.00  0.00    +0.264 C 
ATOM     13  C   UNL     1     -37.577  19.706   0.512  0.00  0.00    +0.141 C 
ATOM     14  H   UNL     1     -38.862  21.384   0.682  0.00  0.00    +0.154 HD
ATOM     15  H   UNL     1     -35.904  18.570   1.096  0.00  0.00    +0.157 HD
ENDBRANCH   2  10
BRANCH   1  16
ATOM     16  C   UNL     1     -36.980  25.278   3.529  0.00  0.00    +0.056 C 
ATOM     17  C   UNL     1     -36.068  25.900   2.676  0.00  0.00    +0.017 C 
ATOM     18  C   UNL     1     -36.696  25.165   4.890  0.00  0.00    +0.017 C 
ATOM     19  C   UNL     1     -34.873  26.409   3.184  0.00  0.00    +0.025 C 
ATOM     20  C   UNL     1     -35.501  25.675   5.397  0.00  0.00    +0.025 C 
ATOM     21  C   UNL     1     -34.589  26.296   4.545  0.00  0.00    +0.143 C 
BRANCH  21  24
ATOM     22  O   UNL     1     -32.427  27.049   4.272  0.00  0.00    -0.126 OA
ATOM     23  O   UNL     1     -33.277  27.022   6.295  0.00  0.00    -0.126 OA
ATOM     24  N   UNL     1     -33.373  26.814   5.062  0.00  0.00    +0.058 N 
ENDBRANCH  21  24
ENDBRANCH   1  16
TORSDOF 3
ENDMDL
MODEL 2
REMARK VINA RESULT:      -6.3      4.030      6.735
REMARK  Name = 6011878
REMARK  3 active torsions:
REMARK  status: ('A' for Active; 'I' for Inactive)
REMARK    1  A    between atoms: N_1  and  C_16
REMARK    2  A    between atoms: C_2  and  C_10
REMARK    3  A    between atoms: C_21  and  N_24
REMARK                            x       y       z     vdW  Elec       q    Type
REMARK                         _______ _______ _______ _____ _____    ______ ____
ROOT
ATOM      1  N   UNL     1     -35.549  21.133   0.438  0.00  0.00    -0.264 N 
ATOM      2  C   UNL     1     -36.326  21.567   1.493  0.00  0.00    +0.057 C 
ATOM      3  C   UNL     1     -36.187  21.463  -0.740  0.00  0.00    +0.070 C 
ATOM      4  C   UNL     1     -37.453  22.172   0.982  0.00  0.00    +0.017 C 
ATOM      5  C   UNL     1     -37.365  22.107  -0.431  0.00  0.00    +0.018 C 
ENDROOT
BRANCH   2  10
ATOM      6  S   UNL     1     -35.935  25.823   5.336  0.00  0.00    -0.018 S 
ATOM      7  O   UNL     1     -34.973  20.907   5.662  0.00  0.00    -0.268 OA
ATOM      8  N   UNL     1     -36.018  23.614   3.745  0.00  0.00    -0.292 N 
ATOM      9  N   UNL     1     -35.327  23.223   5.841  0.00  0.00    -0.263 N 
ATOM     10  C   UNL     1     -35.896  21.348   2.816  0.00  0.00    +0.034 C 
ATOM     11  C   UNL     1     -35.758  22.275   3.825  0.00  0.00    +0.105 C 
ATOM     12  C   UNL     1     -35.296  21.992   5.213  0.00  0.00    +0.264 C 
ATOM     13  C   UNL     1     -35.758  24.217   4.975  0.00  0.00    +0.141 C 
ATOM     14  H   UNL     1     -36.338  24.083   2.940  0.00  0.00    +0.154 HD
ATOM     15  H   UNL     1     -35.075  23.376   6.780  0.00  0.00    +0.157 HD
ENDBRANCH   2  10
BRANCH   1  16
ATOM     16  C   UNL     1     -34.335  20.474   0.506  0.00  0.00    +0.056 C 
ATOM     17  C   UNL     1     -34.263  19.201   1.072  0.00  0.00    +0.017 C 
ATOM     18  C   UNL     1     -33.182  21.082   0.011  0.00  0.00    +0.017 C 
ATOM     19  C   UNL     1     -33.039  18.536   1.142  0.00  0.00    +0.025 C 
ATOM     20  C   UNL     1     -31.958  20.418   0.081  0.00  0.00    +0.025 C 
ATOM     21  C   UNL     1     -31.885  19.146   0.647  0.00  0.00    +0.143 C 
BRANCH  21  24
ATOM     22  O   UNL     1     -30.549  17.432   1.418  0.00  0.00    -0.126 OA
ATOM     23  O   UNL     1     -29.661  18.929   0.081  0.00  0.00    -0.126 OA
ATOM     24  N   UNL     1     -30.639  18.470   0.718  0.00  0.00    +0.058 N 
ENDBRANCH  21  24
ENDBRANCH   1  16
TORSDOF 3
ENDMDL
MODEL 3
REMARK VINA RESULT:      -6.2      3.093      4.187
REMARK  Name = 6011878
REMARK  3 active torsions:
REMARK  status: ('A' for Active; 'I' for Inactive)
REMARK    1  A    between atoms: N_1  and  C_16
REMARK    2  A    between atoms: C_2  and  C_10
REMARK    3  A    between atoms: C_21  and  N_24
REMARK                            x       y       z     vdW  Elec       q    Type
REMARK                         _______ _______ _______ _____ _____    ______ ____
ROOT
ATOM      1  N   UNL     1     -35.813  23.385   4.488  0.00  0.00    -0.264 N 
ATOM      2  C   UNL     1     -35.731  22.057   4.123  0.00  0.00    +0.057 C 
ATOM      3  C   UNL     1     -35.400  23.505   5.799  0.00  0.00    +0.070 C 
ATOM      4  C   UNL     1     -35.266  21.338   5.202  0.00  0.00    +0.017 C 
ATOM      5  C   UNL     1     -35.056  22.254   6.262  0.00  0.00    +0.018 C 
ENDROOT
BRANCH   2  10
ATOM      6  S   UNL     1     -32.771  18.135   1.142  0.00  0.00    -0.018 S 
ATOM      7  O   UNL     1     -36.874  20.803   0.028  0.00  0.00    -0.268 OA
ATOM      8  N   UNL     1     -34.365  20.014   2.302  0.00  0.00    -0.292 N 
ATOM      9  N   UNL     1     -34.988  19.417   0.234  0.00  0.00    -0.263 N 
ATOM     10  C   UNL     1     -36.102  21.664   2.822  0.00  0.00    +0.034 C 
ATOM     11  C   UNL     1     -35.481  20.744   2.008  0.00  0.00    +0.105 C 
ATOM     12  C   UNL     1     -35.914  20.362   0.633  0.00  0.00    +0.264 C 
ATOM     13  C   UNL     1     -34.044  19.190   1.224  0.00  0.00    +0.141 C 
ATOM     14  H   UNL     1     -33.863  20.062   3.148  0.00  0.00    +0.154 HD
ATOM     15  H   UNL     1     -34.997  18.963  -0.639  0.00  0.00    +0.157 HD
ENDBRANCH   2  10
BRANCH   1  16
ATOM     16  C   UNL     1     -36.234  24.445   3.705  0.00  0.00    +0.056 C 
ATOM     17  C   UNL     1     -37.578  24.818   3.699  0.00  0.00    +0.017 C 
ATOM     18  C   UNL     1     -35.314  25.142   2.921  0.00  0.00    +0.017 C 
ATOM     19  C   UNL     1     -38.003  25.886   2.910  0.00  0.00    +0.025 C 
ATOM     20  C   UNL     1     -35.739  26.210   2.131  0.00  0.00    +0.025 C 
ATOM     21  C   UNL     1     -37.083  26.583   2.125  0.00  0.00    +0.143 C 
BRANCH  21  24
ATOM     22  O   UNL     1     -36.826  28.718   1.293  0.00  0.00    -0.126 OA
ATOM     23  O   UNL     1     -38.575  27.553   0.660  0.00  0.00    -0.126 OA
ATOM     24  N   UNL     1     -37.515  27.670   1.321  0.00  0.00    +0.058 N 
ENDBRANCH  21  24
ENDBRANCH   1  16
TORSDOF 3
ENDMDL
MODEL 4
REMARK VINA RESULT:      -6.1      2.843      4.220
REMARK  Name = 6011878
REMARK  3 active torsions:
REMARK  status: ('A' for Active; 'I' for Inactive)
REMARK    1  A    between atoms: N_1  and  C_16
REMARK    2  A    between atoms: C_2  and  C_10
REMARK    3  A    between atoms: C_21  and  N_24
REMARK                            x       y       z     vdW  Elec       q    Type
REMARK                         _______ _______ _______ _____ _____    ______ ____
ROOT
ATOM      1  N   UNL     1     -36.106  22.598   3.090  0.00  0.00    -0.264 N 
ATOM      2  C   UNL     1     -37.404  22.608   2.620  0.00  0.00    +0.057 C 
ATOM      3  C   UNL     1     -35.562  21.354   2.848  0.00  0.00    +0.070 C 
ATOM      4  C   UNL     1     -37.679  21.372   2.081  0.00  0.00    +0.017 C 
ATOM      5  C   UNL     1     -36.515  20.578   2.224  0.00  0.00    +0.018 C 
ENDROOT
BRANCH   2  10
ATOM      6  S   UNL     1     -37.686  26.589  -1.517  0.00  0.00    -0.018 S 
ATOM      7  O   UNL     1     -39.855  26.281   3.000  0.00  0.00    -0.268 OA
ATOM      8  N   UNL     1     -37.751  24.887   0.609  0.00  0.00    -0.292 N 
ATOM      9  N   UNL     1     -39.007  26.726   0.854  0.00  0.00    -0.263 N 
ATOM     10  C   UNL     1     -38.185  23.773   2.749  0.00  0.00    +0.034 C 
ATOM     11  C   UNL     1     -38.336  24.795   1.840  0.00  0.00    +0.105 C 
ATOM     12  C   UNL     1     -39.179  26.011   2.025  0.00  0.00    +0.264 C 
ATOM     13  C   UNL     1     -38.149  26.068  -0.014  0.00  0.00    +0.141 C 
ATOM     14  H   UNL     1     -37.138  24.220   0.221  0.00  0.00    +0.154 HD
ATOM     15  H   UNL     1     -39.437  27.590   0.662  0.00  0.00    +0.157 HD
ENDBRANCH   2  10
BRANCH   1  16
ATOM     16  C   UNL     1     -35.429  23.635   3.707  0.00  0.00    +0.056 C 
ATOM     17  C   UNL     1     -34.617  24.483   2.954  0.00  0.00    +0.017 C 
ATOM     18  C   UNL     1     -35.557  23.833   5.081  0.00  0.00    +0.017 C 
ATOM     19  C   UNL     1     -33.934  25.528   3.575  0.00  0.00    +0.025 C 
ATOM     20  C   UNL     1     -34.874  24.878   5.702  0.00  0.00    +0.025 C 
ATOM     21  C   UNL     1     -34.062  25.725   4.950  0.00  0.00    +0.143 C 
BRANCH  21  24
ATOM     22  O   UNL     1     -33.198  27.863   4.957  0.00  0.00    -0.126 OA
ATOM     23  O   UNL     1     -32.937  26.625   6.750  0.00  0.00    -0.126 OA
ATOM     24  N   UNL     1     -33.366  26.789   5.583  0.00  0.00    +0.058 N 
ENDBRANCH  21  24
ENDBRANCH   1  16
TORSDOF 3
ENDMDL
MODEL 5
REMARK VINA RESULT:      -6.0      3.123      4.166
REMARK  Name = 6011878
REMARK  3 active torsions:
REMARK  status: ('A' for Active; 'I' for Inactive)
REMARK    1  A    between atoms: N_1  and  C_16
REMARK    2  A    between atoms: C_2  and  C_10
REMARK    3  A    between atoms: C_21  and  N_24
REMARK                            x       y       z     vdW  Elec       q    Type
REMARK                         _______ _______ _______ _____ _____    ______ ____
ROOT
ATOM      1  N   UNL     1     -35.887  23.477   4.355  0.00  0.00    -0.264 N 
ATOM      2  C   UNL     1     -35.799  22.132   4.056  0.00  0.00    +0.057 C 
ATOM      3  C   UNL     1     -35.468  23.664   5.656  0.00  0.00    +0.070 C 
ATOM      4  C   UNL     1     -35.325  21.471   5.167  0.00  0.00    +0.017 C 
ATOM      5  C   UNL     1     -35.115  22.440   6.180  0.00  0.00    +0.018 C 
ENDROOT
BRANCH   2  10
ATOM      6  S   UNL     1     -32.739  18.201   1.190  0.00  0.00    -0.018 S 
ATOM      7  O   UNL     1     -36.953  20.672   0.033  0.00  0.00    -0.268 OA
ATOM      8  N   UNL     1     -34.385  20.067   2.298  0.00  0.00    -0.292 N 
ATOM      9  N   UNL     1     -35.014  19.364   0.266  0.00  0.00    -0.263 N 
ATOM     10  C   UNL     1     -36.173  21.674   2.778  0.00  0.00    +0.034 C 
ATOM     11  C   UNL     1     -35.531  20.744   1.992  0.00  0.00    +0.105 C 
ATOM     12  C   UNL     1     -35.969  20.291   0.641  0.00  0.00    +0.264 C 
ATOM     13  C   UNL     1     -34.049  19.212   1.249  0.00  0.00    +0.141 C 
ATOM     14  H   UNL     1     -33.872  20.168   3.134  0.00  0.00    +0.154 HD
ATOM     15  H   UNL     1     -35.019  18.875  -0.588  0.00  0.00    +0.157 HD
ENDBRANCH   2  10
BRANCH   1  16
ATOM     16  C   UNL     1     -36.317  24.495   3.523  0.00  0.00    +0.056 C 
ATOM     17  C   UNL     1     -35.417  25.114   2.655  0.00  0.00    +0.017 C 
ATOM     18  C   UNL     1     -37.650  24.903   3.552  0.00  0.00    +0.017 C 
ATOM     19  C   UNL     1     -35.849  26.141   1.817  0.00  0.00    +0.025 C 
ATOM     20  C   UNL     1     -38.083  25.930   2.713  0.00  0.00    +0.025 C 
ATOM     21  C   UNL     1     -37.183  26.550   1.846  0.00  0.00    +0.143 C 
BRANCH  21  24
ATOM     22  O   UNL     1     -37.124  28.739   1.124  0.00  0.00    -0.126 OA
ATOM     23  O   UNL     1     -38.502  27.348   0.132  0.00  0.00    -0.126 OA
ATOM     24  N   UNL     1     -37.624  27.595   0.993  0.00  0.00    +0.058 N 
ENDBRANCH  21  24
ENDBRANCH   1  16
TORSDOF 3
ENDMDL
MODEL 6
REMARK VINA RESULT:      -6.0      3.707      6.139
REMARK  Name = 6011878
REMARK  3 active torsions:
REMARK  status: ('A' for Active; 'I' for Inactive)
REMARK    1  A    between atoms: N_1  and  C_16
REMARK    2  A    between atoms: C_2  and  C_10
REMARK    3  A    between atoms: C_21  and  N_24
REMARK                            x       y       z     vdW  Elec       q    Type
REMARK                         _______ _______ _______ _____ _____    ______ ____
ROOT
ATOM      1  N   UNL     1     -35.223  24.350   4.289  0.00  0.00    -0.264 N 
ATOM      2  C   UNL     1     -36.282  25.189   4.570  0.00  0.00    +0.057 C 
ATOM      3  C   UNL     1     -34.142  24.739   5.053  0.00  0.00    +0.070 C 
ATOM      4  C   UNL     1     -35.871  26.107   5.511  0.00  0.00    +0.017 C 
ATOM      5  C   UNL     1     -34.517  25.822   5.817  0.00  0.00    +0.018 C 
ENDROOT
BRANCH   2  10
ATOM      6  S   UNL     1     -37.798  28.269  -0.040  0.00  0.00    -0.018 S 
ATOM      7  O   UNL     1     -40.153  24.626   2.486  0.00  0.00    -0.268 OA
ATOM      8  N   UNL     1     -37.360  26.663   2.116  0.00  0.00    -0.292 N 
ATOM      9  N   UNL     1     -39.331  26.337   1.101  0.00  0.00    -0.263 N 
ATOM     10  C   UNL     1     -37.514  25.003   3.914  0.00  0.00    +0.034 C 
ATOM     11  C   UNL     1     -37.994  25.672   2.809  0.00  0.00    +0.105 C 
ATOM     12  C   UNL     1     -39.310  25.437   2.150  0.00  0.00    +0.264 C 
ATOM     13  C   UNL     1     -38.166  27.088   1.060  0.00  0.00    +0.141 C 
ATOM     14  H   UNL     1     -36.469  27.025   2.330  0.00  0.00    +0.154 HD
ATOM     15  H   UNL     1     -40.076  26.433   0.465  0.00  0.00    +0.157 HD
ENDBRANCH   2  10
BRANCH   1  16
ATOM     16  C   UNL     1     -35.205  23.290   3.400  0.00  0.00    +0.056 C 
ATOM     17  C   UNL     1     -34.820  23.497   2.076  0.00  0.00    +0.017 C 
ATOM     18  C   UNL     1     -35.573  22.015   3.828  0.00  0.00    +0.017 C 
ATOM     19  C   UNL     1     -34.803  22.430   1.179  0.00  0.00    +0.025 C 
ATOM     20  C   UNL     1     -35.555  20.947   2.931  0.00  0.00    +0.025 C 
ATOM     21  C   UNL     1     -35.171  21.153   1.606  0.00  0.00    +0.143 C 
BRANCH  21  24
ATOM     22  O   UNL     1     -35.976  20.056  -0.254  0.00  0.00    -0.126 OA
ATOM     23  O   UNL     1     -34.318  19.146   0.860  0.00  0.00    -0.126 OA
ATOM     24  N   UNL     1     -35.154  20.067   0.693  0.00  0.00    +0.058 N 
ENDBRANCH  21  24
ENDBRANCH   1  16
TORSDOF 3
ENDMDL
MODEL 7
REMARK VINA RESULT:      -5.9      3.747      6.242
REMARK  Name = 6011878
REMARK  3 active torsions:
REMARK  status: ('A' for Active; 'I' for Inactive)
REMARK    1  A    between atoms: N_1  and  C_16
REMARK    2  A    between atoms: C_2  and  C_10
REMARK    3  A    between atoms: C_21  and  N_24
REMARK                            x       y       z     vdW  Elec       q    Type
REMARK                         _______ _______ _______ _____ _____    ______ ____
ROOT
ATOM      1  N   UNL     1     -36.268  21.337   1.197  0.00  0.00    -0.264 N 
ATOM      2  C   UNL     1     -35.385  20.955   2.187  0.00  0.00    +0.057 C 
ATOM      3  C   UNL     1     -35.839  20.803  -0.001  0.00  0.00    +0.070 C 
ATOM      4  C   UNL     1     -34.401  20.180   1.616  0.00  0.00    +0.017 C 
ATOM      5  C   UNL     1     -34.687  20.083   0.232  0.00  0.00    +0.018 C 
ENDROOT
BRANCH   2  10
ATOM      6  S   UNL     1     -34.014  26.236   3.995  0.00  0.00    -0.018 S 
ATOM      7  O   UNL     1     -36.046  22.301   6.358  0.00  0.00    -0.268 OA
ATOM      8  N   UNL     1     -34.763  23.677   3.434  0.00  0.00    -0.292 N 
ATOM      9  N   UNL     1     -35.119  24.305   5.556  0.00  0.00    -0.263 N 
ATOM     10  C   UNL     1     -35.599  21.374   3.515  0.00  0.00    +0.034 C 
ATOM     11  C   UNL     1     -35.315  22.602   4.070  0.00  0.00    +0.105 C 
ATOM     12  C   UNL     1     -35.561  22.998   5.485  0.00  0.00    +0.264 C 
ATOM     13  C   UNL     1     -34.633  24.737   4.331  0.00  0.00    +0.141 C 
ATOM     14  H   UNL     1     -34.496  23.701   2.486  0.00  0.00    +0.154 HD
ATOM     15  H   UNL     1     -35.145  24.859   6.369  0.00  0.00    +0.157 HD
ENDBRANCH   2  10
BRANCH   1  16
ATOM     16  C   UNL     1     -37.399  22.120   1.339  0.00  0.00    +0.056 C 
ATOM     17  C   UNL     1     -38.569  21.569   1.861  0.00  0.00    +0.017 C 
ATOM     18  C   UNL     1     -37.370  23.462   0.959  0.00  0.00    +0.017 C 
ATOM     19  C   UNL     1     -39.710  22.358   2.002  0.00  0.00    +0.025 C 
ATOM     20  C   UNL     1     -38.511  24.251   1.100  0.00  0.00    +0.025 C 
ATOM     21  C   UNL     1     -39.681  23.701   1.621  0.00  0.00    +0.143 C 
BRANCH  21  24
ATOM     22  O   UNL     1     -41.860  24.228   1.086  0.00  0.00    -0.126 OA
ATOM     23  O   UNL     1     -40.818  25.469   2.567  0.00  0.00    -0.126 OA
ATOM     24  N   UNL     1     -40.842  24.504   1.765  0.00  0.00    +0.058 N 
ENDBRANCH  21  24
ENDBRANCH   1  16
TORSDOF 3
ENDMDL
MODEL 8
REMARK VINA RESULT:      -5.9      3.294      6.684
REMARK  Name = 6011878
REMARK  3 active torsions:
REMARK  status: ('A' for Active; 'I' for Inactive)
REMARK    1  A    between atoms: N_1  and  C_16
REMARK    2  A    between atoms: C_2  and  C_10
REMARK    3  A    between atoms: C_21  and  N_24
REMARK                            x       y       z     vdW  Elec       q    Type
REMARK                         _______ _______ _______ _____ _____    ______ ____
ROOT
ATOM      1  N   UNL     1     -35.603  22.009   4.199  0.00  0.00    -0.264 N 
ATOM      2  C   UNL     1     -35.554  23.373   4.406  0.00  0.00    +0.057 C 
ATOM      3  C   UNL     1     -35.378  21.375   5.403  0.00  0.00    +0.070 C 
ATOM      4  C   UNL     1     -35.298  23.600   5.740  0.00  0.00    +0.017 C 
ATOM      5  C   UNL     1     -35.188  22.337   6.371  0.00  0.00    +0.018 C 
ENDROOT
BRANCH   2  10
ATOM      6  S   UNL     1     -40.625  25.875   3.375  0.00  0.00    -0.018 S 
ATOM      7  O   UNL     1     -36.206  26.144   1.009  0.00  0.00    -0.268 OA
ATOM      8  N   UNL     1     -38.114  24.843   3.608  0.00  0.00    -0.292 N 
ATOM      9  N   UNL     1     -38.388  26.237   1.875  0.00  0.00    -0.263 N 
ATOM     10  C   UNL     1     -35.752  24.252   3.324  0.00  0.00    +0.034 C 
ATOM     11  C   UNL     1     -36.908  24.911   2.970  0.00  0.00    +0.105 C 
ATOM     12  C   UNL     1     -37.067  25.834   1.811  0.00  0.00    +0.264 C 
ATOM     13  C   UNL     1     -39.040  25.652   2.950  0.00  0.00    +0.141 C 
ATOM     14  H   UNL     1     -38.302  24.304   4.411  0.00  0.00    +0.154 HD
ATOM     15  H   UNL     1     -38.811  26.858   1.239  0.00  0.00    +0.157 HD
ENDBRANCH   2  10
BRANCH   1  16
ATOM     16  C   UNL     1     -35.834  21.350   3.005  0.00  0.00    +0.056 C 
ATOM     17  C   UNL     1     -37.089  21.421   2.400  0.00  0.00    +0.017 C 
ATOM     18  C   UNL     1     -34.812  20.613   2.406  0.00  0.00    +0.017 C 
ATOM     19  C   UNL     1     -37.323  20.756   1.197  0.00  0.00    +0.025 C 
ATOM     20  C   UNL     1     -35.046  19.948   1.202  0.00  0.00    +0.025 C 
ATOM     21  C   UNL     1     -36.301  20.018   0.598  0.00  0.00    +0.143 C 
BRANCH  21  24
ATOM     22  O   UNL     1     -35.781  19.563  -1.602  0.00  0.00    -0.126 OA
ATOM     23  O   UNL     1     -37.499  18.538  -0.700  0.00  0.00    -0.126 OA
ATOM     24  N   UNL     1     -36.538  19.340  -0.627  0.00  0.00    +0.058 N 
ENDBRANCH  21  24
ENDBRANCH   1  16
TORSDOF 3
ENDMDL
MODEL 9
REMARK VINA RESULT:      -5.9      3.134      6.241
REMARK  Name = 6011878
REMARK  3 active torsions:
REMARK  status: ('A' for Active; 'I' for Inactive)
REMARK    1  A    between atoms: N_1  and  C_16
REMARK    2  A    between atoms: C_2  and  C_10
REMARK    3  A    between atoms: C_21  and  N_24
REMARK                            x       y       z     vdW  Elec       q    Type
REMARK                         _______ _______ _______ _____ _____    ______ ____
ROOT
ATOM      1  N   UNL     1     -37.533  23.190   2.456  0.00  0.00    -0.264 N 
ATOM      2  C   UNL     1     -37.497  24.288   3.291  0.00  0.00    +0.057 C 
ATOM      3  C   UNL     1     -38.834  23.003   2.036  0.00  0.00    +0.070 C 
ATOM      4  C   UNL     1     -38.773  24.795   3.398  0.00  0.00    +0.017 C 
ATOM      5  C   UNL     1     -39.619  23.983   2.604  0.00  0.00    +0.018 C 
ENDROOT
BRANCH   2  10
ATOM      6  S   UNL     1     -35.178  29.440   2.236  0.00  0.00    -0.018 S 
ATOM      7  O   UNL     1     -33.652  25.589   5.071  0.00  0.00    -0.268 OA
ATOM      8  N   UNL     1     -36.024  26.944   2.920  0.00  0.00    -0.292 N 
ATOM      9  N   UNL     1     -34.077  27.550   3.847  0.00  0.00    -0.263 N 
ATOM     10  C   UNL     1     -36.275  24.693   3.861  0.00  0.00    +0.034 C 
ATOM     11  C   UNL     1     -35.617  25.891   3.689  0.00  0.00    +0.105 C 
ATOM     12  C   UNL     1     -34.320  26.273   4.317  0.00  0.00    +0.264 C 
ATOM     13  C   UNL     1     -35.091  27.975   3.003  0.00  0.00    +0.141 C 
ATOM     14  H   UNL     1     -36.852  26.970   2.387  0.00  0.00    +0.154 HD
ATOM     15  H   UNL     1     -33.286  28.087   4.081  0.00  0.00    +0.157 HD
ENDBRANCH   2  10
BRANCH   1  16
ATOM     16  C   UNL     1     -36.472  22.386   2.081  0.00  0.00    +0.056 C 
ATOM     17  C   UNL     1     -36.208  21.208   2.779  0.00  0.00    +0.017 C 
ATOM     18  C   UNL     1     -35.665  22.754   1.005  0.00  0.00    +0.017 C 
ATOM     19  C   UNL     1     -35.138  20.398   2.402  0.00  0.00    +0.025 C 
ATOM     20  C   UNL     1     -34.594  21.944   0.627  0.00  0.00    +0.025 C 
ATOM     21  C   UNL     1     -34.330  20.766   1.325  0.00  0.00    +0.143 C 
BRANCH  21  24
ATOM     22  O   UNL     1     -33.210  18.751   1.335  0.00  0.00    -0.126 OA
ATOM     23  O   UNL     1     -32.336  20.427   0.220  0.00  0.00    -0.126 OA
ATOM     24  N   UNL     1     -33.240  19.942   0.941  0.00  0.00    +0.058 N 
ENDBRANCH  21  24
ENDBRANCH   1  16
TORSDOF 3
ENDMDL
