MODEL 1
REMARK VINA RESULT:      -6.6      0.000      0.000
REMARK  Name = 5311053
REMARK  15 active torsions:
REMARK  status: ('A' for Active; 'I' for Inactive)
REMARK    1  A    between atoms: C_1  and  C_24
REMARK    2  A    between atoms: C_2  and  C_10
REMARK    3  A    between atoms: C_3  and  O_6
REMARK    4  A    between atoms: C_4  and  O_8
REMARK    5  A    between atoms: C_11  and  C_12
REMARK    6  A    between atoms: C_12  and  O_13
REMARK    7  A    between atoms: C_12  and  C_15
REMARK    8  A    between atoms: C_15  and  O_16
REMARK    9  A    between atoms: O_16  and  C_18
REMARK   10  A    between atoms: C_24  and  C_25
REMARK   11  A    between atoms: C_26  and  C_27
REMARK   12  A    between atoms: C_27  and  C_28
REMARK   13  A    between atoms: C_28  and  C_29
REMARK   14  A    between atoms: C_29  and  C_31
REMARK   15  A    between atoms: C_31  and  O_32
REMARK                            x       y       z     vdW  Elec       q    Type
REMARK                         _______ _______ _______ _____ _____    ______ ____
ROOT
ATOM      1  C   UNL     1     -37.771  25.292   3.055  0.00  0.00    +0.038 C 
ATOM      2  C   UNL     1     -38.159  23.975   2.362  0.00  0.00    +0.051 C 
ATOM      3  C   UNL     1     -39.030  26.144   2.865  0.00  0.00    +0.114 C 
ATOM      4  C   UNL     1     -39.639  23.783   2.739  0.00  0.00    +0.117 C 
ATOM      5  C   UNL     1     -40.168  25.165   3.151  0.00  0.00    +0.059 C 
ENDROOT
BRANCH   3   6
ATOM      6  O   UNL     1     -39.144  26.662   1.545  0.00  0.00    -0.384 OA
ATOM      7  H   UNL     1     -39.337  27.612   1.586  0.00  0.00    +0.210 HD
ENDBRANCH   3   6
BRANCH   4   8
ATOM      8  O   UNL     1     -40.371  23.305   1.617  0.00  0.00    -0.384 OA
ATOM      9  H   UNL     1     -40.337  22.336   1.597  0.00  0.00    +0.210 HD
ENDBRANCH   4   8
BRANCH   2  10
ATOM     10  C   UNL     1     -37.315  22.810   2.776  0.00  0.00    -0.026 C 
ATOM     11  C   UNL     1     -36.727  21.971   1.912  0.00  0.00    +0.002 C 
BRANCH  11  12
ATOM     12  C   UNL     1     -35.882  20.800   2.330  0.00  0.00    +0.176 C 
BRANCH  12  13
ATOM     13  O   UNL     1     -36.759  19.786   2.813  0.00  0.00    -0.376 OA
ATOM     14  H   UNL     1     -37.153  20.074   3.652  0.00  0.00    +0.211 HD
ENDBRANCH  12  13
BRANCH  12  15
ATOM     15  C   UNL     1     -35.074  20.244   1.159  0.00  0.00    +0.239 C 
BRANCH  15  16
ATOM     16  O   UNL     1     -34.233  19.192   1.607  0.00  0.00    -0.472 OA
BRANCH  16  18
ATOM     17 CL   UNL     1     -30.595  21.499  -1.102  0.00  0.00    -0.082 Cl
ATOM     18  C   UNL     1     -32.966  19.145   1.084  0.00  0.00    +0.140 C 
ATOM     19  C   UNL     1     -32.487  20.221   0.345  0.00  0.00    +0.048 C 
ATOM     20  C   UNL     1     -32.176  18.022   1.297  0.00  0.00    +0.037 C 
ATOM     21  C   UNL     1     -31.199  20.172  -0.187  0.00  0.00    +0.061 C 
ATOM     22  C   UNL     1     -30.888  17.974   0.765  0.00  0.00    +0.004 C 
ATOM     23  C   UNL     1     -30.399  19.049   0.024  0.00  0.00    +0.012 C 
ENDBRANCH  16  18
ENDBRANCH  15  16
ENDBRANCH  12  15
ENDBRANCH  11  12
ENDBRANCH   2  10
BRANCH   1  24
ATOM     24  C   UNL     1     -36.512  25.931   2.485  0.00  0.00    +0.028 C 
BRANCH  24  25
ATOM     25  C   UNL     1     -35.755  26.865   3.388  0.00  0.00    -0.031 C 
ATOM     26  C   UNL     1     -34.706  26.564   4.170  0.00  0.00    -0.031 C 
BRANCH  26  27
ATOM     27  C   UNL     1     -34.106  25.192   4.265  0.00  0.00    +0.026 C 
BRANCH  27  28
ATOM     28  C   UNL     1     -34.799  24.286   5.291  0.00  0.00    +0.016 C 
BRANCH  28  29
ATOM     29  C   UNL     1     -34.447  22.801   5.149  0.00  0.00    +0.110 C 
BRANCH  29  31
ATOM     30  O   UNL     1     -36.198  22.232   6.743  0.00  0.00    -0.250 OA
ATOM     31  C   UNL     1     -35.379  21.880   5.905  0.00  0.00    +0.314 C 
BRANCH  31  32
ATOM     32  O   UNL     1     -35.173  20.577   5.576  0.00  0.00    -0.480 OA
ATOM     33  H   UNL     1     -35.884  19.969   5.603  0.00  0.00    +0.295 HD
ENDBRANCH  31  32
ENDBRANCH  29  31
ENDBRANCH  28  29
ENDBRANCH  27  28
ENDBRANCH  26  27
ENDBRANCH  24  25
ENDBRANCH   1  24
TORSDOF 15
ENDMDL
MODEL 2
REMARK VINA RESULT:      -6.4      4.358      8.739
REMARK  Name = 5311053
REMARK  15 active torsions:
REMARK  status: ('A' for Active; 'I' for Inactive)
REMARK    1  A    between atoms: C_1  and  C_24
REMARK    2  A    between atoms: C_2  and  C_10
REMARK    3  A    between atoms: C_3  and  O_6
REMARK    4  A    between atoms: C_4  and  O_8
REMARK    5  A    between atoms: C_11  and  C_12
REMARK    6  A    between atoms: C_12  and  O_13
REMARK    7  A    between atoms: C_12  and  C_15
REMARK    8  A    between atoms: C_15  and  O_16
REMARK    9  A    between atoms: O_16  and  C_18
REMARK   10  A    between atoms: C_24  and  C_25
REMARK   11  A    between atoms: C_26  and  C_27
REMARK   12  A    between atoms: C_27  and  C_28
REMARK   13  A    between atoms: C_28  and  C_29
REMARK   14  A    between atoms: C_29  and  C_31
REMARK   15  A    between atoms: C_31  and  O_32
REMARK                            x       y       z     vdW  Elec       q    Type
REMARK                         _______ _______ _______ _____ _____    ______ ____
ROOT
ATOM      1  C   UNL     1     -36.626  22.128   1.919  0.00  0.00    +0.038 C 
ATOM      2  C   UNL     1     -38.029  22.382   2.494  0.00  0.00    +0.051 C 
ATOM      3  C   UNL     1     -36.744  20.693   1.395  0.00  0.00    +0.114 C 
ATOM      4  C   UNL     1     -38.969  21.692   1.490  0.00  0.00    +0.117 C 
ATOM      5  C   UNL     1     -38.116  20.672   0.722  0.00  0.00    +0.059 C 
ENDROOT
BRANCH   3   6
ATOM      6  O   UNL     1     -36.690  19.725   2.436  0.00  0.00    -0.384 OA
ATOM      7  H   UNL     1     -36.727  20.173   3.296  0.00  0.00    +0.210 HD
ENDBRANCH   3   6
BRANCH   4   8
ATOM      8  O   UNL     1     -40.014  21.017   2.181  0.00  0.00    -0.384 OA
ATOM      9  H   UNL     1     -40.391  20.331   1.609  0.00  0.00    +0.210 HD
ENDBRANCH   4   8
BRANCH   2  10
ATOM     10  C   UNL     1     -38.352  23.835   2.664  0.00  0.00    -0.026 C 
ATOM     11  C   UNL     1     -39.574  24.297   2.963  0.00  0.00    +0.002 C 
BRANCH  11  12
ATOM     12  C   UNL     1     -39.896  25.756   3.131  0.00  0.00    +0.176 C 
BRANCH  12  13
ATOM     13  O   UNL     1     -38.669  26.444   3.361  0.00  0.00    -0.376 OA
ATOM     14  H   UNL     1     -38.374  26.862   2.537  0.00  0.00    +0.211 HD
ENDBRANCH  12  13
BRANCH  12  15
ATOM     15  C   UNL     1     -40.564  26.331   1.884  0.00  0.00    +0.239 C 
BRANCH  15  16
ATOM     16  O   UNL     1     -41.575  27.254   2.257  0.00  0.00    -0.472 OA
BRANCH  16  18
ATOM     17 CL   UNL     1     -45.387  26.846   5.603  0.00  0.00    -0.082 Cl
ATOM     18  C   UNL     1     -42.808  26.735   2.557  0.00  0.00    +0.140 C 
ATOM     19  C   UNL     1     -43.396  27.024   3.783  0.00  0.00    +0.048 C 
ATOM     20  C   UNL     1     -43.456  25.924   1.633  0.00  0.00    +0.037 C 
ATOM     21  C   UNL     1     -44.650  26.494   4.089  0.00  0.00    +0.061 C 
ATOM     22  C   UNL     1     -44.710  25.396   1.938  0.00  0.00    +0.004 C 
ATOM     23  C   UNL     1     -45.308  25.681   3.165  0.00  0.00    +0.012 C 
ENDBRANCH  16  18
ENDBRANCH  15  16
ENDBRANCH  12  15
ENDBRANCH  11  12
ENDBRANCH   2  10
BRANCH   1  24
ATOM     24  C   UNL     1     -35.510  22.314   2.937  0.00  0.00    +0.028 C 
BRANCH  24  25
ATOM     25  C   UNL     1     -35.765  21.800   4.327  0.00  0.00    -0.031 C 
ATOM     26  C   UNL     1     -35.542  22.443   5.484  0.00  0.00    -0.031 C 
BRANCH  26  27
ATOM     27  C   UNL     1     -34.981  23.832   5.567  0.00  0.00    +0.026 C 
BRANCH  27  28
ATOM     28  C   UNL     1     -36.024  24.934   5.341  0.00  0.00    +0.016 C 
BRANCH  28  29
ATOM     29  C   UNL     1     -35.424  26.293   4.968  0.00  0.00    +0.110 C 
BRANCH  29  31
ATOM     30  O   UNL     1     -34.354  25.880   2.820  0.00  0.00    -0.250 OA
ATOM     31  C   UNL     1     -35.195  26.470   3.482  0.00  0.00    +0.314 C 
BRANCH  31  32
ATOM     32  O   UNL     1     -36.020  27.415   2.957  0.00  0.00    -0.480 OA
ATOM     33  H   UNL     1     -35.711  27.980   2.277  0.00  0.00    +0.295 HD
ENDBRANCH  31  32
ENDBRANCH  29  31
ENDBRANCH  28  29
ENDBRANCH  27  28
ENDBRANCH  26  27
ENDBRANCH  24  25
ENDBRANCH   1  24
TORSDOF 15
ENDMDL
MODEL 3
REMARK VINA RESULT:      -6.4      4.433      9.072
REMARK  Name = 5311053
REMARK  15 active torsions:
REMARK  status: ('A' for Active; 'I' for Inactive)
REMARK    1  A    between atoms: C_1  and  C_24
REMARK    2  A    between atoms: C_2  and  C_10
REMARK    3  A    between atoms: C_3  and  O_6
REMARK    4  A    between atoms: C_4  and  O_8
REMARK    5  A    between atoms: C_11  and  C_12
REMARK    6  A    between atoms: C_12  and  O_13
REMARK    7  A    between atoms: C_12  and  C_15
REMARK    8  A    between atoms: C_15  and  O_16
REMARK    9  A    between atoms: O_16  and  C_18
REMARK   10  A    between atoms: C_24  and  C_25
REMARK   11  A    between atoms: C_26  and  C_27
REMARK   12  A    between atoms: C_27  and  C_28
REMARK   13  A    between atoms: C_28  and  C_29
REMARK   14  A    between atoms: C_29  and  C_31
REMARK   15  A    between atoms: C_31  and  O_32
REMARK                            x       y       z     vdW  Elec       q    Type
REMARK                         _______ _______ _______ _____ _____    ______ ____
ROOT
ATOM      1  C   UNL     1     -36.626  22.103   1.903  0.00  0.00    +0.038 C 
ATOM      2  C   UNL     1     -37.953  22.333   2.644  0.00  0.00    +0.051 C 
ATOM      3  C   UNL     1     -36.821  20.704   1.311  0.00  0.00    +0.114 C 
ATOM      4  C   UNL     1     -39.008  21.712   1.711  0.00  0.00    +0.117 C 
ATOM      5  C   UNL     1     -38.259  20.734   0.794  0.00  0.00    +0.059 C 
ENDROOT
BRANCH   3   6
ATOM      6  O   UNL     1     -36.667  19.675   2.281  0.00  0.00    -0.384 OA
ATOM      7  H   UNL     1     -37.085  18.861   1.958  0.00  0.00    +0.210 HD
ENDBRANCH   3   6
BRANCH   4   8
ATOM      8  O   UNL     1     -39.979  21.005   2.473  0.00  0.00    -0.384 OA
ATOM      9  H   UNL     1     -40.622  21.632   2.841  0.00  0.00    +0.210 HD
ENDBRANCH   4   8
BRANCH   2  10
ATOM     10  C   UNL     1     -38.235  23.775   2.934  0.00  0.00    -0.026 C 
ATOM     11  C   UNL     1     -39.466  24.303   2.965  0.00  0.00    +0.002 C 
BRANCH  11  12
ATOM     12  C   UNL     1     -39.746  25.752   3.254  0.00  0.00    +0.176 C 
BRANCH  12  13
ATOM     13  O   UNL     1     -38.662  26.513   2.727  0.00  0.00    -0.376 OA
ATOM     14  H   UNL     1     -38.152  25.965   2.111  0.00  0.00    +0.211 HD
ENDBRANCH  12  13
BRANCH  12  15
ATOM     15  C   UNL     1     -41.046  26.215   2.600  0.00  0.00    +0.239 C 
BRANCH  15  16
ATOM     16  O   UNL     1     -41.362  27.530   3.029  0.00  0.00    -0.472 OA
BRANCH  16  18
ATOM     17 CL   UNL     1     -44.227  30.445   6.060  0.00  0.00    -0.082 Cl
ATOM     18  C   UNL     1     -42.541  27.693   3.710  0.00  0.00    +0.140 C 
ATOM     19  C   UNL     1     -42.754  28.851   4.449  0.00  0.00    +0.048 C 
ATOM     20  C   UNL     1     -43.510  26.698   3.655  0.00  0.00    +0.037 C 
ATOM     21  C   UNL     1     -43.953  29.016   5.143  0.00  0.00    +0.061 C 
ATOM     22  C   UNL     1     -44.709  26.863   4.348  0.00  0.00    +0.004 C 
ATOM     23  C   UNL     1     -44.931  28.022   5.091  0.00  0.00    +0.012 C 
ENDBRANCH  16  18
ENDBRANCH  15  16
ENDBRANCH  12  15
ENDBRANCH  11  12
ENDBRANCH   2  10
BRANCH   1  24
ATOM     24  C   UNL     1     -35.402  22.219   2.801  0.00  0.00    +0.028 C 
BRANCH  24  25
ATOM     25  C   UNL     1     -35.425  21.439   4.086  0.00  0.00    -0.031 C 
ATOM     26  C   UNL     1     -35.494  21.933   5.333  0.00  0.00    -0.031 C 
BRANCH  26  27
ATOM     27  C   UNL     1     -35.560  23.399   5.644  0.00  0.00    +0.026 C 
BRANCH  27  28
ATOM     28  C   UNL     1     -34.304  24.175   5.228  0.00  0.00    +0.016 C 
BRANCH  28  29
ATOM     29  C   UNL     1     -34.476  25.697   5.248  0.00  0.00    +0.110 C 
BRANCH  29  31
ATOM     30  O   UNL     1     -35.703  26.237   3.214  0.00  0.00    -0.250 OA
ATOM     31  C   UNL     1     -35.656  26.187   4.436  0.00  0.00    +0.314 C 
BRANCH  31  32
ATOM     32  O   UNL     1     -36.669  26.618   5.232  0.00  0.00    -0.480 OA
ATOM     33  H   UNL     1     -36.518  27.304   5.851  0.00  0.00    +0.295 HD
ENDBRANCH  31  32
ENDBRANCH  29  31
ENDBRANCH  28  29
ENDBRANCH  27  28
ENDBRANCH  26  27
ENDBRANCH  24  25
ENDBRANCH   1  24
TORSDOF 15
ENDMDL
MODEL 4
REMARK VINA RESULT:      -6.3      2.856      3.829
REMARK  Name = 5311053
REMARK  15 active torsions:
REMARK  status: ('A' for Active; 'I' for Inactive)
REMARK    1  A    between atoms: C_1  and  C_24
REMARK    2  A    between atoms: C_2  and  C_10
REMARK    3  A    between atoms: C_3  and  O_6
REMARK    4  A    between atoms: C_4  and  O_8
REMARK    5  A    between atoms: C_11  and  C_12
REMARK    6  A    between atoms: C_12  and  O_13
REMARK    7  A    between atoms: C_12  and  C_15
REMARK    8  A    between atoms: C_15  and  O_16
REMARK    9  A    between atoms: O_16  and  C_18
REMARK   10  A    between atoms: C_24  and  C_25
REMARK   11  A    between atoms: C_26  and  C_27
REMARK   12  A    between atoms: C_27  and  C_28
REMARK   13  A    between atoms: C_28  and  C_29
REMARK   14  A    between atoms: C_29  and  C_31
REMARK   15  A    between atoms: C_31  and  O_32
REMARK                            x       y       z     vdW  Elec       q    Type
REMARK                         _______ _______ _______ _____ _____    ______ ____
ROOT
ATOM      1  C   UNL     1     -34.338  25.385   3.595  0.00  0.00    +0.038 C 
ATOM      2  C   UNL     1     -35.591  24.540   3.317  0.00  0.00    +0.051 C 
ATOM      3  C   UNL     1     -34.893  26.517   4.465  0.00  0.00    +0.114 C 
ATOM      4  C   UNL     1     -36.363  24.576   4.648  0.00  0.00    +0.117 C 
ATOM      5  C   UNL     1     -35.843  25.797   5.422  0.00  0.00    +0.059 C 
ENDROOT
BRANCH   3   6
ATOM      6  O   UNL     1     -35.602  27.490   3.707  0.00  0.00    -0.384 OA
ATOM      7  H   UNL     1     -35.153  27.629   2.859  0.00  0.00    +0.210 HD
ENDBRANCH   3   6
BRANCH   4   8
ATOM      8  O   UNL     1     -37.756  24.724   4.403  0.00  0.00    -0.384 OA
ATOM      9  H   UNL     1     -38.215  24.901   5.239  0.00  0.00    +0.210 HD
ENDBRANCH   4   8
BRANCH   2  10
ATOM     10  C   UNL     1     -35.285  23.141   2.879  0.00  0.00    -0.026 C 
ATOM     11  C   UNL     1     -35.821  22.049   3.442  0.00  0.00    +0.002 C 
BRANCH  11  12
ATOM     12  C   UNL     1     -35.510  20.646   3.002  0.00  0.00    +0.176 C 
BRANCH  12  13
ATOM     13  O   UNL     1     -36.750  19.965   2.825  0.00  0.00    -0.376 OA
ATOM     14  H   UNL     1     -36.855  19.298   3.522  0.00  0.00    +0.211 HD
ENDBRANCH  12  13
BRANCH  12  15
ATOM     15  C   UNL     1     -34.738  20.628   1.685  0.00  0.00    +0.239 C 
BRANCH  15  16
ATOM     16  O   UNL     1     -34.263  19.317   1.419  0.00  0.00    -0.472 OA
BRANCH  16  18
ATOM     17 CL   UNL     1     -30.347  21.425  -1.053  0.00  0.00    -0.082 Cl
ATOM     18  C   UNL     1     -32.970  19.204   0.979  0.00  0.00    +0.140 C 
ATOM     19  C   UNL     1     -32.390  20.251   0.271  0.00  0.00    +0.048 C 
ATOM     20  C   UNL     1     -32.253  18.043   1.243  0.00  0.00    +0.037 C 
ATOM     21  C   UNL     1     -31.074  20.135  -0.178  0.00  0.00    +0.061 C 
ATOM     22  C   UNL     1     -30.937  17.928   0.795  0.00  0.00    +0.004 C 
ATOM     23  C   UNL     1     -30.347  18.974   0.085  0.00  0.00    +0.012 C 
ENDBRANCH  16  18
ENDBRANCH  15  16
ENDBRANCH  12  15
ENDBRANCH  11  12
ENDBRANCH   2  10
BRANCH   1  24
ATOM     24  C   UNL     1     -33.642  25.874   2.332  0.00  0.00    +0.028 C 
BRANCH  24  25
ATOM     25  C   UNL     1     -32.161  26.118   2.424  0.00  0.00    -0.031 C 
ATOM     26  C   UNL     1     -31.542  27.298   2.583  0.00  0.00    -0.031 C 
BRANCH  26  27
ATOM     27  C   UNL     1     -32.266  28.608   2.698  0.00  0.00    +0.026 C 
BRANCH  27  28
ATOM     28  C   UNL     1     -32.426  29.099   4.142  0.00  0.00    +0.016 C 
BRANCH  28  29
ATOM     29  C   UNL     1     -31.352  28.575   5.101  0.00  0.00    +0.110 C 
BRANCH  29  31
ATOM     30  O   UNL     1     -32.426  27.052   6.669  0.00  0.00    -0.250 OA
ATOM     31  C   UNL     1     -31.896  28.131   6.441  0.00  0.00    +0.314 C 
BRANCH  31  32
ATOM     32  O   UNL     1     -31.770  29.105   7.381  0.00  0.00    -0.480 OA
ATOM     33  H   UNL     1     -32.527  29.571   7.677  0.00  0.00    +0.295 HD
ENDBRANCH  31  32
ENDBRANCH  29  31
ENDBRANCH  28  29
ENDBRANCH  27  28
ENDBRANCH  26  27
ENDBRANCH  24  25
ENDBRANCH   1  24
TORSDOF 15
ENDMDL
MODEL 5
REMARK VINA RESULT:      -6.3      3.518      7.323
REMARK  Name = 5311053
REMARK  15 active torsions:
REMARK  status: ('A' for Active; 'I' for Inactive)
REMARK    1  A    between atoms: C_1  and  C_24
REMARK    2  A    between atoms: C_2  and  C_10
REMARK    3  A    between atoms: C_3  and  O_6
REMARK    4  A    between atoms: C_4  and  O_8
REMARK    5  A    between atoms: C_11  and  C_12
REMARK    6  A    between atoms: C_12  and  O_13
REMARK    7  A    between atoms: C_12  and  C_15
REMARK    8  A    between atoms: C_15  and  O_16
REMARK    9  A    between atoms: O_16  and  C_18
REMARK   10  A    between atoms: C_24  and  C_25
REMARK   11  A    between atoms: C_26  and  C_27
REMARK   12  A    between atoms: C_27  and  C_28
REMARK   13  A    between atoms: C_28  and  C_29
REMARK   14  A    between atoms: C_29  and  C_31
REMARK   15  A    between atoms: C_31  and  O_32
REMARK                            x       y       z     vdW  Elec       q    Type
REMARK                         _______ _______ _______ _____ _____    ______ ____
ROOT
ATOM      1  C   UNL     1     -36.528  22.053   1.954  0.00  0.00    +0.038 C 
ATOM      2  C   UNL     1     -37.928  22.384   2.495  0.00  0.00    +0.051 C 
ATOM      3  C   UNL     1     -36.708  20.624   1.434  0.00  0.00    +0.114 C 
ATOM      4  C   UNL     1     -38.880  21.738   1.473  0.00  0.00    +0.117 C 
ATOM      5  C   UNL     1     -38.063  20.670   0.729  0.00  0.00    +0.059 C 
ENDROOT
BRANCH   3   6
ATOM      6  O   UNL     1     -36.729  19.660   2.480  0.00  0.00    -0.384 OA
ATOM      7  H   UNL     1     -37.344  18.947   2.251  0.00  0.00    +0.210 HD
ENDBRANCH   3   6
BRANCH   4   8
ATOM      8  O   UNL     1     -39.973  21.123   2.143  0.00  0.00    -0.384 OA
ATOM      9  H   UNL     1     -40.489  20.600   1.509  0.00  0.00    +0.210 HD
ENDBRANCH   4   8
BRANCH   2  10
ATOM     10  C   UNL     1     -38.178  23.852   2.650  0.00  0.00    -0.026 C 
ATOM     11  C   UNL     1     -37.669  24.786   1.834  0.00  0.00    +0.002 C 
BRANCH  11  12
ATOM     12  C   UNL     1     -37.920  26.260   1.994  0.00  0.00    +0.176 C 
BRANCH  12  13
ATOM     13  O   UNL     1     -38.431  26.470   3.308  0.00  0.00    -0.376 OA
ATOM     14  H   UNL     1     -38.231  27.376   3.590  0.00  0.00    +0.211 HD
ENDBRANCH  12  13
BRANCH  12  15
ATOM     15  C   UNL     1     -36.637  27.070   1.822  0.00  0.00    +0.239 C 
BRANCH  15  16
ATOM     16  O   UNL     1     -36.946  28.371   1.348  0.00  0.00    -0.472 OA
BRANCH  16  18
ATOM     17 CL   UNL     1     -32.735  29.790   3.826  0.00  0.00    -0.082 Cl
ATOM     18  C   UNL     1     -36.122  29.390   1.752  0.00  0.00    +0.140 C 
ATOM     19  C   UNL     1     -34.984  29.100   2.495  0.00  0.00    +0.048 C 
ATOM     20  C   UNL     1     -36.436  30.702   1.417  0.00  0.00    +0.037 C 
ATOM     21  C   UNL     1     -34.147  30.138   2.907  0.00  0.00    +0.061 C 
ATOM     22  C   UNL     1     -35.598  31.738   1.828  0.00  0.00    +0.004 C 
ATOM     23  C   UNL     1     -34.454  31.456   2.572  0.00  0.00    +0.012 C 
ENDBRANCH  16  18
ENDBRANCH  15  16
ENDBRANCH  12  15
ENDBRANCH  11  12
ENDBRANCH   2  10
BRANCH   1  24
ATOM     24  C   UNL     1     -35.426  22.186   2.997  0.00  0.00    +0.028 C 
BRANCH  24  25
ATOM     25  C   UNL     1     -35.778  21.805   4.408  0.00  0.00    -0.031 C 
ATOM     26  C   UNL     1     -35.523  22.505   5.525  0.00  0.00    -0.031 C 
BRANCH  26  27
ATOM     27  C   UNL     1     -34.818  23.830   5.533  0.00  0.00    +0.026 C 
BRANCH  27  28
ATOM     28  C   UNL     1     -35.768  25.034   5.576  0.00  0.00    +0.016 C 
BRANCH  28  29
ATOM     29  C   UNL     1     -35.227  26.280   4.869  0.00  0.00    +0.110 C 
BRANCH  29  31
ATOM     30  O   UNL     1     -32.885  26.263   4.202  0.00  0.00    -0.250 OA
ATOM     31  C   UNL     1     -33.738  26.484   5.050  0.00  0.00    +0.314 C 
BRANCH  31  32
ATOM     32  O   UNL     1     -33.440  26.911   6.305  0.00  0.00    -0.480 OA
ATOM     33  H   UNL     1     -34.117  26.988   6.947  0.00  0.00    +0.295 HD
ENDBRANCH  31  32
ENDBRANCH  29  31
ENDBRANCH  28  29
ENDBRANCH  27  28
ENDBRANCH  26  27
ENDBRANCH  24  25
ENDBRANCH   1  24
TORSDOF 15
ENDMDL
MODEL 6
REMARK VINA RESULT:      -6.2      3.387      6.048
REMARK  Name = 5311053
REMARK  15 active torsions:
REMARK  status: ('A' for Active; 'I' for Inactive)
REMARK    1  A    between atoms: C_1  and  C_24
REMARK    2  A    between atoms: C_2  and  C_10
REMARK    3  A    between atoms: C_3  and  O_6
REMARK    4  A    between atoms: C_4  and  O_8
REMARK    5  A    between atoms: C_11  and  C_12
REMARK    6  A    between atoms: C_12  and  O_13
REMARK    7  A    between atoms: C_12  and  C_15
REMARK    8  A    between atoms: C_15  and  O_16
REMARK    9  A    between atoms: O_16  and  C_18
REMARK   10  A    between atoms: C_24  and  C_25
REMARK   11  A    between atoms: C_26  and  C_27
REMARK   12  A    between atoms: C_27  and  C_28
REMARK   13  A    between atoms: C_28  and  C_29
REMARK   14  A    between atoms: C_29  and  C_31
REMARK   15  A    between atoms: C_31  and  O_32
REMARK                            x       y       z     vdW  Elec       q    Type
REMARK                         _______ _______ _______ _____ _____    ______ ____
ROOT
ATOM      1  C   UNL     1     -36.596  22.218   1.967  0.00  0.00    +0.038 C 
ATOM      2  C   UNL     1     -37.968  22.488   2.607  0.00  0.00    +0.051 C 
ATOM      3  C   UNL     1     -36.720  20.755   1.532  0.00  0.00    +0.114 C 
ATOM      4  C   UNL     1     -38.952  21.730   1.699  0.00  0.00    +0.117 C 
ATOM      5  C   UNL     1     -38.128  20.678   0.942  0.00  0.00    +0.059 C 
ENDROOT
BRANCH   3   6
ATOM      6  O   UNL     1     -36.592  19.849   2.621  0.00  0.00    -0.384 OA
ATOM      7  H   UNL     1     -37.385  19.898   3.177  0.00  0.00    +0.210 HD
ENDBRANCH   3   6
BRANCH   4   8
ATOM      8  O   UNL     1     -39.945  21.083   2.487  0.00  0.00    -0.384 OA
ATOM      9  H   UNL     1     -40.278  21.698   3.158  0.00  0.00    +0.210 HD
ENDBRANCH   4   8
BRANCH   2  10
ATOM     10  C   UNL     1     -38.303  23.944   2.713  0.00  0.00    -0.026 C 
ATOM     11  C   UNL     1     -38.632  24.711   1.665  0.00  0.00    +0.002 C 
BRANCH  11  12
ATOM     12  C   UNL     1     -38.966  26.173   1.774  0.00  0.00    +0.176 C 
BRANCH  12  13
ATOM     13  O   UNL     1     -39.119  26.479   3.157  0.00  0.00    -0.376 OA
ATOM     14  H   UNL     1     -39.771  27.189   3.261  0.00  0.00    +0.211 HD
ENDBRANCH  12  13
BRANCH  12  15
ATOM     15  C   UNL     1     -37.858  27.048   1.189  0.00  0.00    +0.239 C 
BRANCH  15  16
ATOM     16  O   UNL     1     -36.901  27.351   2.192  0.00  0.00    -0.472 OA
BRANCH  16  18
ATOM     17 CL   UNL     1     -32.148  29.127   1.816  0.00  0.00    -0.082 Cl
ATOM     18  C   UNL     1     -35.587  27.102   1.891  0.00  0.00    +0.140 C 
ATOM     19  C   UNL     1     -34.651  28.124   1.996  0.00  0.00    +0.048 C 
ATOM     20  C   UNL     1     -35.206  25.829   1.481  0.00  0.00    +0.037 C 
ATOM     21  C   UNL     1     -33.314  27.869   1.688  0.00  0.00    +0.061 C 
ATOM     22  C   UNL     1     -33.869  25.575   1.175  0.00  0.00    +0.004 C 
ATOM     23  C   UNL     1     -32.923  26.595   1.279  0.00  0.00    +0.012 C 
ENDBRANCH  16  18
ENDBRANCH  15  16
ENDBRANCH  12  15
ENDBRANCH  11  12
ENDBRANCH   2  10
BRANCH   1  24
ATOM     24  C   UNL     1     -35.426  22.477   2.907  0.00  0.00    +0.028 C 
BRANCH  24  25
ATOM     25  C   UNL     1     -35.708  22.393   4.382  0.00  0.00    -0.031 C 
ATOM     26  C   UNL     1     -35.751  23.408   5.259  0.00  0.00    -0.031 C 
BRANCH  26  27
ATOM     27  C   UNL     1     -35.513  24.841   4.883  0.00  0.00    +0.026 C 
BRANCH  27  28
ATOM     28  C   UNL     1     -34.056  25.290   5.056  0.00  0.00    +0.016 C 
BRANCH  28  29
ATOM     29  C   UNL     1     -33.827  26.213   6.256  0.00  0.00    +0.110 C 
BRANCH  29  31
ATOM     30  O   UNL     1     -32.854  28.137   5.123  0.00  0.00    -0.250 OA
ATOM     31  C   UNL     1     -32.796  27.293   6.006  0.00  0.00    +0.314 C 
BRANCH  31  32
ATOM     32  O   UNL     1     -31.747  27.194   6.865  0.00  0.00    -0.480 OA
ATOM     33  H   UNL     1     -30.962  26.759   6.597  0.00  0.00    +0.295 HD
ENDBRANCH  31  32
ENDBRANCH  29  31
ENDBRANCH  28  29
ENDBRANCH  27  28
ENDBRANCH  26  27
ENDBRANCH  24  25
ENDBRANCH   1  24
TORSDOF 15
ENDMDL
MODEL 7
REMARK VINA RESULT:      -6.1      1.676      3.959
REMARK  Name = 5311053
REMARK  15 active torsions:
REMARK  status: ('A' for Active; 'I' for Inactive)
REMARK    1  A    between atoms: C_1  and  C_24
REMARK    2  A    between atoms: C_2  and  C_10
REMARK    3  A    between atoms: C_3  and  O_6
REMARK    4  A    between atoms: C_4  and  O_8
REMARK    5  A    between atoms: C_11  and  C_12
REMARK    6  A    between atoms: C_12  and  O_13
REMARK    7  A    between atoms: C_12  and  C_15
REMARK    8  A    between atoms: C_15  and  O_16
REMARK    9  A    between atoms: O_16  and  C_18
REMARK   10  A    between atoms: C_24  and  C_25
REMARK   11  A    between atoms: C_26  and  C_27
REMARK   12  A    between atoms: C_27  and  C_28
REMARK   13  A    between atoms: C_28  and  C_29
REMARK   14  A    between atoms: C_29  and  C_31
REMARK   15  A    between atoms: C_31  and  O_32
REMARK                            x       y       z     vdW  Elec       q    Type
REMARK                         _______ _______ _______ _____ _____    ______ ____
ROOT
ATOM      1  C   UNL     1     -36.055  25.119   3.480  0.00  0.00    +0.038 C 
ATOM      2  C   UNL     1     -36.246  23.798   4.243  0.00  0.00    +0.051 C 
ATOM      3  C   UNL     1     -35.484  26.041   4.561  0.00  0.00    +0.114 C 
ATOM      4  C   UNL     1     -35.013  23.722   5.161  0.00  0.00    +0.117 C 
ATOM      5  C   UNL     1     -34.472  25.154   5.286  0.00  0.00    +0.059 C 
ENDROOT
BRANCH   3   6
ATOM      6  O   UNL     1     -36.478  26.499   5.470  0.00  0.00    -0.384 OA
ATOM      7  H   UNL     1     -36.932  27.268   5.091  0.00  0.00    +0.210 HD
ENDBRANCH   3   6
BRANCH   4   8
ATOM      8  O   UNL     1     -35.387  23.238   6.445  0.00  0.00    -0.384 OA
ATOM      9  H   UNL     1     -35.188  22.290   6.505  0.00  0.00    +0.210 HD
ENDBRANCH   4   8
BRANCH   2  10
ATOM     10  C   UNL     1     -36.360  22.601   3.350  0.00  0.00    -0.026 C 
ATOM     11  C   UNL     1     -35.481  21.590   3.342  0.00  0.00    +0.002 C 
BRANCH  11  12
ATOM     12  C   UNL     1     -35.597  20.391   2.442  0.00  0.00    +0.176 C 
BRANCH  12  13
ATOM     13  O   UNL     1     -36.889  19.825   2.642  0.00  0.00    -0.376 OA
ATOM     14  H   UNL     1     -37.452  20.462   3.110  0.00  0.00    +0.211 HD
ENDBRANCH  12  13
BRANCH  12  15
ATOM     15  C   UNL     1     -35.443  20.775   0.972  0.00  0.00    +0.239 C 
BRANCH  15  16
ATOM     16  O   UNL     1     -34.976  19.661   0.227  0.00  0.00    -0.472 OA
BRANCH  16  18
ATOM     17 CL   UNL     1     -30.178  21.042  -0.755  0.00  0.00    -0.082 Cl
ATOM     18  C   UNL     1     -33.639  19.369   0.320  0.00  0.00    +0.140 C 
ATOM     19  C   UNL     1     -32.704  20.253  -0.204  0.00  0.00    +0.048 C 
ATOM     20  C   UNL     1     -33.235  18.191   0.937  0.00  0.00    +0.037 C 
ATOM     21  C   UNL     1     -31.344  19.955  -0.110  0.00  0.00    +0.061 C 
ATOM     22  C   UNL     1     -31.876  17.893   1.032  0.00  0.00    +0.004 C 
ATOM     23  C   UNL     1     -30.930  18.775   0.510  0.00  0.00    +0.012 C 
ENDBRANCH  16  18
ENDBRANCH  15  16
ENDBRANCH  12  15
ENDBRANCH  11  12
ENDBRANCH   2  10
BRANCH   1  24
ATOM     24  C   UNL     1     -37.336  25.645   2.847  0.00  0.00    +0.028 C 
BRANCH  24  25
ATOM     25  C   UNL     1     -37.391  25.671   1.345  0.00  0.00    -0.031 C 
ATOM     26  C   UNL     1     -38.470  25.488   0.569  0.00  0.00    -0.031 C 
BRANCH  26  27
ATOM     27  C   UNL     1     -39.845  25.218   1.107  0.00  0.00    +0.026 C 
BRANCH  27  28
ATOM     28  C   UNL     1     -40.005  23.818   1.714  0.00  0.00    +0.016 C 
BRANCH  28  29
ATOM     29  C   UNL     1     -39.308  22.711   0.917  0.00  0.00    +0.110 C 
BRANCH  29  31
ATOM     30  O   UNL     1     -40.450  21.041   2.274  0.00  0.00    -0.250 OA
ATOM     31  C   UNL     1     -39.685  21.313   1.359  0.00  0.00    +0.314 C 
BRANCH  31  32
ATOM     32  O   UNL     1     -39.030  20.365   0.638  0.00  0.00    -0.480 OA
ATOM     33  H   UNL     1     -38.380  19.830   1.049  0.00  0.00    +0.295 HD
ENDBRANCH  31  32
ENDBRANCH  29  31
ENDBRANCH  28  29
ENDBRANCH  27  28
ENDBRANCH  26  27
ENDBRANCH  24  25
ENDBRANCH   1  24
TORSDOF 15
ENDMDL
MODEL 8
REMARK VINA RESULT:      -6.1      2.072      4.285
REMARK  Name = 5311053
REMARK  15 active torsions:
REMARK  status: ('A' for Active; 'I' for Inactive)
REMARK    1  A    between atoms: C_1  and  C_24
REMARK    2  A    between atoms: C_2  and  C_10
REMARK    3  A    between atoms: C_3  and  O_6
REMARK    4  A    between atoms: C_4  and  O_8
REMARK    5  A    between atoms: C_11  and  C_12
REMARK    6  A    between atoms: C_12  and  O_13
REMARK    7  A    between atoms: C_12  and  C_15
REMARK    8  A    between atoms: C_15  and  O_16
REMARK    9  A    between atoms: O_16  and  C_18
REMARK   10  A    between atoms: C_24  and  C_25
REMARK   11  A    between atoms: C_26  and  C_27
REMARK   12  A    between atoms: C_27  and  C_28
REMARK   13  A    between atoms: C_28  and  C_29
REMARK   14  A    between atoms: C_29  and  C_31
REMARK   15  A    between atoms: C_31  and  O_32
REMARK                            x       y       z     vdW  Elec       q    Type
REMARK                         _______ _______ _______ _____ _____    ______ ____
ROOT
ATOM      1  C   UNL     1     -35.956  25.324   3.531  0.00  0.00    +0.038 C 
ATOM      2  C   UNL     1     -36.035  23.928   4.169  0.00  0.00    +0.051 C 
ATOM      3  C   UNL     1     -35.535  26.201   4.714  0.00  0.00    +0.114 C 
ATOM      4  C   UNL     1     -34.842  23.899   5.140  0.00  0.00    +0.117 C 
ATOM      5  C   UNL     1     -34.466  25.364   5.414  0.00  0.00    +0.059 C 
ENDROOT
BRANCH   3   6
ATOM      6  O   UNL     1     -36.611  26.470   5.604  0.00  0.00    -0.384 OA
ATOM      7  H   UNL     1     -36.311  27.075   6.301  0.00  0.00    +0.210 HD
ENDBRANCH   3   6
BRANCH   4   8
ATOM      8  O   UNL     1     -35.217  23.267   6.358  0.00  0.00    -0.384 OA
ATOM      9  H   UNL     1     -35.601  23.924   6.960  0.00  0.00    +0.210 HD
ENDBRANCH   4   8
BRANCH   2  10
ATOM     10  C   UNL     1     -35.980  22.810   3.173  0.00  0.00    -0.026 C 
ATOM     11  C   UNL     1     -35.569  21.569   3.468  0.00  0.00    +0.002 C 
BRANCH  11  12
ATOM     12  C   UNL     1     -35.512  20.450   2.466  0.00  0.00    +0.176 C 
BRANCH  12  13
ATOM     13  O   UNL     1     -36.742  19.734   2.550  0.00  0.00    -0.376 OA
ATOM     14  H   UNL     1     -36.570  18.834   2.869  0.00  0.00    +0.211 HD
ENDBRANCH  12  13
BRANCH  12  15
ATOM     15  C   UNL     1     -35.339  20.977   1.043  0.00  0.00    +0.239 C 
BRANCH  15  16
ATOM     16  O   UNL     1     -35.125  19.897   0.148  0.00  0.00    -0.472 OA
BRANCH  16  18
ATOM     17 CL   UNL     1     -32.455  15.567   0.015  0.00  0.00    -0.082 Cl
ATOM     18  C   UNL     1     -33.899  19.285   0.196  0.00  0.00    +0.140 C 
ATOM     19  C   UNL     1     -33.816  17.901   0.093  0.00  0.00    +0.048 C 
ATOM     20  C   UNL     1     -32.752  20.055   0.350  0.00  0.00    +0.037 C 
ATOM     21  C   UNL     1     -32.569  17.279   0.143  0.00  0.00    +0.061 C 
ATOM     22  C   UNL     1     -31.505  19.433   0.399  0.00  0.00    +0.004 C 
ATOM     23  C   UNL     1     -31.413  18.045   0.295  0.00  0.00    +0.012 C 
ENDBRANCH  16  18
ENDBRANCH  15  16
ENDBRANCH  12  15
ENDBRANCH  11  12
ENDBRANCH   2  10
BRANCH   1  24
ATOM     24  C   UNL     1     -37.258  25.768   2.877  0.00  0.00    +0.028 C 
BRANCH  24  25
ATOM     25  C   UNL     1     -38.518  25.096   3.349  0.00  0.00    -0.031 C 
ATOM     26  C   UNL     1     -39.431  24.463   2.595  0.00  0.00    -0.031 C 
BRANCH  26  27
ATOM     27  C   UNL     1     -39.327  24.326   1.104  0.00  0.00    +0.026 C 
BRANCH  27  28
ATOM     28  C   UNL     1     -38.262  23.319   0.651  0.00  0.00    +0.016 C 
BRANCH  28  29
ATOM     29  C   UNL     1     -38.838  22.022   0.073  0.00  0.00    +0.110 C 
BRANCH  29  31
ATOM     30  O   UNL     1     -40.899  20.962   0.824  0.00  0.00    -0.250 OA
ATOM     31  C   UNL     1     -39.734  21.272   1.035  0.00  0.00    +0.314 C 
BRANCH  31  32
ATOM     32  O   UNL     1     -39.102  21.012   2.210  0.00  0.00    -0.480 OA
ATOM     33  H   UNL     1     -39.339  20.258   2.712  0.00  0.00    +0.295 HD
ENDBRANCH  31  32
ENDBRANCH  29  31
ENDBRANCH  28  29
ENDBRANCH  27  28
ENDBRANCH  26  27
ENDBRANCH  24  25
ENDBRANCH   1  24
TORSDOF 15
ENDMDL
MODEL 9
REMARK VINA RESULT:      -6.1      3.444      7.147
REMARK  Name = 5311053
REMARK  15 active torsions:
REMARK  status: ('A' for Active; 'I' for Inactive)
REMARK    1  A    between atoms: C_1  and  C_24
REMARK    2  A    between atoms: C_2  and  C_10
REMARK    3  A    between atoms: C_3  and  O_6
REMARK    4  A    between atoms: C_4  and  O_8
REMARK    5  A    between atoms: C_11  and  C_12
REMARK    6  A    between atoms: C_12  and  O_13
REMARK    7  A    between atoms: C_12  and  C_15
REMARK    8  A    between atoms: C_15  and  O_16
REMARK    9  A    between atoms: O_16  and  C_18
REMARK   10  A    between atoms: C_24  and  C_25
REMARK   11  A    between atoms: C_26  and  C_27
REMARK   12  A    between atoms: C_27  and  C_28
REMARK   13  A    between atoms: C_28  and  C_29
REMARK   14  A    between atoms: C_29  and  C_31
REMARK   15  A    between atoms: C_31  and  O_32
REMARK                            x       y       z     vdW  Elec       q    Type
REMARK                         _______ _______ _______ _____ _____    ______ ____
ROOT
ATOM      1  C   UNL     1     -35.220  21.749   2.783  0.00  0.00    +0.038 C 
ATOM      2  C   UNL     1     -35.613  22.400   1.447  0.00  0.00    +0.051 C 
ATOM      3  C   UNL     1     -35.262  20.256   2.444  0.00  0.00    +0.114 C 
ATOM      4  C   UNL     1     -34.907  21.530   0.392  0.00  0.00    +0.117 C 
ATOM      5  C   UNL     1     -34.600  20.185   1.069  0.00  0.00    +0.059 C 
ENDROOT
BRANCH   3   6
ATOM      6  O   UNL     1     -36.589  19.748   2.380  0.00  0.00    -0.384 OA
ATOM      7  H   UNL     1     -36.693  19.032   3.026  0.00  0.00    +0.210 HD
ENDBRANCH   3   6
BRANCH   4   8
ATOM      8  O   UNL     1     -35.765  21.319  -0.723  0.00  0.00    -0.384 OA
ATOM      9  H   UNL     1     -35.826  20.369  -0.909  0.00  0.00    +0.210 HD
ENDBRANCH   4   8
BRANCH   2  10
ATOM     10  C   UNL     1     -35.222  23.842   1.345  0.00  0.00    -0.026 C 
ATOM     11  C   UNL     1     -33.969  24.287   1.512  0.00  0.00    +0.002 C 
BRANCH  11  12
ATOM     12  C   UNL     1     -33.579  25.736   1.411  0.00  0.00    +0.176 C 
BRANCH  12  13
ATOM     13  O   UNL     1     -34.772  26.492   1.227  0.00  0.00    -0.376 OA
ATOM     14  H   UNL     1     -35.526  25.888   1.136  0.00  0.00    +0.211 HD
ENDBRANCH  12  13
BRANCH  12  15
ATOM     15  C   UNL     1     -32.873  26.217   2.677  0.00  0.00    +0.239 C 
BRANCH  15  16
ATOM     16  O   UNL     1     -33.469  27.421   3.136  0.00  0.00    -0.472 OA
BRANCH  16  18
ATOM     17 CL   UNL     1     -31.196  31.551   5.051  0.00  0.00    -0.082 Cl
ATOM     18  C   UNL     1     -32.883  28.030   4.215  0.00  0.00    +0.140 C 
ATOM     19  C   UNL     1     -32.397  29.327   4.093  0.00  0.00    +0.048 C 
ATOM     20  C   UNL     1     -32.780  27.344   5.419  0.00  0.00    +0.037 C 
ATOM     21  C   UNL     1     -31.800  29.946   5.191  0.00  0.00    +0.061 C 
ATOM     22  C   UNL     1     -32.185  27.964   6.518  0.00  0.00    +0.004 C 
ATOM     23  C   UNL     1     -31.695  29.265   6.404  0.00  0.00    +0.012 C 
ENDBRANCH  16  18
ENDBRANCH  15  16
ENDBRANCH  12  15
ENDBRANCH  11  12
ENDBRANCH   2  10
BRANCH   1  24
ATOM     24  C   UNL     1     -36.133  22.137   3.939  0.00  0.00    +0.028 C 
BRANCH  24  25
ATOM     25  C   UNL     1     -35.526  22.132   5.315  0.00  0.00    -0.031 C 
ATOM     26  C   UNL     1     -34.938  23.161   5.946  0.00  0.00    -0.031 C 
BRANCH  26  27
ATOM     27  C   UNL     1     -34.793  24.529   5.347  0.00  0.00    +0.026 C 
BRANCH  27  28
ATOM     28  C   UNL     1     -36.082  25.359   5.385  0.00  0.00    +0.016 C 
BRANCH  28  29
ATOM     29  C   UNL     1     -36.553  25.842   4.009  0.00  0.00    +0.110 C 
BRANCH  29  31
ATOM     30  O   UNL     1     -38.407  24.294   3.695  0.00  0.00    -0.250 OA
ATOM     31  C   UNL     1     -37.973  25.438   3.675  0.00  0.00    +0.314 C 
BRANCH  31  32
ATOM     32  O   UNL     1     -38.723  26.506   3.297  0.00  0.00    -0.480 OA
ATOM     33  H   UNL     1     -38.488  27.367   3.580  0.00  0.00    +0.295 HD
ENDBRANCH  31  32
ENDBRANCH  29  31
ENDBRANCH  28  29
ENDBRANCH  27  28
ENDBRANCH  26  27
ENDBRANCH  24  25
ENDBRANCH   1  24
TORSDOF 15
ENDMDL
