MODEL 1
REMARK VINA RESULT:      -6.3      0.000      0.000
REMARK  Name = 194379
REMARK  9 active torsions:
REMARK  status: ('A' for Active; 'I' for Inactive)
REMARK    1  A    between atoms: C_1  and  N_2
REMARK    2  A    between atoms: C_1  and  C_17
REMARK    3  A    between atoms: N_2  and  C_5
REMARK    4  A    between atoms: C_5  and  C_6
REMARK    5  A    between atoms: C_6  and  C_7
REMARK    6  A    between atoms: C_10  and  O_13
REMARK    7  A    between atoms: C_12  and  O_15
REMARK    8  A    between atoms: C_17  and  C_18
REMARK    9  A    between atoms: C_18  and  N_21
REMARK                            x       y       z     vdW  Elec       q    Type
REMARK                         _______ _______ _______ _____ _____    ______ ____
ROOT
ATOM      1  C   UNL     1     -35.086  27.529   2.671  0.00  0.00    -0.080 C 
ENDROOT
BRANCH   1   2
ATOM      2  N   UNL     1     -35.186  27.581   4.125  0.00  0.00    +0.384 N 
ATOM      3  H   UNL     1     -36.171  27.573   4.392  0.00  0.00    -0.085 HD
ATOM      4  H   UNL     1     -34.735  28.435   4.452  0.00  0.00    -0.085 HD
BRANCH   2   5
ATOM      5  C   UNL     1     -34.519  26.439   4.733  0.00  0.00    -0.077 C 
BRANCH   5   6
ATOM      6  C   UNL     1     -35.492  25.505   5.452  0.00  0.00    +0.003 C 
BRANCH   6   7
ATOM      7  C   UNL     1     -35.550  24.131   4.849  0.00  0.00    -0.021 C 
ATOM      8  C   UNL     1     -35.369  23.016   5.660  0.00  0.00    +0.035 C 
ATOM      9  C   UNL     1     -35.783  23.989   3.486  0.00  0.00    -0.001 C 
ATOM     10  C   UNL     1     -35.422  21.740   5.099  0.00  0.00    +0.167 C 
ATOM     11  C   UNL     1     -35.836  22.712   2.926  0.00  0.00    +0.039 C 
ATOM     12  C   UNL     1     -35.655  21.588   3.732  0.00  0.00    +0.167 C 
BRANCH  10  13
ATOM     13  O   UNL     1     -35.245  20.650   5.897  0.00  0.00    -0.503 OA
ATOM     14  H   UNL     1     -35.931  20.376   6.474  0.00  0.00    +0.292 HD
ENDBRANCH  10  13
BRANCH  12  15
ATOM     15  O   UNL     1     -35.711  20.347   3.173  0.00  0.00    -0.503 OA
ATOM     16  H   UNL     1     -35.338  20.198   2.326  0.00  0.00    +0.292 HD
ENDBRANCH  12  15
ENDBRANCH   6   7
ENDBRANCH   5   6
ENDBRANCH   2   5
ENDBRANCH   1   2
BRANCH   1  17
ATOM     17  C   UNL     1     -33.743  26.935   2.253  0.00  0.00    -0.006 C 
BRANCH  17  18
ATOM     18  C   UNL     1     -32.728  28.037   1.945  0.00  0.00    +0.072 C 
BRANCH  18  21
ATOM     19  O   UNL     1     -32.871  29.421   4.652  0.00  0.00    -0.272 OA
ATOM     20  O   UNL     1     -28.954  28.963   7.194  0.00  0.00    -0.252 OA
ATOM     21  N   UNL     1     -31.454  27.795   2.579  0.00  0.00    -0.240 NA
ATOM     22  N   UNL     1     -29.021  27.967   5.092  0.00  0.00    -0.228 N 
ATOM     23  N   UNL     1     -30.921  29.205   5.944  0.00  0.00    -0.211 N 
ATOM     24  N   UNL     1     -29.379  27.026   2.846  0.00  0.00    -0.240 NA
ATOM     25  C   UNL     1     -31.046  28.219   3.811  0.00  0.00    +0.192 C 
ATOM     26  C   UNL     1     -29.774  27.735   3.950  0.00  0.00    +0.136 C 
ATOM     27  C   UNL     1     -31.728  28.995   4.795  0.00  0.00    +0.254 C 
ATOM     28  C   UNL     1     -30.417  27.081   2.037  0.00  0.00    +0.203 C 
ATOM     29  C   UNL     1     -29.577  28.725   6.153  0.00  0.00    +0.318 C 
ATOM     30  C   UNL     1     -27.668  27.435   5.200  0.00  0.00    +0.123 C 
ATOM     31  C   UNL     1     -31.510  29.990   7.024  0.00  0.00    +0.124 C 
ENDBRANCH  18  21
ENDBRANCH  17  18
ENDBRANCH   1  17
TORSDOF 9
ENDMDL
MODEL 2
REMARK VINA RESULT:      -6.1      4.403      6.685
REMARK  Name = 194379
REMARK  9 active torsions:
REMARK  status: ('A' for Active; 'I' for Inactive)
REMARK    1  A    between atoms: C_1  and  N_2
REMARK    2  A    between atoms: C_1  and  C_17
REMARK    3  A    between atoms: N_2  and  C_5
REMARK    4  A    between atoms: C_5  and  C_6
REMARK    5  A    between atoms: C_6  and  C_7
REMARK    6  A    between atoms: C_10  and  O_13
REMARK    7  A    between atoms: C_12  and  O_15
REMARK    8  A    between atoms: C_17  and  C_18
REMARK    9  A    between atoms: C_18  and  N_21
REMARK                            x       y       z     vdW  Elec       q    Type
REMARK                         _______ _______ _______ _____ _____    ______ ____
ROOT
ATOM      1  C   UNL     1     -35.380  21.847   4.743  0.00  0.00    -0.080 C 
ENDROOT
BRANCH   1   2
ATOM      2  N   UNL     1     -36.538  22.220   3.939  0.00  0.00    +0.384 N 
ATOM      3  H   UNL     1     -36.710  23.220   4.044  0.00  0.00    -0.085 HD
ATOM      4  H   UNL     1     -37.345  21.685   4.261  0.00  0.00    -0.085 HD
BRANCH   2   5
ATOM      5  C   UNL     1     -36.313  21.922   2.532  0.00  0.00    -0.077 C 
BRANCH   5   6
ATOM      6  C   UNL     1     -35.886  20.473   2.299  0.00  0.00    +0.003 C 
BRANCH   6   7
ATOM      7  C   UNL     1     -34.582  20.350   1.564  0.00  0.00    -0.021 C 
ATOM      8  C   UNL     1     -33.825  19.192   1.698  0.00  0.00    +0.035 C 
ATOM      9  C   UNL     1     -34.146  21.396   0.759  0.00  0.00    -0.001 C 
ATOM     10  C   UNL     1     -32.614  19.078   1.015  0.00  0.00    +0.167 C 
ATOM     11  C   UNL     1     -32.935  21.281   0.077  0.00  0.00    +0.039 C 
ATOM     12  C   UNL     1     -32.168  20.123   0.205  0.00  0.00    +0.167 C 
BRANCH  10  13
ATOM     13  O   UNL     1     -31.875  17.941   1.147  0.00  0.00    -0.503 OA
ATOM     14  H   UNL     1     -30.940  17.991   1.181  0.00  0.00    +0.292 HD
ENDBRANCH  10  13
BRANCH  12  15
ATOM     15  O   UNL     1     -30.988  20.023  -0.467  0.00  0.00    -0.503 OA
ATOM     16  H   UNL     1     -30.581  19.187  -0.578  0.00  0.00    +0.292 HD
ENDBRANCH  12  15
ENDBRANCH   6   7
ENDBRANCH   5   6
ENDBRANCH   2   5
ENDBRANCH   1   2
BRANCH   1  17
ATOM     17  C   UNL     1     -34.785  23.080   5.419  0.00  0.00    -0.006 C 
BRANCH  17  18
ATOM     18  C   UNL     1     -35.812  24.210   5.500  0.00  0.00    +0.072 C 
BRANCH  18  21
ATOM     19  O   UNL     1     -38.358  24.580   3.872  0.00  0.00    -0.272 OA
ATOM     20  O   UNL     1     -38.022  27.940   0.615  0.00  0.00    -0.252 OA
ATOM     21  N   UNL     1     -35.529  25.269   4.560  0.00  0.00    -0.240 NA
ATOM     22  N   UNL     1     -36.166  27.519   1.954  0.00  0.00    -0.228 N 
ATOM     23  N   UNL     1     -38.214  26.258   2.235  0.00  0.00    -0.211 N 
ATOM     24  N   UNL     1     -34.375  26.858   3.507  0.00  0.00    -0.240 NA
ATOM     25  C   UNL     1     -36.369  25.789   3.618  0.00  0.00    +0.192 C 
ATOM     26  C   UNL     1     -35.638  26.760   2.988  0.00  0.00    +0.136 C 
ATOM     27  C   UNL     1     -37.718  25.455   3.296  0.00  0.00    +0.254 C 
ATOM     28  C   UNL     1     -34.340  25.944   4.455  0.00  0.00    +0.203 C 
ATOM     29  C   UNL     1     -37.499  27.293   1.530  0.00  0.00    +0.318 C 
ATOM     30  C   UNL     1     -35.354  28.543   1.307  0.00  0.00    +0.123 C 
ATOM     31  C   UNL     1     -39.588  26.008   1.812  0.00  0.00    +0.124 C 
ENDBRANCH  18  21
ENDBRANCH  17  18
ENDBRANCH   1  17
TORSDOF 9
ENDMDL
MODEL 3
REMARK VINA RESULT:      -6.1      3.958      6.330
REMARK  Name = 194379
REMARK  9 active torsions:
REMARK  status: ('A' for Active; 'I' for Inactive)
REMARK    1  A    between atoms: C_1  and  N_2
REMARK    2  A    between atoms: C_1  and  C_17
REMARK    3  A    between atoms: N_2  and  C_5
REMARK    4  A    between atoms: C_5  and  C_6
REMARK    5  A    between atoms: C_6  and  C_7
REMARK    6  A    between atoms: C_10  and  O_13
REMARK    7  A    between atoms: C_12  and  O_15
REMARK    8  A    between atoms: C_17  and  C_18
REMARK    9  A    between atoms: C_18  and  N_21
REMARK                            x       y       z     vdW  Elec       q    Type
REMARK                         _______ _______ _______ _____ _____    ______ ____
ROOT
ATOM      1  C   UNL     1     -38.263  21.867   2.199  0.00  0.00    -0.080 C 
ENDROOT
BRANCH   1   2
ATOM      2  N   UNL     1     -37.225  22.195   3.169  0.00  0.00    +0.384 N 
ATOM      3  H   UNL     1     -37.353  21.620   4.002  0.00  0.00    -0.085 HD
ATOM      4  H   UNL     1     -37.301  23.185   3.406  0.00  0.00    -0.085 HD
BRANCH   2   5
ATOM      5  C   UNL     1     -35.901  21.947   2.618  0.00  0.00    -0.077 C 
BRANCH   5   6
ATOM      6  C   UNL     1     -35.827  20.642   1.828  0.00  0.00    +0.003 C 
BRANCH   6   7
ATOM      7  C   UNL     1     -34.451  20.337   1.312  0.00  0.00    -0.021 C 
ATOM      8  C   UNL     1     -33.833  19.144   1.666  0.00  0.00    +0.035 C 
ATOM      9  C   UNL     1     -33.808  21.253   0.487  0.00  0.00    -0.001 C 
ATOM     10  C   UNL     1     -32.553  18.861   1.188  0.00  0.00    +0.167 C 
ATOM     11  C   UNL     1     -32.529  20.970   0.008  0.00  0.00    +0.039 C 
ATOM     12  C   UNL     1     -31.901  19.774   0.359  0.00  0.00    +0.167 C 
BRANCH  10  13
ATOM     13  O   UNL     1     -31.952  17.690   1.536  0.00  0.00    -0.503 OA
ATOM     14  H   UNL     1     -32.137  16.906   1.056  0.00  0.00    +0.292 HD
ENDBRANCH  10  13
BRANCH  12  15
ATOM     15  O   UNL     1     -30.652  19.509  -0.116  0.00  0.00    -0.503 OA
ATOM     16  H   UNL     1     -29.923  19.490   0.471  0.00  0.00    +0.292 HD
ENDBRANCH  12  15
ENDBRANCH   6   7
ENDBRANCH   5   6
ENDBRANCH   2   5
ENDBRANCH   1   2
BRANCH   1  17
ATOM     17  C   UNL     1     -39.058  23.117   1.830  0.00  0.00    -0.006 C 
BRANCH  17  18
ATOM     18  C   UNL     1     -38.949  24.180   2.924  0.00  0.00    +0.072 C 
BRANCH  18  21
ATOM     19  O   UNL     1     -36.661  24.461   4.912  0.00  0.00    -0.272 OA
ATOM     20  O   UNL     1     -33.819  28.079   3.991  0.00  0.00    -0.252 OA
ATOM     21  N   UNL     1     -38.189  25.328   2.491  0.00  0.00    -0.240 NA
ATOM     22  N   UNL     1     -35.626  27.714   2.572  0.00  0.00    -0.228 N 
ATOM     23  N   UNL     1     -35.223  26.266   4.471  0.00  0.00    -0.211 N 
ATOM     24  N   UNL     1     -37.606  27.086   1.251  0.00  0.00    -0.240 NA
ATOM     25  C   UNL     1     -37.067  25.848   3.069  0.00  0.00    +0.192 C 
ATOM     26  C   UNL     1     -36.731  26.922   2.291  0.00  0.00    +0.136 C 
ATOM     27  C   UNL     1     -36.343  25.428   4.225  0.00  0.00    +0.254 C 
ATOM     28  C   UNL     1     -38.475  26.108   1.400  0.00  0.00    +0.203 C 
ATOM     29  C   UNL     1     -34.815  27.409   3.693  0.00  0.00    +0.318 C 
ATOM     30  C   UNL     1     -35.303  28.851   1.718  0.00  0.00    +0.123 C 
ATOM     31  C   UNL     1     -34.401  25.938   5.631  0.00  0.00    +0.124 C 
ENDBRANCH  18  21
ENDBRANCH  17  18
ENDBRANCH   1  17
TORSDOF 9
ENDMDL
MODEL 4
REMARK VINA RESULT:      -5.9      2.625      3.440
REMARK  Name = 194379
REMARK  9 active torsions:
REMARK  status: ('A' for Active; 'I' for Inactive)
REMARK    1  A    between atoms: C_1  and  N_2
REMARK    2  A    between atoms: C_1  and  C_17
REMARK    3  A    between atoms: N_2  and  C_5
REMARK    4  A    between atoms: C_5  and  C_6
REMARK    5  A    between atoms: C_6  and  C_7
REMARK    6  A    between atoms: C_10  and  O_13
REMARK    7  A    between atoms: C_12  and  O_15
REMARK    8  A    between atoms: C_17  and  C_18
REMARK    9  A    between atoms: C_18  and  N_21
REMARK                            x       y       z     vdW  Elec       q    Type
REMARK                         _______ _______ _______ _____ _____    ______ ____
ROOT
ATOM      1  C   UNL     1     -34.837  28.233   2.189  0.00  0.00    -0.080 C 
ENDROOT
BRANCH   1   2
ATOM      2  N   UNL     1     -35.213  27.973   3.574  0.00  0.00    +0.384 N 
ATOM      3  H   UNL     1     -36.227  28.040   3.662  0.00  0.00    -0.085 HD
ATOM      4  H   UNL     1     -34.759  28.664   4.170  0.00  0.00    -0.085 HD
BRANCH   2   5
ATOM      5  C   UNL     1     -34.785  26.645   3.988  0.00  0.00    -0.077 C 
BRANCH   5   6
ATOM      6  C   UNL     1     -35.531  25.531   3.256  0.00  0.00    +0.003 C 
BRANCH   6   7
ATOM      7  C   UNL     1     -35.464  24.208   3.962  0.00  0.00    -0.021 C 
ATOM      8  C   UNL     1     -35.698  23.037   3.250  0.00  0.00    +0.035 C 
ATOM      9  C   UNL     1     -35.171  24.168   5.320  0.00  0.00    -0.001 C 
ATOM     10  C   UNL     1     -35.636  21.808   3.907  0.00  0.00    +0.167 C 
ATOM     11  C   UNL     1     -35.110  22.939   5.976  0.00  0.00    +0.039 C 
ATOM     12  C   UNL     1     -35.342  21.758   5.270  0.00  0.00    +0.167 C 
BRANCH  10  13
ATOM     13  O   UNL     1     -35.864  20.662   3.206  0.00  0.00    -0.503 OA
ATOM     14  H   UNL     1     -35.487  20.550   2.355  0.00  0.00    +0.292 HD
ENDBRANCH  10  13
BRANCH  12  15
ATOM     15  O   UNL     1     -35.279  20.564   5.922  0.00  0.00    -0.503 OA
ATOM     16  H   UNL     1     -34.720  19.884   5.600  0.00  0.00    +0.292 HD
ENDBRANCH  12  15
ENDBRANCH   6   7
ENDBRANCH   5   6
ENDBRANCH   2   5
ENDBRANCH   1   2
BRANCH   1  17
ATOM     17  C   UNL     1     -35.147  29.681   1.818  0.00  0.00    -0.006 C 
BRANCH  17  18
ATOM     18  C   UNL     1     -34.993  30.603   3.029  0.00  0.00    +0.072 C 
BRANCH  18  21
ATOM     19  O   UNL     1     -32.938  29.421   4.939  0.00  0.00    -0.272 OA
ATOM     20  O   UNL     1     -28.885  31.783   5.019  0.00  0.00    -0.252 OA
ATOM     21  N   UNL     1     -33.825  31.446   2.924  0.00  0.00    -0.240 NA
ATOM     22  N   UNL     1     -30.573  32.548   3.612  0.00  0.00    -0.228 N 
ATOM     23  N   UNL     1     -30.899  30.587   4.996  0.00  0.00    -0.211 N 
ATOM     24  N   UNL     1     -32.528  33.120   2.230  0.00  0.00    -0.240 NA
ATOM     25  C   UNL     1     -32.643  31.314   3.592  0.00  0.00    +0.192 C 
ATOM     26  C   UNL     1     -31.867  32.350   3.149  0.00  0.00    +0.136 C 
ATOM     27  C   UNL     1     -32.226  30.344   4.553  0.00  0.00    +0.254 C 
ATOM     28  C   UNL     1     -33.708  32.548   2.116  0.00  0.00    +0.203 C 
ATOM     29  C   UNL     1     -30.030  31.656   4.571  0.00  0.00    +0.318 C 
ATOM     30  C   UNL     1     -29.779  33.665   3.116  0.00  0.00    +0.123 C 
ATOM     31  C   UNL     1     -30.359  29.659   5.985  0.00  0.00    +0.124 C 
ENDBRANCH  18  21
ENDBRANCH  17  18
ENDBRANCH   1  17
TORSDOF 9
ENDMDL
MODEL 5
REMARK VINA RESULT:      -5.8      1.406      2.422
REMARK  Name = 194379
REMARK  9 active torsions:
REMARK  status: ('A' for Active; 'I' for Inactive)
REMARK    1  A    between atoms: C_1  and  N_2
REMARK    2  A    between atoms: C_1  and  C_17
REMARK    3  A    between atoms: N_2  and  C_5
REMARK    4  A    between atoms: C_5  and  C_6
REMARK    5  A    between atoms: C_6  and  C_7
REMARK    6  A    between atoms: C_10  and  O_13
REMARK    7  A    between atoms: C_12  and  O_15
REMARK    8  A    between atoms: C_17  and  C_18
REMARK    9  A    between atoms: C_18  and  N_21
REMARK                            x       y       z     vdW  Elec       q    Type
REMARK                         _______ _______ _______ _____ _____    ______ ____
ROOT
ATOM      1  C   UNL     1     -34.668  27.655   2.870  0.00  0.00    -0.080 C 
ENDROOT
BRANCH   1   2
ATOM      2  N   UNL     1     -34.393  27.541   4.298  0.00  0.00    +0.384 N 
ATOM      3  H   UNL     1     -35.274  27.570   4.811  0.00  0.00    -0.085 HD
ATOM      4  H   UNL     1     -33.794  28.318   4.577  0.00  0.00    -0.085 HD
BRANCH   2   5
ATOM      5  C   UNL     1     -33.709  26.292   4.598  0.00  0.00    -0.077 C 
BRANCH   5   6
ATOM      6  C   UNL     1     -34.508  25.396   5.542  0.00  0.00    +0.003 C 
BRANCH   6   7
ATOM      7  C   UNL     1     -34.875  24.072   4.935  0.00  0.00    -0.021 C 
ATOM      8  C   UNL     1     -35.047  22.964   5.755  0.00  0.00    +0.035 C 
ATOM      9  C   UNL     1     -35.038  23.970   3.558  0.00  0.00    -0.001 C 
ATOM     10  C   UNL     1     -35.386  21.734   5.191  0.00  0.00    +0.167 C 
ATOM     11  C   UNL     1     -35.377  22.740   2.994  0.00  0.00    +0.039 C 
ATOM     12  C   UNL     1     -35.552  21.622   3.810  0.00  0.00    +0.167 C 
BRANCH  10  13
ATOM     13  O   UNL     1     -35.555  20.650   5.999  0.00  0.00    -0.503 OA
ATOM     14  H   UNL     1     -36.085  19.932   5.714  0.00  0.00    +0.292 HD
ENDBRANCH  10  13
BRANCH  12  15
ATOM     15  O   UNL     1     -35.884  20.428   3.247  0.00  0.00    -0.503 OA
ATOM     16  H   UNL     1     -35.809  19.638   3.745  0.00  0.00    +0.292 HD
ENDBRANCH  12  15
ENDBRANCH   6   7
ENDBRANCH   5   6
ENDBRANCH   2   5
ENDBRANCH   1   2
BRANCH   1  17
ATOM     17  C   UNL     1     -34.647  29.119   2.441  0.00  0.00    -0.006 C 
BRANCH  17  18
ATOM     18  C   UNL     1     -33.217  29.592   2.173  0.00  0.00    +0.072 C 
BRANCH  18  21
ATOM     19  O   UNL     1     -30.826  27.735   1.851  0.00  0.00    -0.272 OA
ATOM     20  O   UNL     1     -27.944  27.742   5.553  0.00  0.00    -0.252 OA
ATOM     21  N   UNL     1     -32.451  29.721   3.390  0.00  0.00    -0.240 NA
ATOM     22  N   UNL     1     -29.829  29.105   5.627  0.00  0.00    -0.228 N 
ATOM     23  N   UNL     1     -29.368  27.722   3.693  0.00  0.00    -0.211 N 
ATOM     24  N   UNL     1     -31.887  30.439   5.423  0.00  0.00    -0.240 NA
ATOM     25  C   UNL     1     -31.289  29.081   3.711  0.00  0.00    +0.192 C 
ATOM     26  C   UNL     1     -30.965  29.538   4.959  0.00  0.00    +0.136 C 
ATOM     27  C   UNL     1     -30.519  28.135   2.971  0.00  0.00    +0.254 C 
ATOM     28  C   UNL     1     -32.772  30.527   4.452  0.00  0.00    +0.203 C 
ATOM     29  C   UNL     1     -28.970  28.163   5.007  0.00  0.00    +0.318 C 
ATOM     30  C   UNL     1     -29.519  29.615   6.957  0.00  0.00    +0.123 C 
ATOM     31  C   UNL     1     -28.498  26.750   3.039  0.00  0.00    +0.124 C 
ENDBRANCH  18  21
ENDBRANCH  17  18
ENDBRANCH   1  17
TORSDOF 9
ENDMDL
MODEL 6
REMARK VINA RESULT:      -5.8      4.835      7.479
REMARK  Name = 194379
REMARK  9 active torsions:
REMARK  status: ('A' for Active; 'I' for Inactive)
REMARK    1  A    between atoms: C_1  and  N_2
REMARK    2  A    between atoms: C_1  and  C_17
REMARK    3  A    between atoms: N_2  and  C_5
REMARK    4  A    between atoms: C_5  and  C_6
REMARK    5  A    between atoms: C_6  and  C_7
REMARK    6  A    between atoms: C_10  and  O_13
REMARK    7  A    between atoms: C_12  and  O_15
REMARK    8  A    between atoms: C_17  and  C_18
REMARK    9  A    between atoms: C_18  and  N_21
REMARK                            x       y       z     vdW  Elec       q    Type
REMARK                         _______ _______ _______ _____ _____    ______ ____
ROOT
ATOM      1  C   UNL     1     -37.326  19.820  -0.500  0.00  0.00    -0.080 C 
ENDROOT
BRANCH   1   2
ATOM      2  N   UNL     1     -37.900  20.134   0.804  0.00  0.00    +0.384 N 
ATOM      3  H   UNL     1     -37.165  20.492   1.414  0.00  0.00    -0.085 HD
ATOM      4  H   UNL     1     -38.305  19.284   1.195  0.00  0.00    -0.085 HD
BRANCH   2   5
ATOM      5  C   UNL     1     -38.948  21.137   0.683  0.00  0.00    -0.077 C 
BRANCH   5   6
ATOM      6  C   UNL     1     -39.295  21.789   2.020  0.00  0.00    +0.003 C 
BRANCH   6   7
ATOM      7  C   UNL     1     -39.708  23.227   1.890  0.00  0.00    -0.021 C 
ATOM      8  C   UNL     1     -39.255  24.158   2.817  0.00  0.00    +0.035 C 
ATOM      9  C   UNL     1     -40.540  23.610   0.845  0.00  0.00    -0.001 C 
ATOM     10  C   UNL     1     -39.640  25.493   2.697  0.00  0.00    +0.167 C 
ATOM     11  C   UNL     1     -40.924  24.946   0.725  0.00  0.00    +0.039 C 
ATOM     12  C   UNL     1     -40.474  25.888   1.651  0.00  0.00    +0.167 C 
BRANCH  10  13
ATOM     13  O   UNL     1     -39.193  26.403   3.607  0.00  0.00    -0.503 OA
ATOM     14  H   UNL     1     -39.689  27.180   3.776  0.00  0.00    +0.292 HD
ENDBRANCH  10  13
BRANCH  12  15
ATOM     15  O   UNL     1     -40.856  27.189   1.522  0.00  0.00    -0.503 OA
ATOM     16  H   UNL     1     -40.800  27.768   2.257  0.00  0.00    +0.292 HD
ENDBRANCH  12  15
ENDBRANCH   6   7
ENDBRANCH   5   6
ENDBRANCH   2   5
ENDBRANCH   1   2
BRANCH   1  17
ATOM     17  C   UNL     1     -35.857  20.235  -0.546  0.00  0.00    -0.006 C 
BRANCH  17  18
ATOM     18  C   UNL     1     -35.322  20.517   0.858  0.00  0.00    +0.072 C 
BRANCH  18  21
ATOM     19  O   UNL     1     -35.310  20.591   3.902  0.00  0.00    -0.272 OA
ATOM     20  O   UNL     1     -35.714  24.919   5.668  0.00  0.00    -0.252 OA
ATOM     21  N   UNL     1     -35.454  21.909   1.220  0.00  0.00    -0.240 NA
ATOM     22  N   UNL     1     -35.707  24.674   3.354  0.00  0.00    -0.228 N 
ATOM     23  N   UNL     1     -35.511  22.748   4.810  0.00  0.00    -0.211 N 
ATOM     24  N   UNL     1     -35.668  24.111   0.957  0.00  0.00    -0.240 NA
ATOM     25  C   UNL     1     -35.497  22.440   2.476  0.00  0.00    +0.192 C 
ATOM     26  C   UNL     1     -35.628  23.788   2.288  0.00  0.00    +0.136 C 
ATOM     27  C   UNL     1     -35.427  21.804   3.752  0.00  0.00    +0.254 C 
ATOM     28  C   UNL     1     -35.561  22.954   0.339  0.00  0.00    +0.203 C 
ATOM     29  C   UNL     1     -35.649  24.178   4.680  0.00  0.00    +0.318 C 
ATOM     30  C   UNL     1     -35.847  26.104   3.110  0.00  0.00    +0.123 C 
ATOM     31  C   UNL     1     -35.452  22.218   6.168  0.00  0.00    +0.124 C 
ENDBRANCH  18  21
ENDBRANCH  17  18
ENDBRANCH   1  17
TORSDOF 9
ENDMDL
MODEL 7
REMARK VINA RESULT:      -5.8      3.196      4.685
REMARK  Name = 194379
REMARK  9 active torsions:
REMARK  status: ('A' for Active; 'I' for Inactive)
REMARK    1  A    between atoms: C_1  and  N_2
REMARK    2  A    between atoms: C_1  and  C_17
REMARK    3  A    between atoms: N_2  and  C_5
REMARK    4  A    between atoms: C_5  and  C_6
REMARK    5  A    between atoms: C_6  and  C_7
REMARK    6  A    between atoms: C_10  and  O_13
REMARK    7  A    between atoms: C_12  and  O_15
REMARK    8  A    between atoms: C_17  and  C_18
REMARK    9  A    between atoms: C_18  and  N_21
REMARK                            x       y       z     vdW  Elec       q    Type
REMARK                         _______ _______ _______ _____ _____    ______ ____
ROOT
ATOM      1  C   UNL     1     -32.328  27.581   4.118  0.00  0.00    -0.080 C 
ENDROOT
BRANCH   1   2
ATOM      2  N   UNL     1     -33.679  27.731   4.646  0.00  0.00    +0.384 N 
ATOM      3  H   UNL     1     -34.101  28.570   4.248  0.00  0.00    -0.085 HD
ATOM      4  H   UNL     1     -33.625  27.808   5.662  0.00  0.00    -0.085 HD
BRANCH   2   5
ATOM      5  C   UNL     1     -34.501  26.579   4.308  0.00  0.00    -0.077 C 
BRANCH   5   6
ATOM      6  C   UNL     1     -34.341  25.430   5.303  0.00  0.00    +0.003 C 
BRANCH   6   7
ATOM      7  C   UNL     1     -34.773  24.102   4.750  0.00  0.00    -0.021 C 
ATOM      8  C   UNL     1     -34.934  23.021   5.608  0.00  0.00    +0.035 C 
ATOM      9  C   UNL     1     -35.005  23.968   3.386  0.00  0.00    -0.001 C 
ATOM     10  C   UNL     1     -35.334  21.787   5.095  0.00  0.00    +0.167 C 
ATOM     11  C   UNL     1     -35.405  22.735   2.874  0.00  0.00    +0.039 C 
ATOM     12  C   UNL     1     -35.570  21.644   3.728  0.00  0.00    +0.167 C 
BRANCH  10  13
ATOM     13  O   UNL     1     -35.493  20.730   5.940  0.00  0.00    -0.503 OA
ATOM     14  H   UNL     1     -35.627  20.877   6.855  0.00  0.00    +0.292 HD
ENDBRANCH  10  13
BRANCH  12  15
ATOM     15  O   UNL     1     -35.962  20.444   3.214  0.00  0.00    -0.503 OA
ATOM     16  H   UNL     1     -35.975  19.683   3.760  0.00  0.00    +0.292 HD
ENDBRANCH  12  15
ENDBRANCH   6   7
ENDBRANCH   5   6
ENDBRANCH   2   5
ENDBRANCH   1   2
BRANCH   1  17
ATOM     17  C   UNL     1     -31.426  28.695   4.643  0.00  0.00    -0.006 C 
BRANCH  17  18
ATOM     18  C   UNL     1     -32.251  29.900   5.098  0.00  0.00    +0.072 C 
BRANCH  18  21
ATOM     19  O   UNL     1     -34.900  30.081   3.609  0.00  0.00    -0.272 OA
ATOM     20  O   UNL     1     -35.057  33.590   0.497  0.00  0.00    -0.252 OA
ATOM     21  N   UNL     1     -32.120  31.019   4.196  0.00  0.00    -0.240 NA
ATOM     22  N   UNL     1     -33.103  33.301   1.728  0.00  0.00    -0.228 N 
ATOM     23  N   UNL     1     -35.003  31.832   2.045  0.00  0.00    -0.211 N 
ATOM     24  N   UNL     1     -31.180  32.757   3.165  0.00  0.00    -0.240 NA
ATOM     25  C   UNL     1     -33.053  31.492   3.319  0.00  0.00    +0.192 C 
ATOM     26  C   UNL     1     -32.453  32.555   2.701  0.00  0.00    +0.136 C 
ATOM     27  C   UNL     1     -34.378  31.039   3.044  0.00  0.00    +0.254 C 
ATOM     28  C   UNL     1     -31.009  31.813   4.066  0.00  0.00    +0.203 C 
ATOM     29  C   UNL     1     -34.428  32.961   1.357  0.00  0.00    +0.318 C 
ATOM     30  C   UNL     1     -32.429  34.426   1.092  0.00  0.00    +0.123 C 
ATOM     31  C   UNL     1     -36.366  31.465   1.675  0.00  0.00    +0.124 C 
ENDBRANCH  18  21
ENDBRANCH  17  18
ENDBRANCH   1  17
TORSDOF 9
ENDMDL
MODEL 8
REMARK VINA RESULT:      -5.8      2.443      3.430
REMARK  Name = 194379
REMARK  9 active torsions:
REMARK  status: ('A' for Active; 'I' for Inactive)
REMARK    1  A    between atoms: C_1  and  N_2
REMARK    2  A    between atoms: C_1  and  C_17
REMARK    3  A    between atoms: N_2  and  C_5
REMARK    4  A    between atoms: C_5  and  C_6
REMARK    5  A    between atoms: C_6  and  C_7
REMARK    6  A    between atoms: C_10  and  O_13
REMARK    7  A    between atoms: C_12  and  O_15
REMARK    8  A    between atoms: C_17  and  C_18
REMARK    9  A    between atoms: C_18  and  N_21
REMARK                            x       y       z     vdW  Elec       q    Type
REMARK                         _______ _______ _______ _____ _____    ______ ____
ROOT
ATOM      1  C   UNL     1     -32.450  27.571   4.929  0.00  0.00    -0.080 C 
ENDROOT
BRANCH   1   2
ATOM      2  N   UNL     1     -33.865  27.218   4.935  0.00  0.00    +0.384 N 
ATOM      3  H   UNL     1     -34.137  26.912   4.000  0.00  0.00    -0.085 HD
ATOM      4  H   UNL     1     -34.405  28.038   5.211  0.00  0.00    -0.085 HD
BRANCH   2   5
ATOM      5  C   UNL     1     -34.129  26.144   5.881  0.00  0.00    -0.077 C 
BRANCH   5   6
ATOM      6  C   UNL     1     -35.540  25.573   5.744  0.00  0.00    +0.003 C 
BRANCH   6   7
ATOM      7  C   UNL     1     -35.574  24.230   5.074  0.00  0.00    -0.021 C 
ATOM      8  C   UNL     1     -35.394  23.079   5.833  0.00  0.00    +0.035 C 
ATOM      9  C   UNL     1     -35.784  24.152   3.702  0.00  0.00    -0.001 C 
ATOM     10  C   UNL     1     -35.425  21.831   5.210  0.00  0.00    +0.167 C 
ATOM     11  C   UNL     1     -35.814  22.904   3.080  0.00  0.00    +0.039 C 
ATOM     12  C   UNL     1     -35.635  21.744   3.833  0.00  0.00    +0.167 C 
BRANCH  10  13
ATOM     13  O   UNL     1     -35.249  20.706   5.957  0.00  0.00    -0.503 OA
ATOM     14  H   UNL     1     -35.738  20.586   6.747  0.00  0.00    +0.292 HD
ENDBRANCH  10  13
BRANCH  12  15
ATOM     15  O   UNL     1     -35.668  20.531   3.214  0.00  0.00    -0.503 OA
ATOM     16  H   UNL     1     -35.043  19.871   3.443  0.00  0.00    +0.292 HD
ENDBRANCH  12  15
ENDBRANCH   6   7
ENDBRANCH   5   6
ENDBRANCH   2   5
ENDBRANCH   1   2
BRANCH   1  17
ATOM     17  C   UNL     1     -31.932  27.706   6.358  0.00  0.00    -0.006 C 
BRANCH  17  18
ATOM     18  C   UNL     1     -31.863  29.175   6.780  0.00  0.00    +0.072 C 
BRANCH  18  21
ATOM     19  O   UNL     1     -33.113  30.863   4.577  0.00  0.00    -0.272 OA
ATOM     20  O   UNL     1     -29.985  33.380   2.148  0.00  0.00    -0.252 OA
ATOM     21  N   UNL     1     -30.768  29.871   6.147  0.00  0.00    -0.240 NA
ATOM     22  N   UNL     1     -29.204  32.027   3.873  0.00  0.00    -0.228 N 
ATOM     23  N   UNL     1     -31.566  32.133   3.347  0.00  0.00    -0.211 N 
ATOM     24  N   UNL     1     -28.673  30.516   5.743  0.00  0.00    -0.240 NA
ATOM     25  C   UNL     1     -30.834  30.748   5.103  0.00  0.00    +0.192 C 
ATOM     26  C   UNL     1     -29.539  31.128   4.876  0.00  0.00    +0.136 C 
ATOM     27  C   UNL     1     -31.957  31.217   4.359  0.00  0.00    +0.254 C 
ATOM     28  C   UNL     1     -29.446  29.763   6.497  0.00  0.00    +0.203 C 
ATOM     29  C   UNL     1     -30.224  32.574   3.056  0.00  0.00    +0.318 C 
ATOM     30  C   UNL     1     -27.812  32.406   3.663  0.00  0.00    +0.123 C 
ATOM     31  C   UNL     1     -32.630  32.684   2.514  0.00  0.00    +0.124 C 
ENDBRANCH  18  21
ENDBRANCH  17  18
ENDBRANCH   1  17
TORSDOF 9
ENDMDL
MODEL 9
REMARK VINA RESULT:      -5.8      2.832      7.819
REMARK  Name = 194379
REMARK  9 active torsions:
REMARK  status: ('A' for Active; 'I' for Inactive)
REMARK    1  A    between atoms: C_1  and  N_2
REMARK    2  A    between atoms: C_1  and  C_17
REMARK    3  A    between atoms: N_2  and  C_5
REMARK    4  A    between atoms: C_5  and  C_6
REMARK    5  A    between atoms: C_6  and  C_7
REMARK    6  A    between atoms: C_10  and  O_13
REMARK    7  A    between atoms: C_12  and  O_15
REMARK    8  A    between atoms: C_17  and  C_18
REMARK    9  A    between atoms: C_18  and  N_21
REMARK                            x       y       z     vdW  Elec       q    Type
REMARK                         _______ _______ _______ _____ _____    ______ ____
ROOT
ATOM      1  C   UNL     1     -35.706  26.981   1.183  0.00  0.00    -0.080 C 
ENDROOT
BRANCH   1   2
ATOM      2  N   UNL     1     -34.630  27.122   2.157  0.00  0.00    +0.384 N 
ATOM      3  H   UNL     1     -33.767  26.756   1.755  0.00  0.00    -0.085 HD
ATOM      4  H   UNL     1     -34.880  26.601   2.998  0.00  0.00    -0.085 HD
BRANCH   2   5
ATOM      5  C   UNL     1     -34.433  28.519   2.516  0.00  0.00    -0.077 C 
BRANCH   5   6
ATOM      6  C   UNL     1     -32.957  28.882   2.679  0.00  0.00    +0.003 C 
BRANCH   6   7
ATOM      7  C   UNL     1     -32.540  29.036   4.113  0.00  0.00    -0.021 C 
ATOM      8  C   UNL     1     -32.504  27.921   4.942  0.00  0.00    +0.035 C 
ATOM      9  C   UNL     1     -32.195  30.293   4.597  0.00  0.00    -0.001 C 
ATOM     10  C   UNL     1     -32.117  28.065   6.275  0.00  0.00    +0.167 C 
ATOM     11  C   UNL     1     -31.808  30.435   5.929  0.00  0.00    +0.039 C 
ATOM     12  C   UNL     1     -31.769  29.322   6.768  0.00  0.00    +0.167 C 
BRANCH  10  13
ATOM     13  O   UNL     1     -32.082  26.969   7.084  0.00  0.00    -0.503 OA
ATOM     14  H   UNL     1     -31.678  26.178   6.785  0.00  0.00    +0.292 HD
ENDBRANCH  10  13
BRANCH  12  15
ATOM     15  O   UNL     1     -31.389  29.475   8.067  0.00  0.00    -0.503 OA
ATOM     16  H   UNL     1     -30.558  29.150   8.353  0.00  0.00    +0.292 HD
ENDBRANCH  12  15
ENDBRANCH   6   7
ENDBRANCH   5   6
ENDBRANCH   2   5
ENDBRANCH   1   2
BRANCH   1  17
ATOM     17  C   UNL     1     -37.054  27.275   1.837  0.00  0.00    -0.006 C 
BRANCH  17  18
ATOM     18  C   UNL     1     -37.855  25.989   2.045  0.00  0.00    +0.072 C 
BRANCH  18  21
ATOM     19  O   UNL     1     -37.161  23.454   0.509  0.00  0.00    -0.272 OA
ATOM     20  O   UNL     1     -35.070  20.185   3.147  0.00  0.00    -0.252 OA
ATOM     21  N   UNL     1     -37.228  25.108   3.001  0.00  0.00    -0.240 NA
ATOM     22  N   UNL     1     -35.673  22.192   4.159  0.00  0.00    -0.228 N 
ATOM     23  N   UNL     1     -36.112  21.802   1.809  0.00  0.00    -0.211 N 
ATOM     24  N   UNL     1     -36.419  24.399   4.953  0.00  0.00    -0.240 NA
ATOM     25  C   UNL     1     -36.744  23.851   2.779  0.00  0.00    +0.192 C 
ATOM     26  C   UNL     1     -36.254  23.441   3.989  0.00  0.00    +0.136 C 
ATOM     27  C   UNL     1     -36.715  23.068   1.587  0.00  0.00    +0.254 C 
ATOM     28  C   UNL     1     -37.010  25.394   4.324  0.00  0.00    +0.203 C 
ATOM     29  C   UNL     1     -35.577  21.309   3.055  0.00  0.00    +0.318 C 
ATOM     30  C   UNL     1     -35.164  21.791   5.465  0.00  0.00    +0.123 C 
ATOM     31  C   UNL     1     -36.025  20.907   0.661  0.00  0.00    +0.124 C 
ENDBRANCH  18  21
ENDBRANCH  17  18
ENDBRANCH   1  17
TORSDOF 9
ENDMDL
