MODEL 1
REMARK VINA RESULT:      -5.4      0.000      0.000
REMARK  Name = 60937
REMARK  8 active torsions:
REMARK  status: ('A' for Active; 'I' for Inactive)
REMARK    1  A    between atoms: C_1  and  P_2
REMARK    2  A    between atoms: C_1  and  P_8
REMARK    3  A    between atoms: C_1  and  S_14
REMARK    4  A    between atoms: P_2  and  O_4
REMARK    5  A    between atoms: P_2  and  O_6
REMARK    6  A    between atoms: P_8  and  O_10
REMARK    7  A    between atoms: P_8  and  O_12
REMARK    8  A    between atoms: S_14  and  C_16
REMARK                            x       y       z     vdW  Elec       q    Type
REMARK                         _______ _______ _______ _____ _____    ______ ____
ROOT
ATOM      1  C   UNL     1     -37.566  22.076   2.377  0.00  0.00    +0.258 C 
ENDROOT
BRANCH   1   2
ATOM      2  P   UNL     1     -39.054  21.671   1.428  0.00  0.00    +0.358 P 
ATOM      3  O   UNL     1     -39.629  22.800   0.625  0.00  0.00    -0.257 OA
BRANCH   2   4
ATOM      4  O   UNL     1     -38.580  20.395   0.554  0.00  0.00    -0.323 OA
ATOM      5  H   UNL     1     -39.259  19.704   0.597  0.00  0.00    +0.220 HD
ENDBRANCH   2   4
BRANCH   2   6
ATOM      6  O   UNL     1     -40.052  21.011   2.516  0.00  0.00    -0.323 OA
ATOM      7  H   UNL     1     -40.106  21.587   3.296  0.00  0.00    +0.220 HD
ENDBRANCH   2   6
ENDBRANCH   1   2
BRANCH   1   8
ATOM      8  P   UNL     1     -36.127  20.992   2.512  0.00  0.00    +0.358 P 
ATOM      9  O   UNL     1     -34.990  21.294   1.583  0.00  0.00    -0.257 OA
BRANCH   8  10
ATOM     10  O   UNL     1     -35.753  21.104   4.081  0.00  0.00    -0.323 OA
ATOM     11  H   UNL     1     -34.854  21.458   4.176  0.00  0.00    +0.220 HD
ENDBRANCH   8  10
BRANCH   8  12
ATOM     12  O   UNL     1     -36.743  19.502   2.395  0.00  0.00    -0.323 OA
ATOM     13  H   UNL     1     -36.614  19.033   3.235  0.00  0.00    +0.220 HD
ENDBRANCH   8  12
ENDBRANCH   1   8
BRANCH   1  14
ATOM     14  S   UNL     1     -36.943  23.601   1.577  0.00  0.00    -0.090 S 
BRANCH  14  16
ATOM     15 CL   UNL     1     -33.821  26.302   6.325  0.00  0.00    -0.082 Cl
ATOM     16  C   UNL     1     -36.057  24.368   2.924  0.00  0.00    +0.026 C 
ATOM     17  C   UNL     1     -34.700  24.652   2.790  0.00  0.00    +0.007 C 
ATOM     18  C   UNL     1     -36.726  24.680   4.106  0.00  0.00    +0.007 C 
ATOM     19  C   UNL     1     -34.008  25.252   3.842  0.00  0.00    +0.012 C 
ATOM     20  C   UNL     1     -36.034  25.280   5.158  0.00  0.00    +0.012 C 
ATOM     21  C   UNL     1     -34.676  25.565   5.026  0.00  0.00    +0.058 C 
ENDBRANCH  14  16
ENDBRANCH   1  14
TORSDOF 8
ENDMDL
MODEL 2
REMARK VINA RESULT:      -5.3      4.436      5.387
REMARK  Name = 60937
REMARK  8 active torsions:
REMARK  status: ('A' for Active; 'I' for Inactive)
REMARK    1  A    between atoms: C_1  and  P_2
REMARK    2  A    between atoms: C_1  and  P_8
REMARK    3  A    between atoms: C_1  and  S_14
REMARK    4  A    between atoms: P_2  and  O_4
REMARK    5  A    between atoms: P_2  and  O_6
REMARK    6  A    between atoms: P_8  and  O_10
REMARK    7  A    between atoms: P_8  and  O_12
REMARK    8  A    between atoms: S_14  and  C_16
REMARK                            x       y       z     vdW  Elec       q    Type
REMARK                         _______ _______ _______ _____ _____    ______ ____
ROOT
ATOM      1  C   UNL     1     -36.153  25.041   3.371  0.00  0.00    +0.258 C 
ENDROOT
BRANCH   1   2
ATOM      2  P   UNL     1     -37.839  25.216   2.736  0.00  0.00    +0.358 P 
ATOM      3  O   UNL     1     -38.138  24.438   1.489  0.00  0.00    -0.257 OA
BRANCH   2   4
ATOM      4  O   UNL     1     -38.743  24.813   4.015  0.00  0.00    -0.323 OA
ATOM      5  H   UNL     1     -38.535  23.906   4.285  0.00  0.00    +0.220 HD
ENDBRANCH   2   4
BRANCH   2   6
ATOM      6  O   UNL     1     -38.060  26.815   2.628  0.00  0.00    -0.323 OA
ATOM      7  H   UNL     1     -38.999  27.021   2.756  0.00  0.00    +0.220 HD
ENDBRANCH   2   6
ENDBRANCH   1   2
BRANCH   1   8
ATOM      8  P   UNL     1     -35.409  26.153   4.584  0.00  0.00    +0.358 P 
ATOM      9  O   UNL     1     -34.152  25.664   5.239  0.00  0.00    -0.257 OA
BRANCH   8  10
ATOM     10  O   UNL     1     -35.231  27.522   3.741  0.00  0.00    -0.323 OA
ATOM     11  H   UNL     1     -34.831  27.322   2.879  0.00  0.00    +0.220 HD
ENDBRANCH   8  10
BRANCH   8  12
ATOM     12  O   UNL     1     -36.623  26.508   5.591  0.00  0.00    -0.323 OA
ATOM     13  H   UNL     1     -36.333  27.187   6.220  0.00  0.00    +0.220 HD
ENDBRANCH   8  12
ENDBRANCH   1   8
BRANCH   1  14
ATOM     14  S   UNL     1     -36.160  23.395   4.173  0.00  0.00    -0.090 S 
BRANCH  14  16
ATOM     15 CL   UNL     1     -33.622  19.809  -0.330  0.00  0.00    -0.082 Cl
ATOM     16  C   UNL     1     -35.440  22.377   2.895  0.00  0.00    +0.026 C 
ATOM     17  C   UNL     1     -35.460  20.990   3.019  0.00  0.00    +0.007 C 
ATOM     18  C   UNL     1     -34.861  22.974   1.777  0.00  0.00    +0.007 C 
ATOM     19  C   UNL     1     -34.898  20.195   2.020  0.00  0.00    +0.012 C 
ATOM     20  C   UNL     1     -34.299  22.179   0.778  0.00  0.00    +0.012 C 
ATOM     21  C   UNL     1     -34.317  20.790   0.900  0.00  0.00    +0.058 C 
ENDBRANCH  14  16
ENDBRANCH   1  14
TORSDOF 8
ENDMDL
MODEL 3
REMARK VINA RESULT:      -5.2      3.911      4.888
REMARK  Name = 60937
REMARK  8 active torsions:
REMARK  status: ('A' for Active; 'I' for Inactive)
REMARK    1  A    between atoms: C_1  and  P_2
REMARK    2  A    between atoms: C_1  and  P_8
REMARK    3  A    between atoms: C_1  and  S_14
REMARK    4  A    between atoms: P_2  and  O_4
REMARK    5  A    between atoms: P_2  and  O_6
REMARK    6  A    between atoms: P_8  and  O_10
REMARK    7  A    between atoms: P_8  and  O_12
REMARK    8  A    between atoms: S_14  and  C_16
REMARK                            x       y       z     vdW  Elec       q    Type
REMARK                         _______ _______ _______ _____ _____    ______ ____
ROOT
ATOM      1  C   UNL     1     -36.831  24.153   2.894  0.00  0.00    +0.258 C 
ENDROOT
BRANCH   1   2
ATOM      2  P   UNL     1     -38.329  25.141   2.653  0.00  0.00    +0.358 P 
ATOM      3  O   UNL     1     -39.062  24.891   1.368  0.00  0.00    -0.257 OA
BRANCH   2   4
ATOM      4  O   UNL     1     -39.182  24.823   3.990  0.00  0.00    -0.323 OA
ATOM      5  H   UNL     1     -39.608  25.635   4.302  0.00  0.00    +0.220 HD
ENDBRANCH   2   4
BRANCH   2   6
ATOM      6  O   UNL     1     -37.842  26.665   2.891  0.00  0.00    -0.323 OA
ATOM      7  H   UNL     1     -38.614  27.228   3.060  0.00  0.00    +0.220 HD
ENDBRANCH   2   6
ENDBRANCH   1   2
BRANCH   1   8
ATOM      8  P   UNL     1     -35.904  24.083   4.443  0.00  0.00    +0.358 P 
ATOM      9  O   UNL     1     -34.415  24.213   4.323  0.00  0.00    -0.257 OA
BRANCH   8  10
ATOM     10  O   UNL     1     -36.606  25.244   5.323  0.00  0.00    -0.323 OA
ATOM     11  H   UNL     1     -37.546  25.037   5.443  0.00  0.00    +0.220 HD
ENDBRANCH   8  10
BRANCH   8  12
ATOM     12  O   UNL     1     -36.428  22.728   5.155  0.00  0.00    -0.323 OA
ATOM     13  H   UNL     1     -37.019  22.958   5.889  0.00  0.00    +0.220 HD
ENDBRANCH   8  12
ENDBRANCH   1   8
BRANCH   1  14
ATOM     14  S   UNL     1     -37.391  22.436   2.594  0.00  0.00    -0.090 S 
BRANCH  14  16
ATOM     15 CL   UNL     1     -32.211  19.858   0.121  0.00  0.00    -0.082 Cl
ATOM     16  C   UNL     1     -35.921  21.704   1.892  0.00  0.00    +0.026 C 
ATOM     17  C   UNL     1     -35.540  20.417   2.266  0.00  0.00    +0.007 C 
ATOM     18  C   UNL     1     -35.160  22.422   0.972  0.00  0.00    +0.007 C 
ATOM     19  C   UNL     1     -34.392  19.846   1.717  0.00  0.00    +0.012 C 
ATOM     20  C   UNL     1     -34.012  21.850   0.423  0.00  0.00    +0.012 C 
ATOM     21  C   UNL     1     -33.628  20.563   0.796  0.00  0.00    +0.058 C 
ENDBRANCH  14  16
ENDBRANCH   1  14
TORSDOF 8
ENDMDL
MODEL 4
REMARK VINA RESULT:      -5.1      4.306      5.232
REMARK  Name = 60937
REMARK  8 active torsions:
REMARK  status: ('A' for Active; 'I' for Inactive)
REMARK    1  A    between atoms: C_1  and  P_2
REMARK    2  A    between atoms: C_1  and  P_8
REMARK    3  A    between atoms: C_1  and  S_14
REMARK    4  A    between atoms: P_2  and  O_4
REMARK    5  A    between atoms: P_2  and  O_6
REMARK    6  A    between atoms: P_8  and  O_10
REMARK    7  A    between atoms: P_8  and  O_12
REMARK    8  A    between atoms: S_14  and  C_16
REMARK                            x       y       z     vdW  Elec       q    Type
REMARK                         _______ _______ _______ _____ _____    ______ ____
ROOT
ATOM      1  C   UNL     1     -36.261  25.096   3.077  0.00  0.00    +0.258 C 
ENDROOT
BRANCH   1   2
ATOM      2  P   UNL     1     -37.458  26.196   2.279  0.00  0.00    +0.358 P 
ATOM      3  O   UNL     1     -37.928  25.755   0.924  0.00  0.00    -0.257 OA
BRANCH   2   4
ATOM      4  O   UNL     1     -38.625  26.316   3.392  0.00  0.00    -0.323 OA
ATOM      5  H   UNL     1     -38.589  27.192   3.805  0.00  0.00    +0.220 HD
ENDBRANCH   2   4
BRANCH   2   6
ATOM      6  O   UNL     1     -36.757  27.652   2.333  0.00  0.00    -0.323 OA
ATOM      7  H   UNL     1     -35.827  27.573   2.068  0.00  0.00    +0.220 HD
ENDBRANCH   2   6
ENDBRANCH   1   2
BRANCH   1   8
ATOM      8  P   UNL     1     -35.608  25.350   4.742  0.00  0.00    +0.358 P 
ATOM      9  O   UNL     1     -34.130  25.580   4.839  0.00  0.00    -0.257 OA
BRANCH   8  10
ATOM     10  O   UNL     1     -36.511  26.575   5.288  0.00  0.00    -0.323 OA
ATOM     11  H   UNL     1     -36.911  27.043   4.538  0.00  0.00    +0.220 HD
ENDBRANCH   8  10
BRANCH   8  12
ATOM     12  O   UNL     1     -36.171  24.087   5.582  0.00  0.00    -0.323 OA
ATOM     13  H   UNL     1     -35.427  23.609   5.981  0.00  0.00    +0.220 HD
ENDBRANCH   8  12
ENDBRANCH   1   8
BRANCH   1  14
ATOM     14  S   UNL     1     -37.129  23.485   3.144  0.00  0.00    -0.090 S 
BRANCH  14  16
ATOM     15 CL   UNL     1     -32.964  19.711   0.318  0.00  0.00    -0.082 Cl
ATOM     16  C   UNL     1     -35.946  22.414   2.342  0.00  0.00    +0.026 C 
ATOM     17  C   UNL     1     -35.173  22.899   1.291  0.00  0.00    +0.007 C 
ATOM     18  C   UNL     1     -35.802  21.097   2.771  0.00  0.00    +0.007 C 
ATOM     19  C   UNL     1     -34.248  22.063   0.665  0.00  0.00    +0.012 C 
ATOM     20  C   UNL     1     -34.878  20.260   2.145  0.00  0.00    +0.012 C 
ATOM     21  C   UNL     1     -34.102  20.743   1.092  0.00  0.00    +0.058 C 
ENDBRANCH  14  16
ENDBRANCH   1  14
TORSDOF 8
ENDMDL
MODEL 5
REMARK VINA RESULT:      -5.1      4.038      5.515
REMARK  Name = 60937
REMARK  8 active torsions:
REMARK  status: ('A' for Active; 'I' for Inactive)
REMARK    1  A    between atoms: C_1  and  P_2
REMARK    2  A    between atoms: C_1  and  P_8
REMARK    3  A    between atoms: C_1  and  S_14
REMARK    4  A    between atoms: P_2  and  O_4
REMARK    5  A    between atoms: P_2  and  O_6
REMARK    6  A    between atoms: P_8  and  O_10
REMARK    7  A    between atoms: P_8  and  O_12
REMARK    8  A    between atoms: S_14  and  C_16
REMARK                            x       y       z     vdW  Elec       q    Type
REMARK                         _______ _______ _______ _____ _____    ______ ____
ROOT
ATOM      1  C   UNL     1     -36.943  24.276   3.188  0.00  0.00    +0.258 C 
ENDROOT
BRANCH   1   2
ATOM      2  P   UNL     1     -35.916  24.862   4.560  0.00  0.00    +0.358 P 
ATOM      3  O   UNL     1     -34.510  25.235   4.193  0.00  0.00    -0.257 OA
BRANCH   2   4
ATOM      4  O   UNL     1     -36.798  26.072   5.170  0.00  0.00    -0.323 OA
ATOM      5  H   UNL     1     -37.741  25.864   5.078  0.00  0.00    +0.220 HD
ENDBRANCH   2   4
BRANCH   2   6
ATOM      6  O   UNL     1     -36.060  23.708   5.684  0.00  0.00    -0.323 OA
ATOM      7  H   UNL     1     -36.938  23.300   5.618  0.00  0.00    +0.220 HD
ENDBRANCH   2   6
ENDBRANCH   1   2
BRANCH   1   8
ATOM      8  P   UNL     1     -38.501  25.044   2.691  0.00  0.00    +0.358 P 
ATOM      9  O   UNL     1     -39.133  24.498   1.446  0.00  0.00    -0.257 OA
BRANCH   8  10
ATOM     10  O   UNL     1     -39.407  24.888   4.022  0.00  0.00    -0.323 OA
ATOM     11  H   UNL     1     -39.856  25.728   4.209  0.00  0.00    +0.220 HD
ENDBRANCH   8  10
BRANCH   8  12
ATOM     12  O   UNL     1     -38.170  26.627   2.666  0.00  0.00    -0.323 OA
ATOM     13  H   UNL     1     -38.902  27.102   2.244  0.00  0.00    +0.220 HD
ENDBRANCH   8  12
ENDBRANCH   1   8
BRANCH   1  14
ATOM     14  S   UNL     1     -35.848  24.430   1.729  0.00  0.00    -0.090 S 
BRANCH  14  16
ATOM     15 CL   UNL     1     -33.592  18.576   1.249  0.00  0.00    -0.082 Cl
ATOM     16  C   UNL     1     -35.207  22.768   1.593  0.00  0.00    +0.026 C 
ATOM     17  C   UNL     1     -34.247  22.472   0.628  0.00  0.00    +0.007 C 
ATOM     18  C   UNL     1     -35.669  21.774   2.452  0.00  0.00    +0.007 C 
ATOM     19  C   UNL     1     -33.746  21.174   0.522  0.00  0.00    +0.012 C 
ATOM     20  C   UNL     1     -35.168  20.476   2.347  0.00  0.00    +0.012 C 
ATOM     21  C   UNL     1     -34.208  20.177   1.382  0.00  0.00    +0.058 C 
ENDBRANCH  14  16
ENDBRANCH   1  14
TORSDOF 8
ENDMDL
MODEL 6
REMARK VINA RESULT:      -5.1      4.763      5.748
REMARK  Name = 60937
REMARK  8 active torsions:
REMARK  status: ('A' for Active; 'I' for Inactive)
REMARK    1  A    between atoms: C_1  and  P_2
REMARK    2  A    between atoms: C_1  and  P_8
REMARK    3  A    between atoms: C_1  and  S_14
REMARK    4  A    between atoms: P_2  and  O_4
REMARK    5  A    between atoms: P_2  and  O_6
REMARK    6  A    between atoms: P_8  and  O_10
REMARK    7  A    between atoms: P_8  and  O_12
REMARK    8  A    between atoms: S_14  and  C_16
REMARK                            x       y       z     vdW  Elec       q    Type
REMARK                         _______ _______ _______ _____ _____    ______ ____
ROOT
ATOM      1  C   UNL     1     -35.374  25.733   3.405  0.00  0.00    +0.258 C 
ENDROOT
BRANCH   1   2
ATOM      2  P   UNL     1     -35.538  27.242   2.418  0.00  0.00    +0.358 P 
ATOM      3  O   UNL     1     -34.765  27.254   1.133  0.00  0.00    -0.257 OA
BRANCH   2   4
ATOM      4  O   UNL     1     -37.141  27.377   2.244  0.00  0.00    -0.323 OA
ATOM      5  H   UNL     1     -37.467  28.100   2.801  0.00  0.00    +0.220 HD
ENDBRANCH   2   4
BRANCH   2   6
ATOM      6  O   UNL     1     -35.187  28.434   3.454  0.00  0.00    -0.323 OA
ATOM      7  H   UNL     1     -34.443  28.165   4.015  0.00  0.00    +0.220 HD
ENDBRANCH   2   6
ENDBRANCH   1   2
BRANCH   1   8
ATOM      8  P   UNL     1     -35.413  25.695   5.211  0.00  0.00    +0.358 P 
ATOM      9  O   UNL     1     -35.399  24.334   5.839  0.00  0.00    -0.257 OA
BRANCH   8  10
ATOM     10  O   UNL     1     -34.151  26.625   5.607  0.00  0.00    -0.323 OA
ATOM     11  H   UNL     1     -33.332  26.110   5.530  0.00  0.00    +0.220 HD
ENDBRANCH   8  10
BRANCH   8  12
ATOM     12  O   UNL     1     -36.679  26.625   5.597  0.00  0.00    -0.323 OA
ATOM     13  H   UNL     1     -36.362  27.452   5.992  0.00  0.00    +0.220 HD
ENDBRANCH   8  12
ENDBRANCH   1   8
BRANCH   1  14
ATOM     14  S   UNL     1     -36.798  24.710   2.875  0.00  0.00    -0.090 S 
BRANCH  14  16
ATOM     15 CL   UNL     1     -33.970  19.260   1.499  0.00  0.00    -0.082 Cl
ATOM     16  C   UNL     1     -35.995  23.164   2.485  0.00  0.00    +0.026 C 
ATOM     17  C   UNL     1     -35.176  23.071   1.362  0.00  0.00    +0.007 C 
ATOM     18  C   UNL     1     -36.190  22.054   3.304  0.00  0.00    +0.007 C 
ATOM     19  C   UNL     1     -34.548  21.863   1.058  0.00  0.00    +0.012 C 
ATOM     20  C   UNL     1     -35.562  20.846   3.000  0.00  0.00    +0.012 C 
ATOM     21  C   UNL     1     -34.742  20.751   1.877  0.00  0.00    +0.058 C 
ENDBRANCH  14  16
ENDBRANCH   1  14
TORSDOF 8
ENDMDL
MODEL 7
REMARK VINA RESULT:      -5.1      4.536      5.516
REMARK  Name = 60937
REMARK  8 active torsions:
REMARK  status: ('A' for Active; 'I' for Inactive)
REMARK    1  A    between atoms: C_1  and  P_2
REMARK    2  A    between atoms: C_1  and  P_8
REMARK    3  A    between atoms: C_1  and  S_14
REMARK    4  A    between atoms: P_2  and  O_4
REMARK    5  A    between atoms: P_2  and  O_6
REMARK    6  A    between atoms: P_8  and  O_10
REMARK    7  A    between atoms: P_8  and  O_12
REMARK    8  A    between atoms: S_14  and  C_16
REMARK                            x       y       z     vdW  Elec       q    Type
REMARK                         _______ _______ _______ _____ _____    ______ ____
ROOT
ATOM      1  C   UNL     1     -35.858  25.326   2.977  0.00  0.00    +0.258 C 
ENDROOT
BRANCH   1   2
ATOM      2  P   UNL     1     -35.719  26.982   2.256  0.00  0.00    +0.358 P 
ATOM      3  O   UNL     1     -34.936  27.061   0.979  0.00  0.00    -0.257 OA
BRANCH   2   4
ATOM      4  O   UNL     1     -37.265  27.442   2.130  0.00  0.00    -0.323 OA
ATOM      5  H   UNL     1     -37.461  28.105   2.809  0.00  0.00    +0.220 HD
ENDBRANCH   2   4
BRANCH   2   6
ATOM      6  O   UNL     1     -35.169  27.898   3.469  0.00  0.00    -0.323 OA
ATOM      7  H   UNL     1     -34.586  28.588   3.114  0.00  0.00    +0.220 HD
ENDBRANCH   2   6
ENDBRANCH   1   2
BRANCH   1   8
ATOM      8  P   UNL     1     -36.671  24.973   4.551  0.00  0.00    +0.358 P 
ATOM      9  O   UNL     1     -36.059  23.879   5.374  0.00  0.00    -0.257 OA
BRANCH   8  10
ATOM     10  O   UNL     1     -36.682  26.421   5.271  0.00  0.00    -0.323 OA
ATOM     11  H   UNL     1     -35.858  26.542   5.770  0.00  0.00    +0.220 HD
ENDBRANCH   8  10
BRANCH   8  12
ATOM     12  O   UNL     1     -38.223  24.758   4.153  0.00  0.00    -0.323 OA
ATOM     13  H   UNL     1     -38.624  25.616   3.944  0.00  0.00    +0.220 HD
ENDBRANCH   8  12
ENDBRANCH   1   8
BRANCH   1  14
ATOM     14  S   UNL     1     -36.810  24.387   1.726  0.00  0.00    -0.090 S 
BRANCH  14  16
ATOM     15 CL   UNL     1     -33.590  18.985   1.514  0.00  0.00    -0.082 Cl
ATOM     16  C   UNL     1     -35.895  22.854   1.666  0.00  0.00    +0.026 C 
ATOM     17  C   UNL     1     -34.818  22.722   0.793  0.00  0.00    +0.007 C 
ATOM     18  C   UNL     1     -36.262  21.794   2.493  0.00  0.00    +0.007 C 
ATOM     19  C   UNL     1     -34.103  21.525   0.747  0.00  0.00    +0.012 C 
ATOM     20  C   UNL     1     -35.548  20.597   2.447  0.00  0.00    +0.012 C 
ATOM     21  C   UNL     1     -34.469  20.463   1.574  0.00  0.00    +0.058 C 
ENDBRANCH  14  16
ENDBRANCH   1  14
TORSDOF 8
ENDMDL
MODEL 8
REMARK VINA RESULT:      -4.9      1.611      3.227
REMARK  Name = 60937
REMARK  8 active torsions:
REMARK  status: ('A' for Active; 'I' for Inactive)
REMARK    1  A    between atoms: C_1  and  P_2
REMARK    2  A    between atoms: C_1  and  P_8
REMARK    3  A    between atoms: C_1  and  S_14
REMARK    4  A    between atoms: P_2  and  O_4
REMARK    5  A    between atoms: P_2  and  O_6
REMARK    6  A    between atoms: P_8  and  O_10
REMARK    7  A    between atoms: P_8  and  O_12
REMARK    8  A    between atoms: S_14  and  C_16
REMARK                            x       y       z     vdW  Elec       q    Type
REMARK                         _______ _______ _______ _____ _____    ______ ____
ROOT
ATOM      1  C   UNL     1     -36.435  22.266   2.251  0.00  0.00    +0.258 C 
ENDROOT
BRANCH   1   2
ATOM      2  P   UNL     1     -35.873  20.666   1.614  0.00  0.00    +0.358 P 
ATOM      3  O   UNL     1     -34.385  20.499   1.526  0.00  0.00    -0.257 OA
BRANCH   2   4
ATOM      4  O   UNL     1     -36.613  19.616   2.596  0.00  0.00    -0.323 OA
ATOM      5  H   UNL     1     -36.076  18.812   2.673  0.00  0.00    +0.220 HD
ENDBRANCH   2   4
BRANCH   2   6
ATOM      6  O   UNL     1     -36.678  20.488   0.223  0.00  0.00    -0.323 OA
ATOM      7  H   UNL     1     -37.579  20.834   0.324  0.00  0.00    +0.220 HD
ENDBRANCH   2   6
ENDBRANCH   1   2
BRANCH   1   8
ATOM      8  P   UNL     1     -38.161  22.796   2.274  0.00  0.00    +0.358 P 
ATOM      9  O   UNL     1     -38.515  23.836   3.294  0.00  0.00    -0.257 OA
BRANCH   8  10
ATOM     10  O   UNL     1     -38.406  23.254   0.742  0.00  0.00    -0.323 OA
ATOM     11  H   UNL     1     -38.188  24.195   0.647  0.00  0.00    +0.220 HD
ENDBRANCH   8  10
BRANCH   8  12
ATOM     12  O   UNL     1     -38.996  21.414   2.372  0.00  0.00    -0.323 OA
ATOM     13  H   UNL     1     -38.408  20.668   2.177  0.00  0.00    +0.220 HD
ENDBRANCH   8  12
ENDBRANCH   1   8
BRANCH   1  14
ATOM     14  S   UNL     1     -35.920  22.238   4.008  0.00  0.00    -0.090 S 
BRANCH  14  16
ATOM     15 CL   UNL     1     -32.934  27.753   4.512  0.00  0.00    -0.082 Cl
ATOM     16  C   UNL     1     -35.072  23.803   4.151  0.00  0.00    +0.026 C 
ATOM     17  C   UNL     1     -34.958  24.419   5.395  0.00  0.00    +0.007 C 
ATOM     18  C   UNL     1     -34.527  24.403   3.018  0.00  0.00    +0.007 C 
ATOM     19  C   UNL     1     -34.295  25.642   5.507  0.00  0.00    +0.012 C 
ATOM     20  C   UNL     1     -33.864  25.625   3.130  0.00  0.00    +0.012 C 
ATOM     21  C   UNL     1     -33.748  26.244   4.374  0.00  0.00    +0.058 C 
ENDBRANCH  14  16
ENDBRANCH   1  14
TORSDOF 8
ENDMDL
MODEL 9
REMARK VINA RESULT:      -4.9      2.094      3.572
REMARK  Name = 60937
REMARK  8 active torsions:
REMARK  status: ('A' for Active; 'I' for Inactive)
REMARK    1  A    between atoms: C_1  and  P_2
REMARK    2  A    between atoms: C_1  and  P_8
REMARK    3  A    between atoms: C_1  and  S_14
REMARK    4  A    between atoms: P_2  and  O_4
REMARK    5  A    between atoms: P_2  and  O_6
REMARK    6  A    between atoms: P_8  and  O_10
REMARK    7  A    between atoms: P_8  and  O_12
REMARK    8  A    between atoms: S_14  and  C_16
REMARK                            x       y       z     vdW  Elec       q    Type
REMARK                         _______ _______ _______ _____ _____    ______ ____
ROOT
ATOM      1  C   UNL     1     -36.154  22.978   2.957  0.00  0.00    +0.258 C 
ENDROOT
BRANCH   1   2
ATOM      2  P   UNL     1     -35.787  21.224   2.697  0.00  0.00    +0.358 P 
ATOM      3  O   UNL     1     -34.751  20.935   1.651  0.00  0.00    -0.257 OA
BRANCH   2   4
ATOM      4  O   UNL     1     -35.404  20.719   4.185  0.00  0.00    -0.323 OA
ATOM      5  H   UNL     1     -35.800  19.848   4.342  0.00  0.00    +0.220 HD
ENDBRANCH   2   4
BRANCH   2   6
ATOM      6  O   UNL     1     -37.235  20.548   2.448  0.00  0.00    -0.323 OA
ATOM      7  H   UNL     1     -37.910  21.242   2.389  0.00  0.00    +0.220 HD
ENDBRANCH   2   6
ENDBRANCH   1   2
BRANCH   1   8
ATOM      8  P   UNL     1     -37.792  23.711   2.750  0.00  0.00    +0.358 P 
ATOM      9  O   UNL     1     -38.904  22.754   2.436  0.00  0.00    -0.257 OA
BRANCH   8  10
ATOM     10  O   UNL     1     -37.987  24.528   4.132  0.00  0.00    -0.323 OA
ATOM     11  H   UNL     1     -37.145  24.937   4.388  0.00  0.00    +0.220 HD
ENDBRANCH   8  10
BRANCH   8  12
ATOM     12  O   UNL     1     -37.563  24.889   1.667  0.00  0.00    -0.323 OA
ATOM     13  H   UNL     1     -37.691  25.750   2.095  0.00  0.00    +0.220 HD
ENDBRANCH   8  12
ENDBRANCH   1   8
BRANCH   1  14
ATOM     14  S   UNL     1     -35.726  23.255   4.716  0.00  0.00    -0.090 S 
BRANCH  14  16
ATOM     15 CL   UNL     1     -32.134  28.406   4.322  0.00  0.00    -0.082 Cl
ATOM     16  C   UNL     1     -34.706  24.716   4.604  0.00  0.00    +0.026 C 
ATOM     17  C   UNL     1     -34.481  25.494   5.738  0.00  0.00    +0.007 C 
ATOM     18  C   UNL     1     -34.139  25.075   3.384  0.00  0.00    +0.007 C 
ATOM     19  C   UNL     1     -33.683  26.635   5.651  0.00  0.00    +0.012 C 
ATOM     20  C   UNL     1     -33.341  26.216   3.296  0.00  0.00    +0.012 C 
ATOM     21  C   UNL     1     -33.114  26.996   4.429  0.00  0.00    +0.058 C 
ENDBRANCH  14  16
ENDBRANCH   1  14
TORSDOF 8
ENDMDL
