MODEL 1
REMARK VINA RESULT:      -5.9      0.000      0.000
REMARK  Name = 5354033
REMARK  11 active torsions:
REMARK  status: ('A' for Active; 'I' for Inactive)
REMARK    1  A    between atoms: C_1  and  N_3
REMARK    2  A    between atoms: C_1  and  S_25
REMARK    3  A    between atoms: C_2  and  C_7
REMARK    4  A    between atoms: C_2  and  C_9
REMARK    5  A    between atoms: C_8  and  N_10
REMARK    6  A    between atoms: C_8  and  S_15
REMARK    7  A    between atoms: C_9  and  C_14
REMARK    8  A    between atoms: S_15  and  C_16
REMARK    9  A    between atoms: C_17  and  N_22
REMARK   10  A    between atoms: S_25  and  C_26
REMARK   11  A    between atoms: C_27  and  N_32
REMARK                            x       y       z     vdW  Elec       q    Type
REMARK                         _______ _______ _______ _____ _____    ______ ____
ROOT
ATOM      1  C   UNL     1     -37.653  22.394   1.818  0.00  0.00    +0.082 C 
ATOM      2  C   UNL     1     -38.175  21.547   0.886  0.00  0.00    +0.099 C 
ENDROOT
BRANCH   1   3
ATOM      3  N   UNL     1     -38.436  23.031   2.757  0.00  0.00    -0.352 N 
ATOM      4  H   UNL     1     -38.326  23.997   2.916  0.00  0.00    +0.143 HD
ATOM      5  H   UNL     1     -39.105  22.521   3.267  0.00  0.00    +0.143 HD
ENDBRANCH   1   3
BRANCH   2   7
ATOM      6  N   UNL     1     -40.724  21.058   0.839  0.00  0.00    -0.191 NA
ATOM      7  C   UNL     1     -39.584  21.277   0.858  0.00  0.00    +0.103 C 
ENDBRANCH   2   7
BRANCH   2   9
ATOM      8  C   UNL     1     -36.799  19.639   0.115  0.00  0.00    +0.082 C 
ATOM      9  C   UNL     1     -37.396  20.836  -0.137  0.00  0.00    +0.099 C 
BRANCH   8  10
ATOM     10  N   UNL     1     -36.891  19.004   1.333  0.00  0.00    -0.352 N 
ATOM     11  H   UNL     1     -37.704  18.499   1.565  0.00  0.00    +0.143 HD
ATOM     12  H   UNL     1     -36.144  19.053   1.972  0.00  0.00    +0.143 HD
ENDBRANCH   8  10
BRANCH   9  14
ATOM     13  N   UNL     1     -37.243  22.045  -2.428  0.00  0.00    -0.191 NA
ATOM     14  C   UNL     1     -37.306  21.506  -1.402  0.00  0.00    +0.103 C 
ENDBRANCH   9  14
BRANCH   8  15
ATOM     15  S   UNL     1     -35.863  18.851  -1.180  0.00  0.00    -0.071 S 
BRANCH  15  16
ATOM     16  C   UNL     1     -34.282  18.822  -0.344  0.00  0.00    +0.043 C 
ATOM     17  C   UNL     1     -33.785  17.664   0.253  0.00  0.00    +0.048 C 
ATOM     18  C   UNL     1     -33.542  20.003  -0.300  0.00  0.00    +0.008 C 
ATOM     19  C   UNL     1     -32.546  17.687   0.895  0.00  0.00    +0.015 C 
ATOM     20  C   UNL     1     -32.303  20.026   0.342  0.00  0.00    +0.001 C 
ATOM     21  C   UNL     1     -31.806  18.869   0.939  0.00  0.00    +0.001 C 
BRANCH  17  22
ATOM     22  N   UNL     1     -34.506  16.449   0.229  0.00  0.00    -0.357 N 
ATOM     23  H   UNL     1     -34.034  15.593   0.347  0.00  0.00    +0.142 HD
ATOM     24  H   UNL     1     -35.482  16.457   0.095  0.00  0.00    +0.142 HD
ENDBRANCH  17  22
ENDBRANCH  15  16
ENDBRANCH   8  15
ENDBRANCH   2   9
BRANCH   1  25
ATOM     25  S   UNL     1     -35.904  22.741   1.776  0.00  0.00    -0.071 S 
BRANCH  25  26
ATOM     26  C   UNL     1     -35.560  22.704   3.528  0.00  0.00    +0.043 C 
ATOM     27  C   UNL     1     -35.402  23.872   4.274  0.00  0.00    +0.048 C 
ATOM     28  C   UNL     1     -35.448  21.459   4.148  0.00  0.00    +0.008 C 
ATOM     29  C   UNL     1     -35.134  23.795   5.641  0.00  0.00    +0.015 C 
ATOM     30  C   UNL     1     -35.179  21.382   5.515  0.00  0.00    +0.001 C 
ATOM     31  C   UNL     1     -35.023  22.551   6.261  0.00  0.00    +0.001 C 
BRANCH  27  32
ATOM     32  N   UNL     1     -35.511  25.150   3.681  0.00  0.00    -0.357 N 
ATOM     33  H   UNL     1     -35.517  25.240   2.700  0.00  0.00    +0.142 HD
ATOM     34  H   UNL     1     -35.580  25.952   4.249  0.00  0.00    +0.142 HD
ENDBRANCH  27  32
ENDBRANCH  25  26
ENDBRANCH   1  25
TORSDOF 11
ENDMDL
MODEL 2
REMARK VINA RESULT:      -5.7      1.976      2.610
REMARK  Name = 5354033
REMARK  11 active torsions:
REMARK  status: ('A' for Active; 'I' for Inactive)
REMARK    1  A    between atoms: C_1  and  N_3
REMARK    2  A    between atoms: C_1  and  S_25
REMARK    3  A    between atoms: C_2  and  C_7
REMARK    4  A    between atoms: C_2  and  C_9
REMARK    5  A    between atoms: C_8  and  N_10
REMARK    6  A    between atoms: C_8  and  S_15
REMARK    7  A    between atoms: C_9  and  C_14
REMARK    8  A    between atoms: S_15  and  C_16
REMARK    9  A    between atoms: C_17  and  N_22
REMARK   10  A    between atoms: S_25  and  C_26
REMARK   11  A    between atoms: C_27  and  N_32
REMARK                            x       y       z     vdW  Elec       q    Type
REMARK                         _______ _______ _______ _____ _____    ______ ____
ROOT
ATOM      1  C   UNL     1     -37.669  25.108   2.748  0.00  0.00    +0.082 C 
ATOM      2  C   UNL     1     -38.543  24.523   1.880  0.00  0.00    +0.099 C 
ENDROOT
BRANCH   1   3
ATOM      3  N   UNL     1     -38.086  25.931   3.771  0.00  0.00    -0.352 N 
ATOM      4  H   UNL     1     -38.478  26.812   3.566  0.00  0.00    +0.143 HD
ATOM      5  H   UNL     1     -37.993  25.640   4.707  0.00  0.00    +0.143 HD
ENDBRANCH   1   3
BRANCH   2   7
ATOM      6  N   UNL     1     -41.097  24.920   2.117  0.00  0.00    -0.191 NA
ATOM      7  C   UNL     1     -39.954  24.742   2.012  0.00  0.00    +0.103 C 
ENDBRANCH   2   7
BRANCH   2   9
ATOM      8  C   UNL     1     -38.191  22.278   0.896  0.00  0.00    +0.082 C 
ATOM      9  C   UNL     1     -38.163  23.633   0.773  0.00  0.00    +0.099 C 
BRANCH   8  10
ATOM     10  N   UNL     1     -38.588  21.644   2.052  0.00  0.00    -0.352 N 
ATOM     11  H   UNL     1     -38.265  21.964   2.925  0.00  0.00    +0.143 HD
ATOM     12  H   UNL     1     -39.195  20.871   2.006  0.00  0.00    +0.143 HD
ENDBRANCH   8  10
BRANCH   9  14
ATOM     13  N   UNL     1     -37.411  24.852  -1.391  0.00  0.00    -0.191 NA
ATOM     14  C   UNL     1     -37.751  24.304  -0.426  0.00  0.00    +0.103 C 
ENDBRANCH   9  14
BRANCH   8  15
ATOM     15  S   UNL     1     -37.703  21.275  -0.493  0.00  0.00    -0.071 S 
BRANCH  15  16
ATOM     16  C   UNL     1     -36.062  20.858   0.082  0.00  0.00    +0.043 C 
ATOM     17  C   UNL     1     -35.796  19.666   0.755  0.00  0.00    +0.048 C 
ATOM     18  C   UNL     1     -35.032  21.768  -0.158  0.00  0.00    +0.008 C 
ATOM     19  C   UNL     1     -34.500  19.382   1.186  0.00  0.00    +0.015 C 
ATOM     20  C   UNL     1     -33.736  21.485   0.273  0.00  0.00    +0.001 C 
ATOM     21  C   UNL     1     -33.470  20.293   0.945  0.00  0.00    +0.001 C 
BRANCH  17  22
ATOM     22  N   UNL     1     -36.813  18.720   1.016  0.00  0.00    -0.357 N 
ATOM     23  H   UNL     1     -36.774  17.827   0.603  0.00  0.00    +0.142 HD
ATOM     24  H   UNL     1     -37.560  18.953   1.613  0.00  0.00    +0.142 HD
ENDBRANCH  17  22
ENDBRANCH  15  16
ENDBRANCH   8  15
ENDBRANCH   2   9
BRANCH   1  25
ATOM     25  S   UNL     1     -35.920  24.850   2.508  0.00  0.00    -0.071 S 
BRANCH  25  26
ATOM     26  C   UNL     1     -35.625  23.650   3.797  0.00  0.00    +0.043 C 
ATOM     27  C   UNL     1     -35.412  24.029   5.123  0.00  0.00    +0.048 C 
ATOM     28  C   UNL     1     -35.611  22.301   3.446  0.00  0.00    +0.008 C 
ATOM     29  C   UNL     1     -35.185  23.057   6.097  0.00  0.00    +0.015 C 
ATOM     30  C   UNL     1     -35.383  21.328   4.421  0.00  0.00    +0.001 C 
ATOM     31  C   UNL     1     -35.170  21.707   5.746  0.00  0.00    +0.001 C 
BRANCH  27  32
ATOM     32  N   UNL     1     -35.422  25.386   5.516  0.00  0.00    -0.357 N 
ATOM     33  H   UNL     1     -35.075  25.646   6.400  0.00  0.00    +0.142 HD
ATOM     34  H   UNL     1     -35.776  26.073   4.906  0.00  0.00    +0.142 HD
ENDBRANCH  27  32
ENDBRANCH  25  26
ENDBRANCH   1  25
TORSDOF 11
ENDMDL
MODEL 3
REMARK VINA RESULT:      -5.6      0.752      1.376
REMARK  Name = 5354033
REMARK  11 active torsions:
REMARK  status: ('A' for Active; 'I' for Inactive)
REMARK    1  A    between atoms: C_1  and  N_3
REMARK    2  A    between atoms: C_1  and  S_25
REMARK    3  A    between atoms: C_2  and  C_7
REMARK    4  A    between atoms: C_2  and  C_9
REMARK    5  A    between atoms: C_8  and  N_10
REMARK    6  A    between atoms: C_8  and  S_15
REMARK    7  A    between atoms: C_9  and  C_14
REMARK    8  A    between atoms: S_15  and  C_16
REMARK    9  A    between atoms: C_17  and  N_22
REMARK   10  A    between atoms: S_25  and  C_26
REMARK   11  A    between atoms: C_27  and  N_32
REMARK                            x       y       z     vdW  Elec       q    Type
REMARK                         _______ _______ _______ _____ _____    ______ ____
ROOT
ATOM      1  C   UNL     1     -37.780  22.449   1.822  0.00  0.00    +0.082 C 
ATOM      2  C   UNL     1     -38.283  21.597   0.884  0.00  0.00    +0.099 C 
ENDROOT
BRANCH   1   3
ATOM      3  N   UNL     1     -38.575  23.052   2.772  0.00  0.00    -0.352 N 
ATOM      4  H   UNL     1     -39.278  23.686   2.497  0.00  0.00    +0.143 HD
ATOM      5  H   UNL     1     -38.442  22.850   3.726  0.00  0.00    +0.143 HD
ENDBRANCH   1   3
BRANCH   2   7
ATOM      6  N   UNL     1     -40.818  21.037   0.845  0.00  0.00    -0.191 NA
ATOM      7  C   UNL     1     -39.684  21.286   0.862  0.00  0.00    +0.103 C 
ENDBRANCH   2   7
BRANCH   2   9
ATOM      8  C   UNL     1     -36.852  19.740   0.086  0.00  0.00    +0.082 C 
ATOM      9  C   UNL     1     -37.490  20.919  -0.151  0.00  0.00    +0.099 C 
BRANCH   8  10
ATOM     10  N   UNL     1     -36.913  19.093   1.299  0.00  0.00    -0.352 N 
ATOM     11  H   UNL     1     -37.735  19.137   1.840  0.00  0.00    +0.143 HD
ATOM     12  H   UNL     1     -36.136  18.585   1.627  0.00  0.00    +0.143 HD
ENDBRANCH   8  10
BRANCH   9  14
ATOM     13  N   UNL     1     -37.393  22.148  -2.435  0.00  0.00    -0.191 NA
ATOM     14  C   UNL     1     -37.433  21.602  -1.411  0.00  0.00    +0.103 C 
ENDBRANCH   9  14
BRANCH   8  15
ATOM     15  S   UNL     1     -35.902  18.994  -1.224  0.00  0.00    -0.071 S 
BRANCH  15  16
ATOM     16  C   UNL     1     -34.323  18.969  -0.385  0.00  0.00    +0.043 C 
ATOM     17  C   UNL     1     -33.496  20.091  -0.336  0.00  0.00    +0.048 C 
ATOM     18  C   UNL     1     -33.926  17.782   0.231  0.00  0.00    +0.008 C 
ATOM     19  C   UNL     1     -32.272  20.026   0.331  0.00  0.00    +0.015 C 
ATOM     20  C   UNL     1     -32.702  17.717   0.897  0.00  0.00    +0.001 C 
ATOM     21  C   UNL     1     -31.875  18.838   0.947  0.00  0.00    +0.001 C 
BRANCH  17  22
ATOM     22  N   UNL     1     -33.864  21.310  -0.947  0.00  0.00    -0.357 N 
ATOM     23  H   UNL     1     -34.482  21.925  -0.489  0.00  0.00    +0.142 HD
ATOM     24  H   UNL     1     -33.501  21.548  -1.831  0.00  0.00    +0.142 HD
ENDBRANCH  17  22
ENDBRANCH  15  16
ENDBRANCH   8  15
ENDBRANCH   2   9
BRANCH   1  25
ATOM     25  S   UNL     1     -36.042  22.847   1.773  0.00  0.00    -0.071 S 
BRANCH  25  26
ATOM     26  C   UNL     1     -35.671  22.734   3.516  0.00  0.00    +0.043 C 
ATOM     27  C   UNL     1     -35.589  23.865   4.328  0.00  0.00    +0.048 C 
ATOM     28  C   UNL     1     -35.459  21.467   4.061  0.00  0.00    +0.008 C 
ATOM     29  C   UNL     1     -35.296  23.729   5.685  0.00  0.00    +0.015 C 
ATOM     30  C   UNL     1     -35.165  21.331   5.418  0.00  0.00    +0.001 C 
ATOM     31  C   UNL     1     -35.084  22.463   6.230  0.00  0.00    +0.001 C 
BRANCH  27  32
ATOM     32  N   UNL     1     -35.800  25.164   3.813  0.00  0.00    -0.357 N 
ATOM     33  H   UNL     1     -36.634  25.646   4.016  0.00  0.00    +0.142 HD
ATOM     34  H   UNL     1     -35.112  25.587   3.249  0.00  0.00    +0.142 HD
ENDBRANCH  27  32
ENDBRANCH  25  26
ENDBRANCH   1  25
TORSDOF 11
ENDMDL
MODEL 4
REMARK VINA RESULT:      -5.4      1.731      5.974
REMARK  Name = 5354033
REMARK  11 active torsions:
REMARK  status: ('A' for Active; 'I' for Inactive)
REMARK    1  A    between atoms: C_1  and  N_3
REMARK    2  A    between atoms: C_1  and  S_25
REMARK    3  A    between atoms: C_2  and  C_7
REMARK    4  A    between atoms: C_2  and  C_9
REMARK    5  A    between atoms: C_8  and  N_10
REMARK    6  A    between atoms: C_8  and  S_15
REMARK    7  A    between atoms: C_9  and  C_14
REMARK    8  A    between atoms: S_15  and  C_16
REMARK    9  A    between atoms: C_17  and  N_22
REMARK   10  A    between atoms: S_25  and  C_26
REMARK   11  A    between atoms: C_27  and  N_32
REMARK                            x       y       z     vdW  Elec       q    Type
REMARK                         _______ _______ _______ _____ _____    ______ ____
ROOT
ATOM      1  C   UNL     1     -35.763  19.545   0.340  0.00  0.00    +0.082 C 
ATOM      2  C   UNL     1     -36.717  20.426  -0.070  0.00  0.00    +0.099 C 
ENDROOT
BRANCH   1   3
ATOM      3  N   UNL     1     -35.638  18.285  -0.205  0.00  0.00    -0.352 N 
ATOM      4  H   UNL     1     -34.760  17.970  -0.521  0.00  0.00    +0.143 HD
ATOM      5  H   UNL     1     -36.426  17.700  -0.279  0.00  0.00    +0.143 HD
ENDBRANCH   1   3
BRANCH   2   7
ATOM      6  N   UNL     1     -38.380  19.778  -1.955  0.00  0.00    -0.191 NA
ATOM      7  C   UNL     1     -37.636  20.069  -1.112  0.00  0.00    +0.103 C 
ENDBRANCH   2   7
BRANCH   2   9
ATOM      8  C   UNL     1     -37.729  22.036   1.517  0.00  0.00    +0.082 C 
ATOM      9  C   UNL     1     -36.900  21.782   0.468  0.00  0.00    +0.099 C 
BRANCH   8  10
ATOM     10  N   UNL     1     -38.444  21.048   2.156  0.00  0.00    -0.352 N 
ATOM     11  H   UNL     1     -39.261  21.276   2.656  0.00  0.00    +0.143 HD
ATOM     12  H   UNL     1     -38.138  20.114   2.114  0.00  0.00    +0.143 HD
ENDBRANCH   8  10
BRANCH   9  14
ATOM     13  N   UNL     1     -35.541  23.633  -0.741  0.00  0.00    -0.191 NA
ATOM     14  C   UNL     1     -36.151  22.804  -0.205  0.00  0.00    +0.103 C 
ENDBRANCH   9  14
BRANCH   8  15
ATOM     15  S   UNL     1     -37.899  23.712   2.097  0.00  0.00    -0.071 S 
BRANCH  15  16
ATOM     16  C   UNL     1     -36.817  23.581   3.515  0.00  0.00    +0.043 C 
ATOM     17  C   UNL     1     -36.595  24.656   4.375  0.00  0.00    +0.048 C 
ATOM     18  C   UNL     1     -36.186  22.359   3.747  0.00  0.00    +0.008 C 
ATOM     19  C   UNL     1     -35.741  24.508   5.470  0.00  0.00    +0.015 C 
ATOM     20  C   UNL     1     -35.333  22.211   4.842  0.00  0.00    +0.001 C 
ATOM     21  C   UNL     1     -35.111  23.285   5.702  0.00  0.00    +0.001 C 
BRANCH  17  22
ATOM     22  N   UNL     1     -37.216  25.909   4.173  0.00  0.00    -0.357 N 
ATOM     23  H   UNL     1     -38.169  25.952   3.932  0.00  0.00    +0.142 HD
ATOM     24  H   UNL     1     -36.696  26.739   4.273  0.00  0.00    +0.142 HD
ENDBRANCH  17  22
ENDBRANCH  15  16
ENDBRANCH   8  15
ENDBRANCH   2   9
BRANCH   1  25
ATOM     25  S   UNL     1     -34.679  20.015   1.678  0.00  0.00    -0.071 S 
BRANCH  25  26
ATOM     26  C   UNL     1     -33.140  20.121   0.780  0.00  0.00    +0.043 C 
ATOM     27  C   UNL     1     -32.191  19.100   0.820  0.00  0.00    +0.048 C 
ATOM     28  C   UNL     1     -32.900  21.268   0.024  0.00  0.00    +0.008 C 
ATOM     29  C   UNL     1     -31.001  19.226   0.102  0.00  0.00    +0.015 C 
ATOM     30  C   UNL     1     -31.710  21.395  -0.693  0.00  0.00    +0.001 C 
ATOM     31  C   UNL     1     -30.761  20.373  -0.654  0.00  0.00    +0.001 C 
BRANCH  27  32
ATOM     32  N   UNL     1     -32.400  17.922   1.572  0.00  0.00    -0.357 N 
ATOM     33  H   UNL     1     -32.300  17.040   1.146  0.00  0.00    +0.142 HD
ATOM     34  H   UNL     1     -32.648  17.984   2.523  0.00  0.00    +0.142 HD
ENDBRANCH  27  32
ENDBRANCH  25  26
ENDBRANCH   1  25
TORSDOF 11
ENDMDL
MODEL 5
REMARK VINA RESULT:      -5.3      1.871      2.598
REMARK  Name = 5354033
REMARK  11 active torsions:
REMARK  status: ('A' for Active; 'I' for Inactive)
REMARK    1  A    between atoms: C_1  and  N_3
REMARK    2  A    between atoms: C_1  and  S_25
REMARK    3  A    between atoms: C_2  and  C_7
REMARK    4  A    between atoms: C_2  and  C_9
REMARK    5  A    between atoms: C_8  and  N_10
REMARK    6  A    between atoms: C_8  and  S_15
REMARK    7  A    between atoms: C_9  and  C_14
REMARK    8  A    between atoms: S_15  and  C_16
REMARK    9  A    between atoms: C_17  and  N_22
REMARK   10  A    between atoms: S_25  and  C_26
REMARK   11  A    between atoms: C_27  and  N_32
REMARK                            x       y       z     vdW  Elec       q    Type
REMARK                         _______ _______ _______ _____ _____    ______ ____
ROOT
ATOM      1  C   UNL     1     -37.903  23.005   2.084  0.00  0.00    +0.082 C 
ATOM      2  C   UNL     1     -38.224  21.975   1.252  0.00  0.00    +0.099 C 
ENDROOT
BRANCH   1   3
ATOM      3  N   UNL     1     -38.844  23.651   2.856  0.00  0.00    -0.352 N 
ATOM      4  H   UNL     1     -39.730  23.243   2.996  0.00  0.00    +0.143 HD
ATOM      5  H   UNL     1     -38.632  24.519   3.269  0.00  0.00    +0.143 HD
ENDBRANCH   1   3
BRANCH   2   7
ATOM      6  N   UNL     1     -40.673  21.132   1.082  0.00  0.00    -0.191 NA
ATOM      7  C   UNL     1     -39.578  21.510   1.159  0.00  0.00    +0.103 C 
ENDBRANCH   2   7
BRANCH   2   9
ATOM      8  C   UNL     1     -36.641  20.115   0.838  0.00  0.00    +0.082 C 
ATOM      9  C   UNL     1     -37.268  21.244   0.407  0.00  0.00    +0.099 C 
BRANCH   8  10
ATOM     10  N   UNL     1     -36.866  19.569   2.082  0.00  0.00    -0.352 N 
ATOM     11  H   UNL     1     -37.247  20.123   2.801  0.00  0.00    +0.143 HD
ATOM     12  H   UNL     1     -36.645  18.625   2.253  0.00  0.00    +0.143 HD
ENDBRANCH   8  10
BRANCH   9  14
ATOM     13  N   UNL     1     -36.850  22.293  -1.930  0.00  0.00    -0.191 NA
ATOM     14  C   UNL     1     -37.042  21.822  -0.886  0.00  0.00    +0.103 C 
ENDBRANCH   9  14
BRANCH   8  15
ATOM     15  S   UNL     1     -35.488  19.299  -0.248  0.00  0.00    -0.071 S 
BRANCH  15  16
ATOM     16  C   UNL     1     -36.474  17.846  -0.589  0.00  0.00    +0.043 C 
ATOM     17  C   UNL     1     -35.981  16.557  -0.389  0.00  0.00    +0.048 C 
ATOM     18  C   UNL     1     -37.770  18.031  -1.069  0.00  0.00    +0.008 C 
ATOM     19  C   UNL     1     -36.785  15.452  -0.669  0.00  0.00    +0.015 C 
ATOM     20  C   UNL     1     -38.574  16.926  -1.350  0.00  0.00    +0.001 C 
ATOM     21  C   UNL     1     -38.082  15.637  -1.150  0.00  0.00    +0.001 C 
BRANCH  17  22
ATOM     22  N   UNL     1     -34.673  16.330   0.096  0.00  0.00    -0.357 N 
ATOM     23  H   UNL     1     -34.354  15.410   0.240  0.00  0.00    +0.142 HD
ATOM     24  H   UNL     1     -34.081  17.092   0.290  0.00  0.00    +0.142 HD
ENDBRANCH  17  22
ENDBRANCH  15  16
ENDBRANCH   8  15
ENDBRANCH   2   9
BRANCH   1  25
ATOM     25  S   UNL     1     -36.215  23.583   2.122  0.00  0.00    -0.071 S 
BRANCH  25  26
ATOM     26  C   UNL     1     -35.784  23.106   3.788  0.00  0.00    +0.043 C 
ATOM     27  C   UNL     1     -35.770  24.024   4.838  0.00  0.00    +0.048 C 
ATOM     28  C   UNL     1     -35.454  21.772   4.023  0.00  0.00    +0.008 C 
ATOM     29  C   UNL     1     -35.427  23.608   6.124  0.00  0.00    +0.015 C 
ATOM     30  C   UNL     1     -35.110  21.355   5.310  0.00  0.00    +0.001 C 
ATOM     31  C   UNL     1     -35.097  22.273   6.360  0.00  0.00    +0.001 C 
BRANCH  27  32
ATOM     32  N   UNL     1     -36.101  25.384   4.638  0.00  0.00    -0.357 N 
ATOM     33  H   UNL     1     -36.259  25.972   5.411  0.00  0.00    +0.142 HD
ATOM     34  H   UNL     1     -36.175  25.743   3.724  0.00  0.00    +0.142 HD
ENDBRANCH  27  32
ENDBRANCH  25  26
ENDBRANCH   1  25
TORSDOF 11
ENDMDL
MODEL 6
REMARK VINA RESULT:      -5.3      3.472      6.223
REMARK  Name = 5354033
REMARK  11 active torsions:
REMARK  status: ('A' for Active; 'I' for Inactive)
REMARK    1  A    between atoms: C_1  and  N_3
REMARK    2  A    between atoms: C_1  and  S_25
REMARK    3  A    between atoms: C_2  and  C_7
REMARK    4  A    between atoms: C_2  and  C_9
REMARK    5  A    between atoms: C_8  and  N_10
REMARK    6  A    between atoms: C_8  and  S_15
REMARK    7  A    between atoms: C_9  and  C_14
REMARK    8  A    between atoms: S_15  and  C_16
REMARK    9  A    between atoms: C_17  and  N_22
REMARK   10  A    between atoms: S_25  and  C_26
REMARK   11  A    between atoms: C_27  and  N_32
REMARK                            x       y       z     vdW  Elec       q    Type
REMARK                         _______ _______ _______ _____ _____    ______ ____
ROOT
ATOM      1  C   UNL     1     -37.855  22.984   1.825  0.00  0.00    +0.082 C 
ATOM      2  C   UNL     1     -38.512  24.136   1.510  0.00  0.00    +0.099 C 
ENDROOT
BRANCH   1   3
ATOM      3  N   UNL     1     -38.515  21.846   2.235  0.00  0.00    -0.352 N 
ATOM      4  H   UNL     1     -38.049  20.978   2.232  0.00  0.00    +0.143 HD
ATOM      5  H   UNL     1     -39.452  21.901   2.531  0.00  0.00    +0.143 HD
ENDBRANCH   1   3
BRANCH   2   7
ATOM      6  N   UNL     1     -41.102  24.248   1.647  0.00  0.00    -0.191 NA
ATOM      7  C   UNL     1     -39.943  24.199   1.585  0.00  0.00    +0.103 C 
ENDBRANCH   2   7
BRANCH   2   9
ATOM      8  C   UNL     1     -37.582  26.393   1.926  0.00  0.00    +0.082 C 
ATOM      9  C   UNL     1     -37.867  25.379   1.063  0.00  0.00    +0.099 C 
BRANCH   8  10
ATOM     10  N   UNL     1     -37.860  26.324   3.273  0.00  0.00    -0.352 N 
ATOM     11  H   UNL     1     -38.601  25.761   3.594  0.00  0.00    +0.143 HD
ATOM     12  H   UNL     1     -37.320  26.838   3.914  0.00  0.00    +0.143 HD
ENDBRANCH   8  10
BRANCH   9  14
ATOM     13  N   UNL     1     -37.357  25.482  -1.479  0.00  0.00    -0.191 NA
ATOM     14  C   UNL     1     -37.581  25.440  -0.341  0.00  0.00    +0.103 C 
ENDBRANCH   9  14
BRANCH   8  15
ATOM     15  S   UNL     1     -36.810  27.870   1.297  0.00  0.00    -0.071 S 
BRANCH  15  16
ATOM     16  C   UNL     1     -35.200  27.628   2.037  0.00  0.00    +0.043 C 
ATOM     17  C   UNL     1     -34.625  28.578   2.881  0.00  0.00    +0.048 C 
ATOM     18  C   UNL     1     -34.516  26.448   1.747  0.00  0.00    +0.008 C 
ATOM     19  C   UNL     1     -33.366  28.347   3.436  0.00  0.00    +0.015 C 
ATOM     20  C   UNL     1     -33.257  26.216   2.302  0.00  0.00    +0.001 C 
ATOM     21  C   UNL     1     -32.682  27.165   3.146  0.00  0.00    +0.001 C 
BRANCH  17  22
ATOM     22  N   UNL     1     -35.287  29.785   3.198  0.00  0.00    -0.357 N 
ATOM     23  H   UNL     1     -35.807  29.858   4.030  0.00  0.00    +0.142 HD
ATOM     24  H   UNL     1     -35.228  30.555   2.586  0.00  0.00    +0.142 HD
ENDBRANCH  17  22
ENDBRANCH  15  16
ENDBRANCH   8  15
ENDBRANCH   2   9
BRANCH   1  25
ATOM     25  S   UNL     1     -36.071  22.973   1.770  0.00  0.00    -0.071 S 
BRANCH  25  26
ATOM     26  C   UNL     1     -35.729  22.802   3.514  0.00  0.00    +0.043 C 
ATOM     27  C   UNL     1     -35.455  21.563   4.095  0.00  0.00    +0.048 C 
ATOM     28  C   UNL     1     -35.744  23.953   4.301  0.00  0.00    +0.008 C 
ATOM     29  C   UNL     1     -35.194  21.477   5.462  0.00  0.00    +0.015 C 
ATOM     30  C   UNL     1     -35.484  23.867   5.669  0.00  0.00    +0.001 C 
ATOM     31  C   UNL     1     -35.209  22.629   6.249  0.00  0.00    +0.001 C 
BRANCH  27  32
ATOM     32  N   UNL     1     -35.429  20.376   3.329  0.00  0.00    -0.357 N 
ATOM     33  H   UNL     1     -35.638  19.512   3.752  0.00  0.00    +0.142 HD
ATOM     34  H   UNL     1     -35.199  20.413   2.372  0.00  0.00    +0.142 HD
ENDBRANCH  27  32
ENDBRANCH  25  26
ENDBRANCH   1  25
TORSDOF 11
ENDMDL
MODEL 7
REMARK VINA RESULT:      -5.3      3.142      6.525
REMARK  Name = 5354033
REMARK  11 active torsions:
REMARK  status: ('A' for Active; 'I' for Inactive)
REMARK    1  A    between atoms: C_1  and  N_3
REMARK    2  A    between atoms: C_1  and  S_25
REMARK    3  A    between atoms: C_2  and  C_7
REMARK    4  A    between atoms: C_2  and  C_9
REMARK    5  A    between atoms: C_8  and  N_10
REMARK    6  A    between atoms: C_8  and  S_15
REMARK    7  A    between atoms: C_9  and  C_14
REMARK    8  A    between atoms: S_15  and  C_16
REMARK    9  A    between atoms: C_17  and  N_22
REMARK   10  A    between atoms: S_25  and  C_26
REMARK   11  A    between atoms: C_27  and  N_32
REMARK                            x       y       z     vdW  Elec       q    Type
REMARK                         _______ _______ _______ _____ _____    ______ ____
ROOT
ATOM      1  C   UNL     1     -36.921  21.301   1.933  0.00  0.00    +0.082 C 
ATOM      2  C   UNL     1     -38.023  22.072   1.716  0.00  0.00    +0.099 C 
ENDROOT
BRANCH   1   3
ATOM      3  N   UNL     1     -37.007  19.964   2.255  0.00  0.00    -0.352 N 
ATOM      4  H   UNL     1     -37.880  19.508   2.233  0.00  0.00    +0.143 HD
ATOM      5  H   UNL     1     -36.196  19.464   2.504  0.00  0.00    +0.143 HD
ENDBRANCH   1   3
BRANCH   2   7
ATOM      6  N   UNL     1     -40.402  21.044   1.876  0.00  0.00    -0.191 NA
ATOM      7  C   UNL     1     -39.337  21.503   1.805  0.00  0.00    +0.103 C 
ENDBRANCH   2   7
BRANCH   2   9
ATOM      8  C   UNL     1     -38.161  24.474   2.303  0.00  0.00    +0.082 C 
ATOM      9  C   UNL     1     -37.998  23.500   1.367  0.00  0.00    +0.099 C 
BRANCH   8  10
ATOM     10  N   UNL     1     -38.347  24.197   3.639  0.00  0.00    -0.352 N 
ATOM     11  H   UNL     1     -38.503  24.931   4.277  0.00  0.00    +0.143 HD
ATOM     12  H   UNL     1     -38.323  23.266   3.957  0.00  0.00    +0.143 HD
ENDBRANCH   8  10
BRANCH   9  14
ATOM     13  N   UNL     1     -37.657  24.004  -1.156  0.00  0.00    -0.191 NA
ATOM     14  C   UNL     1     -37.804  23.777  -0.028  0.00  0.00    +0.103 C 
ENDBRANCH   9  14
BRANCH   8  15
ATOM     15  S   UNL     1     -38.128  26.180   1.790  0.00  0.00    -0.071 S 
BRANCH  15  16
ATOM     16  C   UNL     1     -39.876  26.358   1.453  0.00  0.00    +0.043 C 
ATOM     17  C   UNL     1     -40.360  26.584   0.165  0.00  0.00    +0.048 C 
ATOM     18  C   UNL     1     -40.763  26.266   2.525  0.00  0.00    +0.008 C 
ATOM     19  C   UNL     1     -41.732  26.717  -0.051  0.00  0.00    +0.015 C 
ATOM     20  C   UNL     1     -42.135  26.399   2.310  0.00  0.00    +0.001 C 
ATOM     21  C   UNL     1     -42.619  26.624   1.022  0.00  0.00    +0.001 C 
BRANCH  17  22
ATOM     22  N   UNL     1     -39.492  26.683  -0.946  0.00  0.00    -0.357 N 
ATOM     23  H   UNL     1     -38.629  26.210  -0.941  0.00  0.00    +0.142 HD
ATOM     24  H   UNL     1     -39.752  27.224  -1.727  0.00  0.00    +0.142 HD
ENDBRANCH  17  22
ENDBRANCH  15  16
ENDBRANCH   8  15
ENDBRANCH   2   9
BRANCH   1  25
ATOM     25  S   UNL     1     -35.311  22.069   1.866  0.00  0.00    -0.071 S 
BRANCH  25  26
ATOM     26  C   UNL     1     -35.203  22.662   3.546  0.00  0.00    +0.043 C 
ATOM     27  C   UNL     1     -34.839  23.975   3.843  0.00  0.00    +0.048 C 
ATOM     28  C   UNL     1     -35.495  21.769   4.577  0.00  0.00    +0.008 C 
ATOM     29  C   UNL     1     -34.767  24.396   5.171  0.00  0.00    +0.015 C 
ATOM     30  C   UNL     1     -35.423  22.189   5.906  0.00  0.00    +0.001 C 
ATOM     31  C   UNL     1     -35.059  23.502   6.202  0.00  0.00    +0.001 C 
BRANCH  27  32
ATOM     32  N   UNL     1     -34.538  24.909   2.826  0.00  0.00    -0.357 N 
ATOM     33  H   UNL     1     -35.240  25.197   2.198  0.00  0.00    +0.142 HD
ATOM     34  H   UNL     1     -33.626  25.271   2.743  0.00  0.00    +0.142 HD
ENDBRANCH  27  32
ENDBRANCH  25  26
ENDBRANCH   1  25
TORSDOF 11
ENDMDL
MODEL 8
REMARK VINA RESULT:      -5.3      4.669      8.327
REMARK  Name = 5354033
REMARK  11 active torsions:
REMARK  status: ('A' for Active; 'I' for Inactive)
REMARK    1  A    between atoms: C_1  and  N_3
REMARK    2  A    between atoms: C_1  and  S_25
REMARK    3  A    between atoms: C_2  and  C_7
REMARK    4  A    between atoms: C_2  and  C_9
REMARK    5  A    between atoms: C_8  and  N_10
REMARK    6  A    between atoms: C_8  and  S_15
REMARK    7  A    between atoms: C_9  and  C_14
REMARK    8  A    between atoms: S_15  and  C_16
REMARK    9  A    between atoms: C_17  and  N_22
REMARK   10  A    between atoms: S_25  and  C_26
REMARK   11  A    between atoms: C_27  and  N_32
REMARK                            x       y       z     vdW  Elec       q    Type
REMARK                         _______ _______ _______ _____ _____    ______ ____
ROOT
ATOM      1  C   UNL     1     -36.806  26.103   3.248  0.00  0.00    +0.082 C 
ATOM      2  C   UNL     1     -36.346  26.953   2.287  0.00  0.00    +0.099 C 
ENDROOT
BRANCH   1   3
ATOM      3  N   UNL     1     -38.138  25.769   3.361  0.00  0.00    -0.352 N 
ATOM      4  H   UNL     1     -38.812  26.237   2.816  0.00  0.00    +0.143 HD
ATOM      5  H   UNL     1     -38.417  25.061   3.986  0.00  0.00    +0.143 HD
ENDBRANCH   1   3
BRANCH   2   7
ATOM      6  N   UNL     1     -37.983  27.998   0.564  0.00  0.00    -0.191 NA
ATOM      7  C   UNL     1     -37.251  27.532   1.336  0.00  0.00    +0.103 C 
ENDBRANCH   2   7
BRANCH   2   9
ATOM      8  C   UNL     1     -34.436  28.485   2.658  0.00  0.00    +0.082 C 
ATOM      9  C   UNL     1     -34.940  27.345   2.111  0.00  0.00    +0.099 C 
BRANCH   8  10
ATOM     10  N   UNL     1     -35.195  29.341   3.424  0.00  0.00    -0.352 N 
ATOM     11  H   UNL     1     -35.229  30.300   3.202  0.00  0.00    +0.143 HD
ATOM     12  H   UNL     1     -35.704  28.995   4.192  0.00  0.00    +0.143 HD
ENDBRANCH   8  10
BRANCH   9  14
ATOM     13  N   UNL     1     -33.533  25.720   0.657  0.00  0.00    -0.191 NA
ATOM     14  C   UNL     1     -34.159  26.446   1.312  0.00  0.00    +0.103 C 
ENDBRANCH   9  14
BRANCH   8  15
ATOM     15  S   UNL     1     -32.722  28.889   2.384  0.00  0.00    -0.071 S 
BRANCH  15  16
ATOM     16  C   UNL     1     -32.284  29.223   4.085  0.00  0.00    +0.043 C 
ATOM     17  C   UNL     1     -31.994  30.512   4.533  0.00  0.00    +0.048 C 
ATOM     18  C   UNL     1     -32.236  28.149   4.973  0.00  0.00    +0.008 C 
ATOM     19  C   UNL     1     -31.656  30.726   5.870  0.00  0.00    +0.015 C 
ATOM     20  C   UNL     1     -31.899  28.363   6.310  0.00  0.00    +0.001 C 
ATOM     21  C   UNL     1     -31.609  29.651   6.758  0.00  0.00    +0.001 C 
BRANCH  17  22
ATOM     22  N   UNL     1     -32.032  31.625   3.663  0.00  0.00    -0.357 N 
ATOM     23  H   UNL     1     -31.193  32.030   3.344  0.00  0.00    +0.142 HD
ATOM     24  H   UNL     1     -32.898  31.995   3.374  0.00  0.00    +0.142 HD
ENDBRANCH  17  22
ENDBRANCH  15  16
ENDBRANCH   8  15
ENDBRANCH   2   9
BRANCH   1  25
ATOM     25  S   UNL     1     -35.650  25.453   4.442  0.00  0.00    -0.071 S 
BRANCH  25  26
ATOM     26  C   UNL     1     -35.567  23.762   3.874  0.00  0.00    +0.043 C 
ATOM     27  C   UNL     1     -35.590  22.684   4.758  0.00  0.00    +0.048 C 
ATOM     28  C   UNL     1     -35.476  23.536   2.500  0.00  0.00    +0.008 C 
ATOM     29  C   UNL     1     -35.523  21.380   4.270  0.00  0.00    +0.015 C 
ATOM     30  C   UNL     1     -35.409  22.231   2.011  0.00  0.00    +0.001 C 
ATOM     31  C   UNL     1     -35.432  21.153   2.896  0.00  0.00    +0.001 C 
BRANCH  27  32
ATOM     32  N   UNL     1     -35.684  22.875   6.156  0.00  0.00    -0.357 N 
ATOM     33  H   UNL     1     -35.306  23.685   6.569  0.00  0.00    +0.142 HD
ATOM     34  H   UNL     1     -36.125  22.196   6.716  0.00  0.00    +0.142 HD
ENDBRANCH  27  32
ENDBRANCH  25  26
ENDBRANCH   1  25
TORSDOF 11
ENDMDL
MODEL 9
REMARK VINA RESULT:      -5.2      4.328      6.966
REMARK  Name = 5354033
REMARK  11 active torsions:
REMARK  status: ('A' for Active; 'I' for Inactive)
REMARK    1  A    between atoms: C_1  and  N_3
REMARK    2  A    between atoms: C_1  and  S_25
REMARK    3  A    between atoms: C_2  and  C_7
REMARK    4  A    between atoms: C_2  and  C_9
REMARK    5  A    between atoms: C_8  and  N_10
REMARK    6  A    between atoms: C_8  and  S_15
REMARK    7  A    between atoms: C_9  and  C_14
REMARK    8  A    between atoms: S_15  and  C_16
REMARK    9  A    between atoms: C_17  and  N_22
REMARK   10  A    between atoms: S_25  and  C_26
REMARK   11  A    between atoms: C_27  and  N_32
REMARK                            x       y       z     vdW  Elec       q    Type
REMARK                         _______ _______ _______ _____ _____    ______ ____
ROOT
ATOM      1  C   UNL     1     -41.014  24.550   0.927  0.00  0.00    +0.082 C 
ATOM      2  C   UNL     1     -39.960  23.726   1.189  0.00  0.00    +0.099 C 
ENDROOT
BRANCH   1   3
ATOM      3  N   UNL     1     -42.290  24.072   0.720  0.00  0.00    -0.352 N 
ATOM      4  H   UNL     1     -43.030  24.379   1.294  0.00  0.00    +0.143 HD
ATOM      5  H   UNL     1     -42.463  23.425  -0.002  0.00  0.00    +0.143 HD
ENDBRANCH   1   3
BRANCH   2   7
ATOM      6  N   UNL     1     -40.303  21.157   1.339  0.00  0.00    -0.191 NA
ATOM      7  C   UNL     1     -40.151  22.306   1.270  0.00  0.00    +0.103 C 
ENDBRANCH   2   7
BRANCH   2   9
ATOM      8  C   UNL     1     -38.165  24.628   2.636  0.00  0.00    +0.082 C 
ATOM      9  C   UNL     1     -38.579  24.172   1.422  0.00  0.00    +0.099 C 
BRANCH   8  10
ATOM     10  N   UNL     1     -38.998  24.692   3.731  0.00  0.00    -0.352 N 
ATOM     11  H   UNL     1     -39.961  24.517   3.627  0.00  0.00    +0.143 HD
ATOM     12  H   UNL     1     -38.631  24.913   4.617  0.00  0.00    +0.143 HD
ENDBRANCH   8  10
BRANCH   9  14
ATOM     13  N   UNL     1     -37.024  24.054  -0.652  0.00  0.00    -0.191 NA
ATOM     14  C   UNL     1     -37.720  24.101   0.276  0.00  0.00    +0.103 C 
ENDBRANCH   9  14
BRANCH   8  15
ATOM     15  S   UNL     1     -36.475  25.160   2.827  0.00  0.00    -0.071 S 
BRANCH  15  16
ATOM     16  C   UNL     1     -35.945  23.865   3.942  0.00  0.00    +0.043 C 
ATOM     17  C   UNL     1     -35.659  24.118   5.283  0.00  0.00    +0.048 C 
ATOM     18  C   UNL     1     -35.821  22.573   3.433  0.00  0.00    +0.008 C 
ATOM     19  C   UNL     1     -35.248  23.076   6.116  0.00  0.00    +0.015 C 
ATOM     20  C   UNL     1     -35.411  21.531   4.266  0.00  0.00    +0.001 C 
ATOM     21  C   UNL     1     -35.124  21.783   5.607  0.00  0.00    +0.001 C 
BRANCH  17  22
ATOM     22  N   UNL     1     -35.773  25.414   5.834  0.00  0.00    -0.357 N 
ATOM     23  H   UNL     1     -35.386  26.186   5.362  0.00  0.00    +0.142 HD
ATOM     24  H   UNL     1     -36.242  25.545   6.690  0.00  0.00    +0.142 HD
ENDBRANCH  17  22
ENDBRANCH  15  16
ENDBRANCH   8  15
ENDBRANCH   2   9
BRANCH   1  25
ATOM     25  S   UNL     1     -40.716  26.303   0.780  0.00  0.00    -0.071 S 
BRANCH  25  26
ATOM     26  C   UNL     1     -42.054  26.909   1.795  0.00  0.00    +0.043 C 
ATOM     27  C   UNL     1     -43.152  27.575   1.250  0.00  0.00    +0.048 C 
ATOM     28  C   UNL     1     -41.978  26.702   3.173  0.00  0.00    +0.008 C 
ATOM     29  C   UNL     1     -44.174  28.031   2.081  0.00  0.00    +0.015 C 
ATOM     30  C   UNL     1     -43.000  27.159   4.005  0.00  0.00    +0.001 C 
ATOM     31  C   UNL     1     -44.098  27.824   3.459  0.00  0.00    +0.001 C 
BRANCH  27  32
ATOM     32  N   UNL     1     -43.264  27.801  -0.141  0.00  0.00    -0.357 N 
ATOM     33  H   UNL     1     -43.441  27.048  -0.750  0.00  0.00    +0.142 HD
ATOM     34  H   UNL     1     -43.165  28.712  -0.501  0.00  0.00    +0.142 HD
ENDBRANCH  27  32
ENDBRANCH  25  26
ENDBRANCH   1  25
TORSDOF 11
ENDMDL
