MODEL 1
REMARK VINA RESULT:      -6.1      0.000      0.000
REMARK  Name = 58842131
REMARK  11 active torsions:
REMARK  status: ('A' for Active; 'I' for Inactive)
REMARK    1  A    between atoms: C_3  and  C_9
REMARK    2  A    between atoms: C_6  and  C_25
REMARK    3  A    between atoms: N_8  and  C_11
REMARK    4  A    between atoms: C_11  and  C_12
REMARK    5  A    between atoms: C_17  and  C_20
REMARK    6  A    between atoms: N_19  and  C_20
REMARK    7  A    between atoms: N_19  and  O_23
REMARK    8  A    between atoms: C_25  and  C_27
REMARK    9  A    between atoms: C_25  and  O_37
REMARK   10  A    between atoms: C_30  and  O_33
REMARK   11  A    between atoms: O_33  and  C_36
REMARK                            x       y       z     vdW  Elec       q    Type
REMARK                         _______ _______ _______ _____ _____    ______ ____
ROOT
ATOM      1  O   UNL     1     -34.434  20.894   1.554  0.00  0.00    -0.272 OA
ATOM      2  N   UNL     1     -35.569  20.956  -0.441  0.00  0.00    -0.271 N 
ATOM      3  C   UNL     1     -34.589  21.121  -1.495  0.00  0.00    +0.154 C 
ATOM      4  C   UNL     1     -35.713  20.755  -2.471  0.00  0.00    +0.051 C 
ATOM      5  C   UNL     1     -36.716  20.950  -1.328  0.00  0.00    +0.096 C 
ATOM      6  C   UNL     1     -35.490  20.878   0.921  0.00  0.00    +0.257 C 
ENDROOT
BRANCH   3   9
ATOM      7  O   UNL     1     -34.334  23.355  -2.446  0.00  0.00    -0.273 OA
ATOM      8  N   UNL     1     -33.041  22.795  -0.609  0.00  0.00    -0.299 N 
ATOM      9  C   UNL     1     -33.991  22.536  -1.587  0.00  0.00    +0.241 C 
ATOM     10  H   UNL     1     -32.829  22.083   0.037  0.00  0.00    +0.150 HD
BRANCH   8  11
ATOM     11  C   UNL     1     -32.350  24.058  -0.492  0.00  0.00    +0.116 C 
BRANCH  11  12
ATOM     12  C   UNL     1     -32.829  24.854   0.688  0.00  0.00    -0.003 C 
ATOM     13  C   UNL     1     -34.087  24.602   1.235  0.00  0.00    -0.003 C 
ATOM     14  C   UNL     1     -32.015  25.845   1.237  0.00  0.00    -0.003 C 
ATOM     15  C   UNL     1     -34.532  25.340   2.331  0.00  0.00    +0.003 C 
ATOM     16  C   UNL     1     -32.460  26.584   2.333  0.00  0.00    +0.003 C 
ATOM     17  C   UNL     1     -33.718  26.331   2.880  0.00  0.00    +0.036 C 
BRANCH  17  19
ATOM     18  N   UNL     1     -35.516  27.000   4.436  0.00  0.00    -0.381 N 
ATOM     19  C   UNL     1     -34.181  27.101   4.024  0.00  0.00    +0.160 C 
ATOM     20  H   UNL     1     -35.833  27.520   5.209  0.00  0.00    +0.157 HD
ATOM     21  H   UNL     1     -36.137  26.410   3.950  0.00  0.00    +0.157 HD
BRANCH  19  22
ATOM     22  N   UNL     1     -33.313  27.881   4.652  0.00  0.00    -0.114 NA
BRANCH  22  23
ATOM     23  O   UNL     1     -32.908  27.341   5.882  0.00  0.00    -0.232 OA
ATOM     24  C   UNL     1     -31.831  28.124   6.374  0.00  0.00    +0.211 C 
ENDBRANCH  22  23
ENDBRANCH  19  22
ENDBRANCH  17  19
ENDBRANCH  11  12
ENDBRANCH   8  11
ENDBRANCH   3   9
BRANCH   6  25
ATOM     25  C   UNL     1     -36.820  20.772   1.617  0.00  0.00    +0.210 C 
BRANCH  25  27
ATOM     26 CL   UNL     1     -39.726  25.083   1.314  0.00  0.00    -0.082 Cl
ATOM     27  C   UNL     1     -37.226  22.092   2.210  0.00  0.00    +0.017 C 
ATOM     28  C   UNL     1     -36.655  22.527   3.405  0.00  0.00    +0.036 C 
ATOM     29  C   UNL     1     -38.177  22.883   1.563  0.00  0.00    +0.010 C 
ATOM     30  C   UNL     1     -37.033  23.752   3.954  0.00  0.00    +0.145 C 
ATOM     31  C   UNL     1     -38.555  24.108   2.112  0.00  0.00    +0.060 C 
ATOM     32  C   UNL     1     -37.984  24.543   3.308  0.00  0.00    +0.048 C 
BRANCH  30  33
ATOM     33  O   UNL     1     -36.476  24.176   5.122  0.00  0.00    -0.424 OA
BRANCH  33  36
ATOM     34  F   UNL     1     -34.437  24.492   6.004  0.00  0.00    -0.155 F 
ATOM     35  F   UNL     1     -35.563  22.730   6.606  0.00  0.00    -0.155 F 
ATOM     36  C   UNL     1     -35.281  23.531   5.549  0.00  0.00    +0.509 C 
ENDBRANCH  33  36
ENDBRANCH  30  33
ENDBRANCH  25  27
BRANCH  25  37
ATOM     37  O   UNL     1     -36.688  19.787   2.625  0.00  0.00    -0.372 OA
ATOM     38  H   UNL     1     -37.558  19.406   2.820  0.00  0.00    +0.211 HD
ENDBRANCH  25  37
ENDBRANCH   6  25
TORSDOF 11
ENDMDL
MODEL 2
REMARK VINA RESULT:      -6.1      2.902      6.906
REMARK  Name = 58842131
REMARK  11 active torsions:
REMARK  status: ('A' for Active; 'I' for Inactive)
REMARK    1  A    between atoms: C_3  and  C_9
REMARK    2  A    between atoms: C_6  and  C_25
REMARK    3  A    between atoms: N_8  and  C_11
REMARK    4  A    between atoms: C_11  and  C_12
REMARK    5  A    between atoms: C_17  and  C_20
REMARK    6  A    between atoms: N_19  and  C_20
REMARK    7  A    between atoms: N_19  and  O_23
REMARK    8  A    between atoms: C_25  and  C_27
REMARK    9  A    between atoms: C_25  and  O_37
REMARK   10  A    between atoms: C_30  and  O_33
REMARK   11  A    between atoms: O_33  and  C_36
REMARK                            x       y       z     vdW  Elec       q    Type
REMARK                         _______ _______ _______ _____ _____    ______ ____
ROOT
ATOM      1  O   UNL     1     -32.770  26.884   1.746  0.00  0.00    -0.272 OA
ATOM      2  N   UNL     1     -32.994  28.807   2.980  0.00  0.00    -0.271 N 
ATOM      3  C   UNL     1     -32.064  28.726   4.087  0.00  0.00    +0.154 C 
ATOM      4  C   UNL     1     -32.334  30.219   4.303  0.00  0.00    +0.051 C 
ATOM      5  C   UNL     1     -33.533  30.099   3.356  0.00  0.00    +0.096 C 
ATOM      6  C   UNL     1     -33.317  27.967   1.951  0.00  0.00    +0.257 C 
ENDROOT
BRANCH   3   9
ATOM      7  O   UNL     1     -31.902  27.677   6.285  0.00  0.00    -0.273 OA
ATOM      8  N   UNL     1     -33.587  26.976   4.862  0.00  0.00    -0.299 N 
ATOM      9  C   UNL     1     -32.487  27.750   5.199  0.00  0.00    +0.241 C 
ATOM     10  H   UNL     1     -33.991  27.100   3.972  0.00  0.00    +0.150 HD
BRANCH   8  11
ATOM     11  C   UNL     1     -34.167  25.996   5.750  0.00  0.00    +0.116 C 
BRANCH  11  12
ATOM     12  C   UNL     1     -34.649  24.781   5.010  0.00  0.00    -0.003 C 
ATOM     13  C   UNL     1     -34.621  24.758   3.616  0.00  0.00    -0.003 C 
ATOM     14  C   UNL     1     -35.125  23.677   5.717  0.00  0.00    -0.003 C 
ATOM     15  C   UNL     1     -35.068  23.630   2.928  0.00  0.00    +0.003 C 
ATOM     16  C   UNL     1     -35.572  22.549   5.029  0.00  0.00    +0.003 C 
ATOM     17  C   UNL     1     -35.544  22.525   3.635  0.00  0.00    +0.036 C 
BRANCH  17  19
ATOM     18  N   UNL     1     -37.305  21.325   2.388  0.00  0.00    -0.381 N 
ATOM     19  C   UNL     1     -36.009  21.348   2.919  0.00  0.00    +0.160 C 
ATOM     20  H   UNL     1     -37.624  20.530   1.903  0.00  0.00    +0.157 HD
ATOM     21  H   UNL     1     -37.897  22.104   2.502  0.00  0.00    +0.157 HD
BRANCH  19  22
ATOM     22  N   UNL     1     -35.180  20.323   2.784  0.00  0.00    -0.114 NA
BRANCH  22  23
ATOM     23  O   UNL     1     -34.624  20.256   1.497  0.00  0.00    -0.232 OA
ATOM     24  C   UNL     1     -33.678  19.198   1.482  0.00  0.00    +0.211 C 
ENDBRANCH  22  23
ENDBRANCH  19  22
ENDBRANCH  17  19
ENDBRANCH  11  12
ENDBRANCH   8  11
ENDBRANCH   3   9
BRANCH   6  25
ATOM     25  C   UNL     1     -34.422  28.468   1.062  0.00  0.00    +0.210 C 
BRANCH  25  27
ATOM     26 CL   UNL     1     -36.480  24.532  -1.659  0.00  0.00    -0.082 Cl
ATOM     27  C   UNL     1     -35.505  27.437   0.913  0.00  0.00    +0.017 C 
ATOM     28  C   UNL     1     -36.523  27.350   1.861  0.00  0.00    +0.036 C 
ATOM     29  C   UNL     1     -35.492  26.564  -0.176  0.00  0.00    +0.010 C 
ATOM     30  C   UNL     1     -37.528  26.393   1.722  0.00  0.00    +0.145 C 
ATOM     31  C   UNL     1     -36.496  25.608  -0.316  0.00  0.00    +0.060 C 
ATOM     32  C   UNL     1     -37.515  25.521   0.633  0.00  0.00    +0.048 C 
BRANCH  30  33
ATOM     33  O   UNL     1     -38.521  26.309   2.649  0.00  0.00    -0.424 OA
BRANCH  33  36
ATOM     34  F   UNL     1     -37.900  24.865   4.250  0.00  0.00    -0.155 F 
ATOM     35  F   UNL     1     -40.015  25.029   3.770  0.00  0.00    -0.155 F 
ATOM     36  C   UNL     1     -38.773  25.033   3.225  0.00  0.00    +0.509 C 
ENDBRANCH  33  36
ENDBRANCH  30  33
ENDBRANCH  25  27
BRANCH  25  37
ATOM     37  O   UNL     1     -33.844  28.775  -0.193  0.00  0.00    -0.372 OA
ATOM     38  H   UNL     1     -34.449  28.507  -0.902  0.00  0.00    +0.211 HD
ENDBRANCH  25  37
ENDBRANCH   6  25
TORSDOF 11
ENDMDL
MODEL 3
REMARK VINA RESULT:      -6.1      3.125      4.146
REMARK  Name = 58842131
REMARK  11 active torsions:
REMARK  status: ('A' for Active; 'I' for Inactive)
REMARK    1  A    between atoms: C_3  and  C_9
REMARK    2  A    between atoms: C_6  and  C_25
REMARK    3  A    between atoms: N_8  and  C_11
REMARK    4  A    between atoms: C_11  and  C_12
REMARK    5  A    between atoms: C_17  and  C_20
REMARK    6  A    between atoms: N_19  and  C_20
REMARK    7  A    between atoms: N_19  and  O_23
REMARK    8  A    between atoms: C_25  and  C_27
REMARK    9  A    between atoms: C_25  and  O_37
REMARK   10  A    between atoms: C_30  and  O_33
REMARK   11  A    between atoms: O_33  and  C_36
REMARK                            x       y       z     vdW  Elec       q    Type
REMARK                         _______ _______ _______ _____ _____    ______ ____
ROOT
ATOM      1  O   UNL     1     -39.607  21.722   2.151  0.00  0.00    -0.272 OA
ATOM      2  N   UNL     1     -38.911  21.039   0.072  0.00  0.00    -0.271 N 
ATOM      3  C   UNL     1     -38.089  19.860   0.254  0.00  0.00    +0.154 C 
ATOM      4  C   UNL     1     -38.216  19.651  -1.259  0.00  0.00    +0.051 C 
ATOM      5  C   UNL     1     -38.768  21.077  -1.369  0.00  0.00    +0.096 C 
ATOM      6  C   UNL     1     -39.566  21.876   0.931  0.00  0.00    +0.257 C 
ENDROOT
BRANCH   3   9
ATOM      7  O   UNL     1     -35.682  20.236   0.117  0.00  0.00    -0.273 OA
ATOM      8  N   UNL     1     -36.679  20.296   2.204  0.00  0.00    -0.299 N 
ATOM      9  C   UNL     1     -36.690  20.145   0.826  0.00  0.00    +0.241 C 
ATOM     10  H   UNL     1     -37.531  20.207   2.691  0.00  0.00    +0.150 HD
BRANCH   8  11
ATOM     11  C   UNL     1     -35.481  20.578   2.961  0.00  0.00    +0.116 C 
BRANCH  11  12
ATOM     12  C   UNL     1     -35.471  21.981   3.496  0.00  0.00    -0.003 C 
ATOM     13  C   UNL     1     -35.399  23.062   2.616  0.00  0.00    -0.003 C 
ATOM     14  C   UNL     1     -35.533  22.204   4.871  0.00  0.00    -0.003 C 
ATOM     15  C   UNL     1     -35.390  24.365   3.113  0.00  0.00    +0.003 C 
ATOM     16  C   UNL     1     -35.524  23.508   5.367  0.00  0.00    +0.003 C 
ATOM     17  C   UNL     1     -35.452  24.588   4.488  0.00  0.00    +0.036 C 
BRANCH  17  19
ATOM     18  N   UNL     1     -36.648  26.555   5.382  0.00  0.00    -0.381 N 
ATOM     19  C   UNL     1     -35.444  25.947   5.006  0.00  0.00    +0.160 C 
ATOM     20  H   UNL     1     -36.647  27.475   5.733  0.00  0.00    +0.157 HD
ATOM     21  H   UNL     1     -37.496  26.063   5.293  0.00  0.00    +0.157 HD
BRANCH  19  22
ATOM     22  N   UNL     1     -34.281  26.574   5.113  0.00  0.00    -0.114 NA
BRANCH  22  23
ATOM     23  O   UNL     1     -33.776  26.536   6.421  0.00  0.00    -0.232 OA
ATOM     24  C   UNL     1     -32.600  27.330   6.462  0.00  0.00    +0.211 C 
ENDBRANCH  22  23
ENDBRANCH  19  22
ENDBRANCH  17  19
ENDBRANCH  11  12
ENDBRANCH   8  11
ENDBRANCH   3   9
BRANCH   6  25
ATOM     25  C   UNL     1     -40.253  23.037   0.264  0.00  0.00    +0.210 C 
BRANCH  25  27
ATOM     26 CL   UNL     1     -42.813  26.562   3.120  0.00  0.00    -0.082 Cl
ATOM     27  C   UNL     1     -40.211  24.263   1.134  0.00  0.00    +0.017 C 
ATOM     28  C   UNL     1     -38.992  24.879   1.415  0.00  0.00    +0.036 C 
ATOM     29  C   UNL     1     -41.393  24.783   1.662  0.00  0.00    +0.010 C 
ATOM     30  C   UNL     1     -38.954  26.016   2.222  0.00  0.00    +0.145 C 
ATOM     31  C   UNL     1     -41.356  25.919   2.469  0.00  0.00    +0.060 C 
ATOM     32  C   UNL     1     -40.136  26.536   2.750  0.00  0.00    +0.048 C 
BRANCH  30  33
ATOM     33  O   UNL     1     -37.764  26.617   2.496  0.00  0.00    -0.424 OA
BRANCH  33  36
ATOM     34  F   UNL     1     -36.320  28.261   2.001  0.00  0.00    -0.155 F 
ATOM     35  F   UNL     1     -36.328  26.481   0.751  0.00  0.00    -0.155 F 
ATOM     36  C   UNL     1     -37.131  27.329   1.439  0.00  0.00    +0.509 C 
ENDBRANCH  33  36
ENDBRANCH  30  33
ENDBRANCH  25  27
BRANCH  25  37
ATOM     37  O   UNL     1     -41.589  22.645   0.012  0.00  0.00    -0.372 OA
ATOM     38  H   UNL     1     -42.172  23.034   0.682  0.00  0.00    +0.211 HD
ENDBRANCH  25  37
ENDBRANCH   6  25
TORSDOF 11
ENDMDL
MODEL 4
REMARK VINA RESULT:      -6.0      3.616      6.409
REMARK  Name = 58842131
REMARK  11 active torsions:
REMARK  status: ('A' for Active; 'I' for Inactive)
REMARK    1  A    between atoms: C_3  and  C_9
REMARK    2  A    between atoms: C_6  and  C_25
REMARK    3  A    between atoms: N_8  and  C_11
REMARK    4  A    between atoms: C_11  and  C_12
REMARK    5  A    between atoms: C_17  and  C_20
REMARK    6  A    between atoms: N_19  and  C_20
REMARK    7  A    between atoms: N_19  and  O_23
REMARK    8  A    between atoms: C_25  and  C_27
REMARK    9  A    between atoms: C_25  and  O_37
REMARK   10  A    between atoms: C_30  and  O_33
REMARK   11  A    between atoms: O_33  and  C_36
REMARK                            x       y       z     vdW  Elec       q    Type
REMARK                         _______ _______ _______ _____ _____    ______ ____
ROOT
ATOM      1  O   UNL     1     -39.210  24.197   2.231  0.00  0.00    -0.272 OA
ATOM      2  N   UNL     1     -37.275  24.185   0.994  0.00  0.00    -0.271 N 
ATOM      3  C   UNL     1     -37.304  23.006   0.153  0.00  0.00    +0.154 C 
ATOM      4  C   UNL     1     -36.134  23.636  -0.612  0.00  0.00    +0.051 C 
ATOM      5  C   UNL     1     -35.980  24.643   0.534  0.00  0.00    +0.096 C 
ATOM      6  C   UNL     1     -38.124  24.696   1.936  0.00  0.00    +0.257 C 
ENDROOT
BRANCH   3   9
ATOM      7  O   UNL     1     -37.931  21.074   1.506  0.00  0.00    -0.273 OA
ATOM      8  N   UNL     1     -35.728  21.259   0.823  0.00  0.00    -0.299 N 
ATOM      9  C   UNL     1     -37.045  21.687   0.902  0.00  0.00    +0.241 C 
ATOM     10  H   UNL     1     -35.086  21.811   0.320  0.00  0.00    +0.150 HD
BRANCH   8  11
ATOM     11  C   UNL     1     -35.252  20.044   1.442  0.00  0.00    +0.116 C 
BRANCH  11  12
ATOM     12  C   UNL     1     -33.836  19.732   1.053  0.00  0.00    -0.003 C 
ATOM     13  C   UNL     1     -33.091  20.662   0.329  0.00  0.00    -0.003 C 
ATOM     14  C   UNL     1     -33.265  18.512   1.416  0.00  0.00    -0.003 C 
ATOM     15  C   UNL     1     -31.775  20.373  -0.033  0.00  0.00    +0.003 C 
ATOM     16  C   UNL     1     -31.949  18.223   1.054  0.00  0.00    +0.003 C 
ATOM     17  C   UNL     1     -31.204  19.153   0.330  0.00  0.00    +0.036 C 
BRANCH  17  19
ATOM     18  N   UNL     1     -29.121  19.745  -0.856  0.00  0.00    -0.381 N 
ATOM     19  C   UNL     1     -29.832  18.851  -0.046  0.00  0.00    +0.160 C 
ATOM     20  H   UNL     1     -28.192  19.545  -1.113  0.00  0.00    +0.157 HD
ATOM     21  H   UNL     1     -29.551  20.574  -1.169  0.00  0.00    +0.157 HD
BRANCH  19  22
ATOM     22  N   UNL     1     -29.289  17.727   0.399  0.00  0.00    -0.114 NA
BRANCH  22  23
ATOM     23  O   UNL     1     -28.393  17.953   1.455  0.00  0.00    -0.232 OA
ATOM     24  C   UNL     1     -27.211  17.211   1.196  0.00  0.00    +0.211 C 
ENDBRANCH  22  23
ENDBRANCH  19  22
ENDBRANCH  17  19
ENDBRANCH  11  12
ENDBRANCH   8  11
ENDBRANCH   3   9
BRANCH   6  25
ATOM     25  C   UNL     1     -37.624  25.944   2.611  0.00  0.00    +0.210 C 
BRANCH  25  27
ATOM     26 CL   UNL     1     -33.144  27.235   4.934  0.00  0.00    -0.082 Cl
ATOM     27  C   UNL     1     -36.563  25.621   3.626  0.00  0.00    +0.017 C 
ATOM     28  C   UNL     1     -36.665  24.468   4.402  0.00  0.00    +0.036 C 
ATOM     29  C   UNL     1     -35.473  26.478   3.791  0.00  0.00    +0.010 C 
ATOM     30  C   UNL     1     -35.680  24.169   5.343  0.00  0.00    +0.145 C 
ATOM     31  C   UNL     1     -34.488  26.180   4.731  0.00  0.00    +0.060 C 
ATOM     32  C   UNL     1     -34.590  25.025   5.508  0.00  0.00    +0.048 C 
BRANCH  30  33
ATOM     33  O   UNL     1     -35.781  23.043   6.101  0.00  0.00    -0.424 OA
BRANCH  33  36
ATOM     34  F   UNL     1     -35.552  20.820   6.306  0.00  0.00    -0.155 F 
ATOM     35  F   UNL     1     -35.178  21.724   4.362  0.00  0.00    -0.155 F 
ATOM     36  C   UNL     1     -35.020  21.911   5.696  0.00  0.00    +0.509 C 
ENDBRANCH  33  36
ENDBRANCH  30  33
ENDBRANCH  25  27
BRANCH  25  37
ATOM     37  O   UNL     1     -38.738  26.561   3.228  0.00  0.00    -0.372 OA
ATOM     38  H   UNL     1     -38.511  26.801   4.140  0.00  0.00    +0.211 HD
ENDBRANCH  25  37
ENDBRANCH   6  25
TORSDOF 11
ENDMDL
MODEL 5
REMARK VINA RESULT:      -6.0      3.706      6.931
REMARK  Name = 58842131
REMARK  11 active torsions:
REMARK  status: ('A' for Active; 'I' for Inactive)
REMARK    1  A    between atoms: C_3  and  C_9
REMARK    2  A    between atoms: C_6  and  C_25
REMARK    3  A    between atoms: N_8  and  C_11
REMARK    4  A    between atoms: C_11  and  C_12
REMARK    5  A    between atoms: C_17  and  C_20
REMARK    6  A    between atoms: N_19  and  C_20
REMARK    7  A    between atoms: N_19  and  O_23
REMARK    8  A    between atoms: C_25  and  C_27
REMARK    9  A    between atoms: C_25  and  O_37
REMARK   10  A    between atoms: C_30  and  O_33
REMARK   11  A    between atoms: O_33  and  C_36
REMARK                            x       y       z     vdW  Elec       q    Type
REMARK                         _______ _______ _______ _____ _____    ______ ____
ROOT
ATOM      1  O   UNL     1     -35.236  21.672   4.249  0.00  0.00    -0.272 OA
ATOM      2  N   UNL     1     -36.997  22.786   3.284  0.00  0.00    -0.271 N 
ATOM      3  C   UNL     1     -37.498  21.959   2.205  0.00  0.00    +0.154 C 
ATOM      4  C   UNL     1     -38.720  22.883   2.187  0.00  0.00    +0.051 C 
ATOM      5  C   UNL     1     -37.942  23.864   3.072  0.00  0.00    +0.096 C 
ATOM      6  C   UNL     1     -35.970  22.656   4.177  0.00  0.00    +0.257 C 
ENDROOT
BRANCH   3   9
ATOM      7  O   UNL     1     -37.046  21.966  -0.193  0.00  0.00    -0.273 OA
ATOM      8  N   UNL     1     -35.244  21.877   1.256  0.00  0.00    -0.299 N 
ATOM      9  C   UNL     1     -36.598  21.933   0.957  0.00  0.00    +0.241 C 
ATOM     10  H   UNL     1     -34.976  21.853   2.204  0.00  0.00    +0.150 HD
BRANCH   8  11
ATOM     11  C   UNL     1     -34.211  21.852   0.247  0.00  0.00    +0.116 C 
BRANCH  11  12
ATOM     12  C   UNL     1     -33.300  20.668   0.405  0.00  0.00    -0.003 C 
ATOM     13  C   UNL     1     -32.034  20.681  -0.181  0.00  0.00    -0.003 C 
ATOM     14  C   UNL     1     -33.719  19.557   1.136  0.00  0.00    -0.003 C 
ATOM     15  C   UNL     1     -31.187  19.583  -0.035  0.00  0.00    +0.003 C 
ATOM     16  C   UNL     1     -32.872  18.458   1.282  0.00  0.00    +0.003 C 
ATOM     17  C   UNL     1     -31.606  18.471   0.696  0.00  0.00    +0.036 C 
BRANCH  17  19
ATOM     18  N   UNL     1     -29.481  17.485   1.476  0.00  0.00    -0.381 N 
ATOM     19  C   UNL     1     -30.723  17.326   0.850  0.00  0.00    +0.160 C 
ATOM     20  H   UNL     1     -28.880  16.712   1.582  0.00  0.00    +0.157 HD
ATOM     21  H   UNL     1     -29.208  18.371   1.809  0.00  0.00    +0.157 HD
BRANCH  19  22
ATOM     22  N   UNL     1     -31.129  16.151   0.391  0.00  0.00    -0.114 NA
BRANCH  22  23
ATOM     23  O   UNL     1     -30.141  15.508  -0.371  0.00  0.00    -0.232 OA
ATOM     24  C   UNL     1     -30.101  14.145   0.021  0.00  0.00    +0.211 C 
ENDBRANCH  22  23
ENDBRANCH  19  22
ENDBRANCH  17  19
ENDBRANCH  11  12
ENDBRANCH   8  11
ENDBRANCH   3   9
BRANCH   6  25
ATOM     25  C   UNL     1     -35.790  23.837   5.093  0.00  0.00    +0.210 C 
BRANCH  25  27
ATOM     26 CL   UNL     1     -32.742  25.286   1.125  0.00  0.00    -0.082 Cl
ATOM     27  C   UNL     1     -34.814  24.824   4.515  0.00  0.00    +0.017 C 
ATOM     28  C   UNL     1     -34.431  25.942   5.255  0.00  0.00    +0.036 C 
ATOM     29  C   UNL     1     -34.292  24.622   3.237  0.00  0.00    +0.010 C 
ATOM     30  C   UNL     1     -33.526  26.858   4.718  0.00  0.00    +0.145 C 
ATOM     31  C   UNL     1     -33.387  25.536   2.701  0.00  0.00    +0.060 C 
ATOM     32  C   UNL     1     -33.003  26.655   3.440  0.00  0.00    +0.048 C 
BRANCH  30  33
ATOM     33  O   UNL     1     -33.152  27.949   5.441  0.00  0.00    -0.424 OA
BRANCH  33  36
ATOM     34  F   UNL     1     -31.833  28.964   6.945  0.00  0.00    -0.155 F 
ATOM     35  F   UNL     1     -32.902  27.171   7.552  0.00  0.00    -0.155 F 
ATOM     36  C   UNL     1     -32.243  27.744   6.515  0.00  0.00    +0.509 C 
ENDBRANCH  33  36
ENDBRANCH  30  33
ENDBRANCH  25  27
BRANCH  25  37
ATOM     37  O   UNL     1     -35.326  23.338   6.333  0.00  0.00    -0.372 OA
ATOM     38  H   UNL     1     -35.481  24.000   7.025  0.00  0.00    +0.211 HD
ENDBRANCH  25  37
ENDBRANCH   6  25
TORSDOF 11
ENDMDL
MODEL 6
REMARK VINA RESULT:      -5.9      3.227      7.154
REMARK  Name = 58842131
REMARK  11 active torsions:
REMARK  status: ('A' for Active; 'I' for Inactive)
REMARK    1  A    between atoms: C_3  and  C_9
REMARK    2  A    between atoms: C_6  and  C_25
REMARK    3  A    between atoms: N_8  and  C_11
REMARK    4  A    between atoms: C_11  and  C_12
REMARK    5  A    between atoms: C_17  and  C_20
REMARK    6  A    between atoms: N_19  and  C_20
REMARK    7  A    between atoms: N_19  and  O_23
REMARK    8  A    between atoms: C_25  and  C_27
REMARK    9  A    between atoms: C_25  and  O_37
REMARK   10  A    between atoms: C_30  and  O_33
REMARK   11  A    between atoms: O_33  and  C_36
REMARK                            x       y       z     vdW  Elec       q    Type
REMARK                         _______ _______ _______ _____ _____    ______ ____
ROOT
ATOM      1  O   UNL     1     -35.380  27.253   4.248  0.00  0.00    -0.272 OA
ATOM      2  N   UNL     1     -34.972  27.200   1.990  0.00  0.00    -0.271 N 
ATOM      3  C   UNL     1     -35.867  28.151   1.362  0.00  0.00    +0.154 C 
ATOM      4  C   UNL     1     -35.004  27.994   0.105  0.00  0.00    +0.051 C 
ATOM      5  C   UNL     1     -34.355  26.765   0.752  0.00  0.00    +0.096 C 
ATOM      6  C   UNL     1     -34.779  26.791   3.279  0.00  0.00    +0.257 C 
ENDROOT
BRANCH   3   9
ATOM      7  O   UNL     1     -38.148  28.163   0.493  0.00  0.00    -0.273 OA
ATOM      8  N   UNL     1     -37.638  26.684   2.197  0.00  0.00    -0.299 N 
ATOM      9  C   UNL     1     -37.333  27.687   1.289  0.00  0.00    +0.241 C 
ATOM     10  H   UNL     1     -36.925  26.363   2.796  0.00  0.00    +0.150 HD
BRANCH   8  11
ATOM     11  C   UNL     1     -38.949  26.086   2.306  0.00  0.00    +0.116 C 
BRANCH  11  12
ATOM     12  C   UNL     1     -38.973  24.682   1.775  0.00  0.00    -0.003 C 
ATOM     13  C   UNL     1     -39.070  23.605   2.656  0.00  0.00    -0.003 C 
ATOM     14  C   UNL     1     -38.899  24.454   0.401  0.00  0.00    -0.003 C 
ATOM     15  C   UNL     1     -39.093  22.301   2.164  0.00  0.00    +0.003 C 
ATOM     16  C   UNL     1     -38.922  23.150  -0.092  0.00  0.00    +0.003 C 
ATOM     17  C   UNL     1     -39.019  22.073   0.790  0.00  0.00    +0.036 C 
BRANCH  17  19
ATOM     18  N   UNL     1     -37.983  19.843   0.559  0.00  0.00    -0.381 N 
ATOM     19  C   UNL     1     -39.044  20.713   0.275  0.00  0.00    +0.160 C 
ATOM     20  H   UNL     1     -37.996  18.922   0.212  0.00  0.00    +0.157 HD
ATOM     21  H   UNL     1     -37.225  20.154   1.104  0.00  0.00    +0.157 HD
BRANCH  19  22
ATOM     22  N   UNL     1     -40.084  20.333  -0.452  0.00  0.00    -0.114 NA
BRANCH  22  23
ATOM     23  O   UNL     1     -41.305  20.655   0.160  0.00  0.00    -0.232 OA
ATOM     24  C   UNL     1     -42.309  20.672  -0.843  0.00  0.00    +0.211 C 
ENDBRANCH  22  23
ENDBRANCH  19  22
ENDBRANCH  17  19
ENDBRANCH  11  12
ENDBRANCH   8  11
ENDBRANCH   3   9
BRANCH   6  25
ATOM     25  C   UNL     1     -33.753  25.702   3.439  0.00  0.00    +0.210 C 
BRANCH  25  27
ATOM     26 CL   UNL     1     -35.695  22.042   6.596  0.00  0.00    -0.082 Cl
ATOM     27  C   UNL     1     -34.410  24.360   3.600  0.00  0.00    +0.017 C 
ATOM     28  C   UNL     1     -34.719  23.594   2.476  0.00  0.00    +0.036 C 
ATOM     29  C   UNL     1     -34.713  23.880   4.875  0.00  0.00    +0.010 C 
ATOM     30  C   UNL     1     -35.328  22.348   2.625  0.00  0.00    +0.145 C 
ATOM     31  C   UNL     1     -35.322  22.635   5.024  0.00  0.00    +0.060 C 
ATOM     32  C   UNL     1     -35.631  21.868   3.900  0.00  0.00    +0.048 C 
BRANCH  30  33
ATOM     33  O   UNL     1     -35.629  21.602   1.528  0.00  0.00    -0.424 OA
BRANCH  33  36
ATOM     34  F   UNL     1     -33.553  21.248   0.754  0.00  0.00    -0.155 F 
ATOM     35  F   UNL     1     -34.366  19.851   2.211  0.00  0.00    -0.155 F 
ATOM     36  C   UNL     1     -34.690  20.609   1.134  0.00  0.00    +0.509 C 
ENDBRANCH  33  36
ENDBRANCH  30  33
ENDBRANCH  25  27
BRANCH  25  37
ATOM     37  O   UNL     1     -32.978  26.022   4.579  0.00  0.00    -0.372 OA
ATOM     38  H   UNL     1     -32.141  25.533   4.548  0.00  0.00    +0.211 HD
ENDBRANCH  25  37
ENDBRANCH   6  25
TORSDOF 11
ENDMDL
MODEL 7
REMARK VINA RESULT:      -5.8      2.795      5.915
REMARK  Name = 58842131
REMARK  11 active torsions:
REMARK  status: ('A' for Active; 'I' for Inactive)
REMARK    1  A    between atoms: C_3  and  C_9
REMARK    2  A    between atoms: C_6  and  C_25
REMARK    3  A    between atoms: N_8  and  C_11
REMARK    4  A    between atoms: C_11  and  C_12
REMARK    5  A    between atoms: C_17  and  C_20
REMARK    6  A    between atoms: N_19  and  C_20
REMARK    7  A    between atoms: N_19  and  O_23
REMARK    8  A    between atoms: C_25  and  C_27
REMARK    9  A    between atoms: C_25  and  O_37
REMARK   10  A    between atoms: C_30  and  O_33
REMARK   11  A    between atoms: O_33  and  C_36
REMARK                            x       y       z     vdW  Elec       q    Type
REMARK                         _______ _______ _______ _____ _____    ______ ____
ROOT
ATOM      1  O   UNL     1     -36.799  23.541   4.650  0.00  0.00    -0.272 OA
ATOM      2  N   UNL     1     -37.086  22.928   2.457  0.00  0.00    -0.271 N 
ATOM      3  C   UNL     1     -37.170  21.482   2.416  0.00  0.00    +0.154 C 
ATOM      4  C   UNL     1     -37.676  21.644   0.978  0.00  0.00    +0.051 C 
ATOM      5  C   UNL     1     -37.221  23.107   1.025  0.00  0.00    +0.096 C 
ATOM      6  C   UNL     1     -36.898  23.837   3.460  0.00  0.00    +0.257 C 
ENDROOT
BRANCH   3   9
ATOM      7  O   UNL     1     -35.251  20.725   3.721  0.00  0.00    -0.273 OA
ATOM      8  N   UNL     1     -35.335  20.165   1.477  0.00  0.00    -0.299 N 
ATOM      9  C   UNL     1     -35.825  20.764   2.628  0.00  0.00    +0.241 C 
ATOM     10  H   UNL     1     -35.859  20.246   0.647  0.00  0.00    +0.150 HD
BRANCH   8  11
ATOM     11  C   UNL     1     -34.093  19.427   1.436  0.00  0.00    +0.116 C 
BRANCH  11  12
ATOM     12  C   UNL     1     -33.042  20.139   0.634  0.00  0.00    -0.003 C 
ATOM     13  C   UNL     1     -31.816  19.521   0.388  0.00  0.00    -0.003 C 
ATOM     14  C   UNL     1     -33.292  21.418   0.136  0.00  0.00    -0.003 C 
ATOM     15  C   UNL     1     -30.840  20.182  -0.357  0.00  0.00    +0.003 C 
ATOM     16  C   UNL     1     -32.315  22.079  -0.609  0.00  0.00    +0.003 C 
ATOM     17  C   UNL     1     -31.089  21.461  -0.856  0.00  0.00    +0.036 C 
BRANCH  17  19
ATOM     18  N   UNL     1     -29.716  21.665  -2.898  0.00  0.00    -0.381 N 
ATOM     19  C   UNL     1     -30.071  22.150  -1.633  0.00  0.00    +0.160 C 
ATOM     20  H   UNL     1     -29.028  22.128  -3.428  0.00  0.00    +0.157 HD
ATOM     21  H   UNL     1     -30.155  20.859  -3.257  0.00  0.00    +0.157 HD
BRANCH  19  22
ATOM     22  N   UNL     1     -29.508  23.232  -1.116  0.00  0.00    -0.114 NA
BRANCH  22  23
ATOM     23  O   UNL     1     -29.904  24.404  -1.779  0.00  0.00    -0.232 OA
ATOM     24  C   UNL     1     -28.737  25.149  -2.092  0.00  0.00    +0.211 C 
ENDBRANCH  22  23
ENDBRANCH  19  22
ENDBRANCH  17  19
ENDBRANCH  11  12
ENDBRANCH   8  11
ENDBRANCH   3   9
BRANCH   6  25
ATOM     25  C   UNL     1     -36.813  25.266   2.997  0.00  0.00    +0.210 C 
BRANCH  25  27
ATOM     26 CL   UNL     1     -32.072  25.380   0.842  0.00  0.00    -0.082 Cl
ATOM     27  C   UNL     1     -35.395  25.763   3.036  0.00  0.00    +0.017 C 
ATOM     28  C   UNL     1     -34.977  26.602   4.069  0.00  0.00    +0.036 C 
ATOM     29  C   UNL     1     -34.496  25.386   2.038  0.00  0.00    +0.010 C 
ATOM     30  C   UNL     1     -33.661  27.063   4.104  0.00  0.00    +0.145 C 
ATOM     31  C   UNL     1     -33.181  25.846   2.073  0.00  0.00    +0.060 C 
ATOM     32  C   UNL     1     -32.762  26.685   3.106  0.00  0.00    +0.048 C 
BRANCH  30  33
ATOM     33  O   UNL     1     -33.254  27.882   5.112  0.00  0.00    -0.424 OA
BRANCH  33  36
ATOM     34  F   UNL     1     -32.360  28.258   7.136  0.00  0.00    -0.155 F 
ATOM     35  F   UNL     1     -33.588  26.484   6.862  0.00  0.00    -0.155 F 
ATOM     36  C   UNL     1     -32.666  27.271   6.255  0.00  0.00    +0.509 C 
ENDBRANCH  33  36
ENDBRANCH  30  33
ENDBRANCH  25  27
BRANCH  25  37
ATOM     37  O   UNL     1     -37.639  26.033   3.852  0.00  0.00    -0.372 OA
ATOM     38  H   UNL     1     -37.437  25.817   4.776  0.00  0.00    +0.211 HD
ENDBRANCH  25  37
ENDBRANCH   6  25
TORSDOF 11
ENDMDL
MODEL 8
REMARK VINA RESULT:      -5.7      3.376      7.378
REMARK  Name = 58842131
REMARK  11 active torsions:
REMARK  status: ('A' for Active; 'I' for Inactive)
REMARK    1  A    between atoms: C_3  and  C_9
REMARK    2  A    between atoms: C_6  and  C_25
REMARK    3  A    between atoms: N_8  and  C_11
REMARK    4  A    between atoms: C_11  and  C_12
REMARK    5  A    between atoms: C_17  and  C_20
REMARK    6  A    between atoms: N_19  and  C_20
REMARK    7  A    between atoms: N_19  and  O_23
REMARK    8  A    between atoms: C_25  and  C_27
REMARK    9  A    between atoms: C_25  and  O_37
REMARK   10  A    between atoms: C_30  and  O_33
REMARK   11  A    between atoms: O_33  and  C_36
REMARK                            x       y       z     vdW  Elec       q    Type
REMARK                         _______ _______ _______ _____ _____    ______ ____
ROOT
ATOM      1  O   UNL     1     -31.236  26.766   2.915  0.00  0.00    -0.272 OA
ATOM      2  N   UNL     1     -31.870  28.900   3.474  0.00  0.00    -0.271 N 
ATOM      3  C   UNL     1     -31.380  29.164   4.812  0.00  0.00    +0.154 C 
ATOM      4  C   UNL     1     -31.705  30.637   4.541  0.00  0.00    +0.051 C 
ATOM      5  C   UNL     1     -32.503  30.193   3.309  0.00  0.00    +0.096 C 
ATOM      6  C   UNL     1     -31.818  27.815   2.644  0.00  0.00    +0.257 C 
ENDROOT
BRANCH   3   9
ATOM      7  O   UNL     1     -32.154  28.825   7.102  0.00  0.00    -0.273 OA
ATOM      8  N   UNL     1     -32.882  27.350   5.474  0.00  0.00    -0.299 N 
ATOM      9  C   UNL     1     -32.164  28.448   5.925  0.00  0.00    +0.241 C 
ATOM     10  H   UNL     1     -32.832  27.121   4.517  0.00  0.00    +0.150 HD
BRANCH   8  11
ATOM     11  C   UNL     1     -33.698  26.529   6.337  0.00  0.00    +0.116 C 
BRANCH  11  12
ATOM     12  C   UNL     1     -34.562  25.579   5.558  0.00  0.00    -0.003 C 
ATOM     13  C   UNL     1     -34.000  24.444   4.975  0.00  0.00    -0.003 C 
ATOM     14  C   UNL     1     -35.927  25.833   5.417  0.00  0.00    -0.003 C 
ATOM     15  C   UNL     1     -34.802  23.561   4.251  0.00  0.00    +0.003 C 
ATOM     16  C   UNL     1     -36.728  24.950   4.693  0.00  0.00    +0.003 C 
ATOM     17  C   UNL     1     -36.166  23.815   4.110  0.00  0.00    +0.036 C 
BRANCH  17  19
ATOM     18  N   UNL     1     -36.487  21.656   2.955  0.00  0.00    -0.381 N 
ATOM     19  C   UNL     1     -37.003  22.895   3.357  0.00  0.00    +0.160 C 
ATOM     20  H   UNL     1     -37.051  21.030   2.445  0.00  0.00    +0.157 HD
ATOM     21  H   UNL     1     -35.561  21.412   3.183  0.00  0.00    +0.157 HD
BRANCH  19  22
ATOM     22  N   UNL     1     -38.245  23.259   3.074  0.00  0.00    -0.114 NA
BRANCH  22  23
ATOM     23  O   UNL     1     -38.897  22.329   2.250  0.00  0.00    -0.232 OA
ATOM     24  C   UNL     1     -39.886  23.020   1.503  0.00  0.00    +0.211 C 
ENDBRANCH  22  23
ENDBRANCH  19  22
ENDBRANCH  17  19
ENDBRANCH  11  12
ENDBRANCH   8  11
ENDBRANCH   3   9
BRANCH   6  25
ATOM     25  C   UNL     1     -32.546  27.995   1.340  0.00  0.00    +0.210 C 
BRANCH  25  27
ATOM     26 CL   UNL     1     -34.613  23.306   0.404  0.00  0.00    -0.082 Cl
ATOM     27  C   UNL     1     -33.765  27.117   1.276  0.00  0.00    +0.017 C 
ATOM     28  C   UNL     1     -35.021  27.641   1.580  0.00  0.00    +0.036 C 
ATOM     29  C   UNL     1     -33.639  25.775   0.913  0.00  0.00    +0.010 C 
ATOM     30  C   UNL     1     -36.151  26.825   1.520  0.00  0.00    +0.145 C 
ATOM     31  C   UNL     1     -34.768  24.960   0.852  0.00  0.00    +0.060 C 
ATOM     32  C   UNL     1     -36.024  25.484   1.157  0.00  0.00    +0.048 C 
BRANCH  30  33
ATOM     33  O   UNL     1     -37.376  27.337   1.818  0.00  0.00    -0.424 OA
BRANCH  33  36
ATOM     34  F   UNL     1     -39.137  26.323   2.768  0.00  0.00    -0.155 F 
ATOM     35  F   UNL     1     -39.380  27.166   0.778  0.00  0.00    -0.155 F 
ATOM     36  C   UNL     1     -38.507  26.508   1.580  0.00  0.00    +0.509 C 
ENDBRANCH  33  36
ENDBRANCH  30  33
ENDBRANCH  25  27
BRANCH  25  37
ATOM     37  O   UNL     1     -31.638  27.670   0.305  0.00  0.00    -0.372 OA
ATOM     38  H   UNL     1     -32.092  27.143  -0.371  0.00  0.00    +0.211 HD
ENDBRANCH  25  37
ENDBRANCH   6  25
TORSDOF 11
ENDMDL
MODEL 9
REMARK VINA RESULT:      -5.7      3.995      6.375
REMARK  Name = 58842131
REMARK  11 active torsions:
REMARK  status: ('A' for Active; 'I' for Inactive)
REMARK    1  A    between atoms: C_3  and  C_9
REMARK    2  A    between atoms: C_6  and  C_25
REMARK    3  A    between atoms: N_8  and  C_11
REMARK    4  A    between atoms: C_11  and  C_12
REMARK    5  A    between atoms: C_17  and  C_20
REMARK    6  A    between atoms: N_19  and  C_20
REMARK    7  A    between atoms: N_19  and  O_23
REMARK    8  A    between atoms: C_25  and  C_27
REMARK    9  A    between atoms: C_25  and  O_37
REMARK   10  A    between atoms: C_30  and  O_33
REMARK   11  A    between atoms: O_33  and  C_36
REMARK                            x       y       z     vdW  Elec       q    Type
REMARK                         _______ _______ _______ _____ _____    ______ ____
ROOT
ATOM      1  O   UNL     1     -32.763  27.749   1.275  0.00  0.00    -0.272 OA
ATOM      2  N   UNL     1     -35.033  28.097   1.265  0.00  0.00    -0.271 N 
ATOM      3  C   UNL     1     -35.255  29.521   1.124  0.00  0.00    +0.154 C 
ATOM      4  C   UNL     1     -36.717  29.170   0.827  0.00  0.00    +0.051 C 
ATOM      5  C   UNL     1     -36.438  27.752   1.336  0.00  0.00    +0.096 C 
ATOM      6  C   UNL     1     -33.913  27.318   1.354  0.00  0.00    +0.257 C 
ENDROOT
BRANCH   3   9
ATOM      7  O   UNL     1     -35.798  31.052   2.946  0.00  0.00    -0.273 OA
ATOM      8  N   UNL     1     -33.655  30.183   2.852  0.00  0.00    -0.299 N 
ATOM      9  C   UNL     1     -34.955  30.338   2.393  0.00  0.00    +0.241 C 
ATOM     10  H   UNL     1     -33.049  29.593   2.348  0.00  0.00    +0.150 HD
BRANCH   8  11
ATOM     11  C   UNL     1     -33.148  30.845   4.031  0.00  0.00    +0.116 C 
BRANCH  11  12
ATOM     12  C   UNL     1     -31.878  30.215   4.528  0.00  0.00    -0.003 C 
ATOM     13  C   UNL     1     -31.573  30.242   5.889  0.00  0.00    -0.003 C 
ATOM     14  C   UNL     1     -31.005  29.603   3.629  0.00  0.00    -0.003 C 
ATOM     15  C   UNL     1     -30.394  29.657   6.351  0.00  0.00    +0.003 C 
ATOM     16  C   UNL     1     -29.826  29.018   4.091  0.00  0.00    +0.003 C 
ATOM     17  C   UNL     1     -29.521  29.044   5.452  0.00  0.00    +0.036 C 
BRANCH  17  19
ATOM     18  N   UNL     1     -27.124  28.525   5.166  0.00  0.00    -0.381 N 
ATOM     19  C   UNL     1     -28.292  28.433   5.933  0.00  0.00    +0.160 C 
ATOM     20  H   UNL     1     -26.290  28.112   5.488  0.00  0.00    +0.157 HD
ATOM     21  H   UNL     1     -27.138  29.002   4.304  0.00  0.00    +0.157 HD
BRANCH  19  22
ATOM     22  N   UNL     1     -28.315  27.804   7.099  0.00  0.00    -0.114 NA
BRANCH  22  23
ATOM     23  O   UNL     1     -28.269  26.409   6.950  0.00  0.00    -0.232 OA
ATOM     24  C   UNL     1     -27.080  25.940   7.568  0.00  0.00    +0.211 C 
ENDBRANCH  22  23
ENDBRANCH  19  22
ENDBRANCH  17  19
ENDBRANCH  11  12
ENDBRANCH   8  11
ENDBRANCH   3   9
BRANCH   6  25
ATOM     25  C   UNL     1     -34.189  25.854   1.565  0.00  0.00    +0.210 C 
BRANCH  25  27
ATOM     26 CL   UNL     1     -33.028  27.026   6.505  0.00  0.00    -0.082 Cl
ATOM     27  C   UNL     1     -34.325  25.535   3.028  0.00  0.00    +0.017 C 
ATOM     28  C   UNL     1     -35.087  24.441   3.437  0.00  0.00    +0.036 C 
ATOM     29  C   UNL     1     -33.688  26.335   3.977  0.00  0.00    +0.010 C 
ATOM     30  C   UNL     1     -35.212  24.146   4.794  0.00  0.00    +0.145 C 
ATOM     31  C   UNL     1     -33.813  26.040   5.334  0.00  0.00    +0.060 C 
ATOM     32  C   UNL     1     -34.575  24.946   5.744  0.00  0.00    +0.048 C 
BRANCH  30  33
ATOM     33  O   UNL     1     -35.956  23.078   5.192  0.00  0.00    -0.424 OA
BRANCH  33  36
ATOM     34  F   UNL     1     -36.291  21.700   6.931  0.00  0.00    -0.155 F 
ATOM     35  F   UNL     1     -34.938  21.062   5.353  0.00  0.00    -0.155 F 
ATOM     36  C   UNL     1     -35.340  22.141   6.068  0.00  0.00    +0.509 C 
ENDBRANCH  33  36
ENDBRANCH  30  33
ENDBRANCH  25  27
BRANCH  25  37
ATOM     37  O   UNL     1     -33.111  25.138   0.992  0.00  0.00    -0.372 OA
ATOM     38  H   UNL     1     -33.128  25.245   0.028  0.00  0.00    +0.211 HD
ENDBRANCH  25  37
ENDBRANCH   6  25
TORSDOF 11
ENDMDL
