MODEL 1
REMARK VINA RESULT:      -5.0      0.000      0.000
REMARK  Name = 191734
REMARK  10 active torsions:
REMARK  status: ('A' for Active; 'I' for Inactive)
REMARK    1  A    between atoms: C_1  and  C_4
REMARK    2  A    between atoms: C_1  and  C_13
REMARK    3  A    between atoms: N_3  and  CA_6
REMARK    4  A    between atoms: CA_6  and  C_8
REMARK    5  A    between atoms: CA_6  and  C_11
REMARK    6  A    between atoms: C_8  and  O_9
REMARK    7  A    between atoms: C_13  and  N_14
REMARK    8  A    between atoms: C_13  and  C_18
REMARK    9  A    between atoms: C_18  and  C_20
REMARK   10  A    between atoms: C_20  and  O_21
REMARK                            x       y       z     vdW  Elec       q    Type
REMARK                         _______ _______ _______ _____ _____    ______ ____
ROOT
ATOM      1  C   UNL     1     -34.989  23.826   2.692  0.00  0.00    +0.064 C 
ENDROOT
BRANCH   1   4
ATOM      2  O   UNL     1     -36.128  22.968   0.731  0.00  0.00    -0.275 OA
ATOM      3  N   UNL     1     -34.752  21.548   1.946  0.00  0.00    -0.297 N 
ATOM      4  C   UNL     1     -35.361  22.764   1.668  0.00  0.00    +0.221 C 
ATOM      5  H   UNL     1     -34.151  21.486   2.723  0.00  0.00    +0.150 HD
BRANCH   3   6
ATOM      6  CA  UNL     1     -34.967  20.373   1.135  0.00  0.00    +0.171 C 
BRANCH   6   8
ATOM      7  OXT UNL     1     -37.003  19.213   0.517  0.00  0.00    -0.248 OA
ATOM      8  C   UNL     1     -36.329  19.749   1.387  0.00  0.00    +0.332 C 
BRANCH   8   9
ATOM      9  O   UNL     1     -36.726  19.833   2.679  0.00  0.00    -0.479 OA
ATOM     10  H   UNL     1     -36.185  20.267   3.309  0.00  0.00    +0.295 HD
ENDBRANCH   8   9
ENDBRANCH   6   8
BRANCH   6  11
ATOM     11  C   UNL     1     -33.833  19.357   1.304  0.00  0.00    +0.031 C 
ATOM     12  C   UNL     1     -32.527  19.749   0.621  0.00  0.00    +0.002 C 
ENDBRANCH   6  11
ENDBRANCH   3   6
ENDBRANCH   1   4
BRANCH   1  13
ATOM     13  C   UNL     1     -35.824  23.753   3.979  0.00  0.00    -0.045 C 
BRANCH  13  14
ATOM     14  N   UNL     1     -36.968  22.858   3.763  0.00  0.00    +0.383 N 
ATOM     15  H   UNL     1     -37.588  22.898   4.573  0.00  0.00    -0.089 HD
ATOM     16  H   UNL     1     -36.633  21.903   3.639  0.00  0.00    -0.089 HD
ATOM     17  H   UNL     1     -37.477  23.152   2.930  0.00  0.00    -0.089 HD
ENDBRANCH  13  14
BRANCH  13  18
ATOM     18  C   UNL     1     -34.994  23.229   5.159  0.00  0.00    +0.088 C 
BRANCH  18  20
ATOM     19  O   UNL     1     -35.023  20.821   4.946  0.00  0.00    -0.250 OA
ATOM     20  C   UNL     1     -35.382  21.824   5.549  0.00  0.00    +0.312 C 
BRANCH  20  21
ATOM     21  O   UNL     1     -36.181  21.791   6.645  0.00  0.00    -0.480 OA
ATOM     22  H   UNL     1     -36.882  22.407   6.733  0.00  0.00    +0.295 HD
ENDBRANCH  20  21
ENDBRANCH  18  20
ENDBRANCH  13  18
ENDBRANCH   1  13
TORSDOF 10
ENDMDL
MODEL 2
REMARK VINA RESULT:      -5.0      2.882      4.117
REMARK  Name = 191734
REMARK  10 active torsions:
REMARK  status: ('A' for Active; 'I' for Inactive)
REMARK    1  A    between atoms: C_1  and  C_4
REMARK    2  A    between atoms: C_1  and  C_13
REMARK    3  A    between atoms: N_3  and  CA_6
REMARK    4  A    between atoms: CA_6  and  C_8
REMARK    5  A    between atoms: CA_6  and  C_11
REMARK    6  A    between atoms: C_8  and  O_9
REMARK    7  A    between atoms: C_13  and  N_14
REMARK    8  A    between atoms: C_13  and  C_18
REMARK    9  A    between atoms: C_18  and  C_20
REMARK   10  A    between atoms: C_20  and  O_21
REMARK                            x       y       z     vdW  Elec       q    Type
REMARK                         _______ _______ _______ _____ _____    ______ ____
ROOT
ATOM      1  C   UNL     1     -36.266  25.700   2.736  0.00  0.00    +0.064 C 
ENDROOT
BRANCH   1   4
ATOM      2  O   UNL     1     -37.888  24.271   3.834  0.00  0.00    -0.275 OA
ATOM      3  N   UNL     1     -35.763  23.442   3.408  0.00  0.00    -0.297 N 
ATOM      4  C   UNL     1     -36.755  24.411   3.379  0.00  0.00    +0.221 C 
ATOM      5  H   UNL     1     -34.885  23.651   3.015  0.00  0.00    +0.150 HD
BRANCH   3   6
ATOM      6  CA  UNL     1     -35.972  22.138   3.992  0.00  0.00    +0.171 C 
BRANCH   6   8
ATOM      7  OXT UNL     1     -35.090  23.008   6.075  0.00  0.00    -0.248 OA
ATOM      8  C   UNL     1     -35.378  22.037   5.387  0.00  0.00    +0.332 C 
BRANCH   8   9
ATOM      9  O   UNL     1     -35.205  20.761   5.804  0.00  0.00    -0.479 OA
ATOM     10  H   UNL     1     -35.758  20.407   6.472  0.00  0.00    +0.295 HD
ENDBRANCH   8   9
ENDBRANCH   6   8
BRANCH   6  11
ATOM     11  C   UNL     1     -35.466  21.021   3.073  0.00  0.00    +0.031 C 
ATOM     12  C   UNL     1     -35.072  21.484   1.675  0.00  0.00    +0.002 C 
ENDBRANCH   6  11
ENDBRANCH   3   6
ENDBRANCH   1   4
BRANCH   1  13
ATOM     13  C   UNL     1     -35.883  26.783   3.755  0.00  0.00    -0.045 C 
BRANCH  13  14
ATOM     14  N   UNL     1     -36.403  26.410   5.076  0.00  0.00    +0.383 N 
ATOM     15  H   UNL     1     -35.765  25.748   5.518  0.00  0.00    -0.089 HD
ATOM     16  H   UNL     1     -37.321  25.979   4.971  0.00  0.00    -0.089 HD
ATOM     17  H   UNL     1     -36.483  27.245   5.658  0.00  0.00    -0.089 HD
ENDBRANCH  13  14
BRANCH  13  18
ATOM     18  C   UNL     1     -34.360  26.956   3.847  0.00  0.00    +0.088 C 
BRANCH  18  20
ATOM     19  O   UNL     1     -33.564  26.781   6.124  0.00  0.00    -0.250 OA
ATOM     20  C   UNL     1     -33.778  26.244   5.044  0.00  0.00    +0.312 C 
BRANCH  20  21
ATOM     21  O   UNL     1     -33.511  24.939   4.793  0.00  0.00    -0.480 OA
ATOM     22  H   UNL     1     -33.495  24.625   3.911  0.00  0.00    +0.295 HD
ENDBRANCH  20  21
ENDBRANCH  18  20
ENDBRANCH  13  18
ENDBRANCH   1  13
TORSDOF 10
ENDMDL
MODEL 3
REMARK VINA RESULT:      -4.8      3.262      5.594
REMARK  Name = 191734
REMARK  10 active torsions:
REMARK  status: ('A' for Active; 'I' for Inactive)
REMARK    1  A    between atoms: C_1  and  C_4
REMARK    2  A    between atoms: C_1  and  C_13
REMARK    3  A    between atoms: N_3  and  CA_6
REMARK    4  A    between atoms: CA_6  and  C_8
REMARK    5  A    between atoms: CA_6  and  C_11
REMARK    6  A    between atoms: C_8  and  O_9
REMARK    7  A    between atoms: C_13  and  N_14
REMARK    8  A    between atoms: C_13  and  C_18
REMARK    9  A    between atoms: C_18  and  C_20
REMARK   10  A    between atoms: C_20  and  O_21
REMARK                            x       y       z     vdW  Elec       q    Type
REMARK                         _______ _______ _______ _____ _____    ______ ____
ROOT
ATOM      1  C   UNL     1     -36.740  23.110   1.621  0.00  0.00    +0.064 C 
ENDROOT
BRANCH   1   4
ATOM      2  O   UNL     1     -38.195  23.864   3.408  0.00  0.00    -0.275 OA
ATOM      3  N   UNL     1     -35.941  23.536   3.854  0.00  0.00    -0.297 N 
ATOM      4  C   UNL     1     -37.068  23.537   3.044  0.00  0.00    +0.221 C 
ATOM      5  H   UNL     1     -35.080  23.255   3.467  0.00  0.00    +0.150 HD
BRANCH   3   6
ATOM      6  CA  UNL     1     -35.987  23.929   5.242  0.00  0.00    +0.171 C 
BRANCH   6   8
ATOM      7  OXT UNL     1     -34.607  25.848   5.775  0.00  0.00    -0.248 OA
ATOM      8  C   UNL     1     -35.695  25.408   5.425  0.00  0.00    +0.332 C 
BRANCH   8   9
ATOM      9  O   UNL     1     -36.757  26.202   5.151  0.00  0.00    -0.479 OA
ATOM     10  H   UNL     1     -37.479  25.866   4.656  0.00  0.00    +0.295 HD
ENDBRANCH   8   9
ENDBRANCH   6   8
BRANCH   6  11
ATOM     11  C   UNL     1     -35.071  23.055   6.105  0.00  0.00    +0.031 C 
ATOM     12  C   UNL     1     -35.147  21.563   5.797  0.00  0.00    +0.002 C 
ENDBRANCH   6  11
ENDBRANCH   3   6
ENDBRANCH   1   4
BRANCH   1  13
ATOM     13  C   UNL     1     -37.474  21.836   1.181  0.00  0.00    -0.045 C 
BRANCH  13  14
ATOM     14  N   UNL     1     -37.925  21.102   2.369  0.00  0.00    +0.383 N 
ATOM     15  H   UNL     1     -37.812  21.690   3.195  0.00  0.00    -0.089 HD
ATOM     16  H   UNL     1     -37.368  20.255   2.477  0.00  0.00    -0.089 HD
ATOM     17  H   UNL     1     -38.908  20.852   2.262  0.00  0.00    -0.089 HD
ENDBRANCH  13  14
BRANCH  13  18
ATOM     18  C   UNL     1     -38.690  22.162   0.303  0.00  0.00    +0.088 C 
BRANCH  18  20
ATOM     19  O   UNL     1     -40.640  20.843   0.858  0.00  0.00    -0.250 OA
ATOM     20  C   UNL     1     -39.994  21.873   1.006  0.00  0.00    +0.312 C 
BRANCH  20  21
ATOM     21  O   UNL     1     -40.379  22.885   1.823  0.00  0.00    -0.480 OA
ATOM     22  H   UNL     1     -39.864  23.666   1.876  0.00  0.00    +0.295 HD
ENDBRANCH  20  21
ENDBRANCH  18  20
ENDBRANCH  13  18
ENDBRANCH   1  13
TORSDOF 10
ENDMDL
MODEL 4
REMARK VINA RESULT:      -4.5      2.661      5.087
REMARK  Name = 191734
REMARK  10 active torsions:
REMARK  status: ('A' for Active; 'I' for Inactive)
REMARK    1  A    between atoms: C_1  and  C_4
REMARK    2  A    between atoms: C_1  and  C_13
REMARK    3  A    between atoms: N_3  and  CA_6
REMARK    4  A    between atoms: CA_6  and  C_8
REMARK    5  A    between atoms: CA_6  and  C_11
REMARK    6  A    between atoms: C_8  and  O_9
REMARK    7  A    between atoms: C_13  and  N_14
REMARK    8  A    between atoms: C_13  and  C_18
REMARK    9  A    between atoms: C_18  and  C_20
REMARK   10  A    between atoms: C_20  and  O_21
REMARK                            x       y       z     vdW  Elec       q    Type
REMARK                         _______ _______ _______ _____ _____    ______ ____
ROOT
ATOM      1  C   UNL     1     -36.546  23.084   1.595  0.00  0.00    +0.064 C 
ENDROOT
BRANCH   1   4
ATOM      2  O   UNL     1     -37.504  23.436   3.794  0.00  0.00    -0.275 OA
ATOM      3  N   UNL     1     -35.220  23.075   3.606  0.00  0.00    -0.297 N 
ATOM      4  C   UNL     1     -36.509  23.213   3.111  0.00  0.00    +0.221 C 
ATOM      5  H   UNL     1     -34.486  22.897   2.974  0.00  0.00    +0.150 HD
BRANCH   3   6
ATOM      6  CA  UNL     1     -34.917  23.185   5.013  0.00  0.00    +0.171 C 
BRANCH   6   8
ATOM      7  OXT UNL     1     -36.211  22.102   6.752  0.00  0.00    -0.248 OA
ATOM      8  C   UNL     1     -35.445  21.999   5.803  0.00  0.00    +0.332 C 
BRANCH   8   9
ATOM      9  O   UNL     1     -34.991  20.807   5.347  0.00  0.00    -0.479 OA
ATOM     10  H   UNL     1     -35.556  20.059   5.348  0.00  0.00    +0.295 HD
ENDBRANCH   8   9
ENDBRANCH   6   8
BRANCH   6  11
ATOM     11  C   UNL     1     -35.402  24.518   5.592  0.00  0.00    +0.031 C 
ATOM     12  C   UNL     1     -34.344  25.615   5.625  0.00  0.00    +0.002 C 
ENDBRANCH   6  11
ENDBRANCH   3   6
ENDBRANCH   1   4
BRANCH   1  13
ATOM     13  C   UNL     1     -37.349  21.871   1.105  0.00  0.00    -0.045 C 
BRANCH  13  14
ATOM     14  N   UNL     1     -37.584  20.959   2.231  0.00  0.00    +0.383 N 
ATOM     15  H   UNL     1     -37.584  21.488   3.103  0.00  0.00    -0.089 HD
ATOM     16  H   UNL     1     -36.845  20.257   2.260  0.00  0.00    -0.089 HD
ATOM     17  H   UNL     1     -38.487  20.499   2.113  0.00  0.00    -0.089 HD
ENDBRANCH  13  14
BRANCH  13  18
ATOM     18  C   UNL     1     -38.700  22.292   0.511  0.00  0.00    +0.088 C 
BRANCH  18  20
ATOM     19  O   UNL     1     -40.490  20.906   1.361  0.00  0.00    -0.250 OA
ATOM     20  C   UNL     1     -39.854  21.950   1.423  0.00  0.00    +0.312 C 
BRANCH  20  21
ATOM     21  O   UNL     1     -40.114  22.932   2.321  0.00  0.00    -0.480 OA
ATOM     22  H   UNL     1     -39.813  22.851   3.205  0.00  0.00    +0.295 HD
ENDBRANCH  20  21
ENDBRANCH  18  20
ENDBRANCH  13  18
ENDBRANCH   1  13
TORSDOF 10
ENDMDL
MODEL 5
REMARK VINA RESULT:      -4.5      3.306      5.923
REMARK  Name = 191734
REMARK  10 active torsions:
REMARK  status: ('A' for Active; 'I' for Inactive)
REMARK    1  A    between atoms: C_1  and  C_4
REMARK    2  A    between atoms: C_1  and  C_13
REMARK    3  A    between atoms: N_3  and  CA_6
REMARK    4  A    between atoms: CA_6  and  C_8
REMARK    5  A    between atoms: CA_6  and  C_11
REMARK    6  A    between atoms: C_8  and  O_9
REMARK    7  A    between atoms: C_13  and  N_14
REMARK    8  A    between atoms: C_13  and  C_18
REMARK    9  A    between atoms: C_18  and  C_20
REMARK   10  A    between atoms: C_20  and  O_21
REMARK                            x       y       z     vdW  Elec       q    Type
REMARK                         _______ _______ _______ _____ _____    ______ ____
ROOT
ATOM      1  C   UNL     1     -36.481  23.588   1.376  0.00  0.00    +0.064 C 
ENDROOT
BRANCH   1   4
ATOM      2  O   UNL     1     -37.547  22.778   3.398  0.00  0.00    -0.275 OA
ATOM      3  N   UNL     1     -35.809  24.305   3.576  0.00  0.00    -0.297 N 
ATOM      4  C   UNL     1     -36.686  23.486   2.880  0.00  0.00    +0.221 C 
ATOM      5  H   UNL     1     -35.153  24.836   3.068  0.00  0.00    +0.150 HD
BRANCH   3   6
ATOM      6  CA  UNL     1     -35.823  24.407   5.016  0.00  0.00    +0.171 C 
BRANCH   6   8
ATOM      7  OXT UNL     1     -34.544  26.242   5.947  0.00  0.00    -0.248 OA
ATOM      8  C   UNL     1     -35.604  25.833   5.488  0.00  0.00    +0.332 C 
BRANCH   8   9
ATOM      9  O   UNL     1     -36.696  26.620   5.343  0.00  0.00    -0.479 OA
ATOM     10  H   UNL     1     -36.630  27.544   5.480  0.00  0.00    +0.295 HD
ENDBRANCH   8   9
ENDBRANCH   6   8
BRANCH   6  11
ATOM     11  C   UNL     1     -34.829  23.433   5.658  0.00  0.00    +0.031 C 
ATOM     12  C   UNL     1     -35.469  22.196   6.279  0.00  0.00    +0.002 C 
ENDBRANCH   6  11
ENDBRANCH   3   6
ENDBRANCH   1   4
BRANCH   1  13
ATOM     13  C   UNL     1     -37.553  24.428   0.669  0.00  0.00    -0.045 C 
BRANCH  13  14
ATOM     14  N   UNL     1     -38.793  24.391   1.454  0.00  0.00    +0.383 N 
ATOM     15  H   UNL     1     -39.568  24.728   0.882  0.00  0.00    -0.089 HD
ATOM     16  H   UNL     1     -38.694  24.986   2.276  0.00  0.00    -0.089 HD
ATOM     17  H   UNL     1     -38.980  23.432   1.748  0.00  0.00    -0.089 HD
ENDBRANCH  13  14
BRANCH  13  18
ATOM     18  C   UNL     1     -37.108  25.888   0.507  0.00  0.00    +0.088 C 
BRANCH  18  20
ATOM     19  O   UNL     1     -38.914  27.407   1.039  0.00  0.00    -0.250 OA
ATOM     20  C   UNL     1     -37.895  26.825   1.391  0.00  0.00    +0.312 C 
BRANCH  20  21
ATOM     21  O   UNL     1     -37.348  26.958   2.625  0.00  0.00    -0.480 OA
ATOM     22  H   UNL     1     -37.238  27.810   3.000  0.00  0.00    +0.295 HD
ENDBRANCH  20  21
ENDBRANCH  18  20
ENDBRANCH  13  18
ENDBRANCH   1  13
TORSDOF 10
ENDMDL
MODEL 6
REMARK VINA RESULT:      -4.5      3.388      4.059
REMARK  Name = 191734
REMARK  10 active torsions:
REMARK  status: ('A' for Active; 'I' for Inactive)
REMARK    1  A    between atoms: C_1  and  C_4
REMARK    2  A    between atoms: C_1  and  C_13
REMARK    3  A    between atoms: N_3  and  CA_6
REMARK    4  A    between atoms: CA_6  and  C_8
REMARK    5  A    between atoms: CA_6  and  C_11
REMARK    6  A    between atoms: C_8  and  O_9
REMARK    7  A    between atoms: C_13  and  N_14
REMARK    8  A    between atoms: C_13  and  C_18
REMARK    9  A    between atoms: C_18  and  C_20
REMARK   10  A    between atoms: C_20  and  O_21
REMARK                            x       y       z     vdW  Elec       q    Type
REMARK                         _______ _______ _______ _____ _____    ______ ____
ROOT
ATOM      1  C   UNL     1     -35.271  24.290   5.430  0.00  0.00    +0.064 C 
ENDROOT
BRANCH   1   4
ATOM      2  O   UNL     1     -37.326  23.954   4.189  0.00  0.00    -0.275 OA
ATOM      3  N   UNL     1     -35.429  22.774   3.566  0.00  0.00    -0.297 N 
ATOM      4  C   UNL     1     -36.138  23.682   4.338  0.00  0.00    +0.221 C 
ATOM      5  H   UNL     1     -34.476  22.624   3.765  0.00  0.00    +0.150 HD
BRANCH   3   6
ATOM      6  CA  UNL     1     -36.037  22.041   2.481  0.00  0.00    +0.171 C 
BRANCH   6   8
ATOM      7  OXT UNL     1     -34.663  20.049   2.610  0.00  0.00    -0.248 OA
ATOM      8  C   UNL     1     -35.782  20.548   2.588  0.00  0.00    +0.332 C 
BRANCH   8   9
ATOM      9  O   UNL     1     -36.917  19.814   2.668  0.00  0.00    -0.479 OA
ATOM     10  H   UNL     1     -36.899  18.963   3.060  0.00  0.00    +0.295 HD
ENDBRANCH   8   9
ENDBRANCH   6   8
BRANCH   6  11
ATOM     11  C   UNL     1     -35.611  22.597   1.117  0.00  0.00    +0.031 C 
ATOM     12  C   UNL     1     -34.434  23.564   1.169  0.00  0.00    +0.002 C 
ENDBRANCH   6  11
ENDBRANCH   3   6
ENDBRANCH   1   4
BRANCH   1  13
ATOM     13  C   UNL     1     -34.776  25.705   5.100  0.00  0.00    -0.045 C 
BRANCH  13  14
ATOM     14  N   UNL     1     -35.929  26.606   4.981  0.00  0.00    +0.383 N 
ATOM     15  H   UNL     1     -35.677  27.405   4.399  0.00  0.00    -0.089 HD
ATOM     16  H   UNL     1     -36.201  26.934   5.908  0.00  0.00    -0.089 HD
ATOM     17  H   UNL     1     -36.708  26.106   4.554  0.00  0.00    -0.089 HD
ENDBRANCH  13  14
BRANCH  13  18
ATOM     18  C   UNL     1     -33.832  26.239   6.187  0.00  0.00    +0.088 C 
BRANCH  18  20
ATOM     19  O   UNL     1     -33.199  28.070   4.739  0.00  0.00    -0.250 OA
ATOM     20  C   UNL     1     -32.916  27.320   5.665  0.00  0.00    +0.312 C 
BRANCH  20  21
ATOM     21  O   UNL     1     -31.737  27.369   6.333  0.00  0.00    -0.480 OA
ATOM     22  H   UNL     1     -30.933  27.225   5.875  0.00  0.00    +0.295 HD
ENDBRANCH  20  21
ENDBRANCH  18  20
ENDBRANCH  13  18
ENDBRANCH   1  13
TORSDOF 10
ENDMDL
MODEL 7
REMARK VINA RESULT:      -4.4      2.574      5.139
REMARK  Name = 191734
REMARK  10 active torsions:
REMARK  status: ('A' for Active; 'I' for Inactive)
REMARK    1  A    between atoms: C_1  and  C_4
REMARK    2  A    between atoms: C_1  and  C_13
REMARK    3  A    between atoms: N_3  and  CA_6
REMARK    4  A    between atoms: CA_6  and  C_8
REMARK    5  A    between atoms: CA_6  and  C_11
REMARK    6  A    between atoms: C_8  and  O_9
REMARK    7  A    between atoms: C_13  and  N_14
REMARK    8  A    between atoms: C_13  and  C_18
REMARK    9  A    between atoms: C_18  and  C_20
REMARK   10  A    between atoms: C_20  and  O_21
REMARK                            x       y       z     vdW  Elec       q    Type
REMARK                         _______ _______ _______ _____ _____    ______ ____
ROOT
ATOM      1  C   UNL     1     -37.185  23.622   1.772  0.00  0.00    +0.064 C 
ENDROOT
BRANCH   1   4
ATOM      2  O   UNL     1     -38.324  24.381   3.772  0.00  0.00    -0.275 OA
ATOM      3  N   UNL     1     -36.065  23.861   3.891  0.00  0.00    -0.297 N 
ATOM      4  C   UNL     1     -37.286  23.992   3.244  0.00  0.00    +0.221 C 
ATOM      5  H   UNL     1     -35.289  23.539   3.378  0.00  0.00    +0.150 HD
BRANCH   3   6
ATOM      6  CA  UNL     1     -35.894  24.179   5.289  0.00  0.00    +0.171 C 
BRANCH   6   8
ATOM      7  OXT UNL     1     -34.332  25.986   5.694  0.00  0.00    -0.248 OA
ATOM      8  C   UNL     1     -35.486  25.626   5.498  0.00  0.00    +0.332 C 
BRANCH   8   9
ATOM      9  O   UNL     1     -36.527  26.491   5.437  0.00  0.00    -0.479 OA
ATOM     10  H   UNL     1     -36.998  26.602   4.635  0.00  0.00    +0.295 HD
ENDBRANCH   8   9
ENDBRANCH   6   8
BRANCH   6  11
ATOM     11  C   UNL     1     -34.925  23.208   5.973  0.00  0.00    +0.031 C 
ATOM     12  C   UNL     1     -35.278  21.735   5.797  0.00  0.00    +0.002 C 
ENDBRANCH   6  11
ENDBRANCH   3   6
ENDBRANCH   1   4
BRANCH   1  13
ATOM     13  C   UNL     1     -37.479  22.141   1.492  0.00  0.00    -0.045 C 
BRANCH  13  14
ATOM     14  N   UNL     1     -38.485  22.040   0.428  0.00  0.00    +0.383 N 
ATOM     15  H   UNL     1     -38.244  22.681  -0.329  0.00  0.00    -0.089 HD
ATOM     16  H   UNL     1     -39.402  22.285   0.801  0.00  0.00    -0.089 HD
ATOM     17  H   UNL     1     -38.507  21.085   0.070  0.00  0.00    -0.089 HD
ENDBRANCH  13  14
BRANCH  13  18
ATOM     18  C   UNL     1     -36.214  21.388   1.059  0.00  0.00    +0.088 C 
BRANCH  18  20
ATOM     19  O   UNL     1     -34.636  20.030   2.289  0.00  0.00    -0.250 OA
ATOM     20  C   UNL     1     -35.798  20.345   2.069  0.00  0.00    +0.312 C 
BRANCH  20  21
ATOM     21  O   UNL     1     -36.858  19.789   2.707  0.00  0.00    -0.480 OA
ATOM     22  H   UNL     1     -37.713  19.843   2.330  0.00  0.00    +0.295 HD
ENDBRANCH  20  21
ENDBRANCH  18  20
ENDBRANCH  13  18
ENDBRANCH   1  13
TORSDOF 10
ENDMDL
MODEL 8
REMARK VINA RESULT:      -4.4      1.924      4.642
REMARK  Name = 191734
REMARK  10 active torsions:
REMARK  status: ('A' for Active; 'I' for Inactive)
REMARK    1  A    between atoms: C_1  and  C_4
REMARK    2  A    between atoms: C_1  and  C_13
REMARK    3  A    between atoms: N_3  and  CA_6
REMARK    4  A    between atoms: CA_6  and  C_8
REMARK    5  A    between atoms: CA_6  and  C_11
REMARK    6  A    between atoms: C_8  and  O_9
REMARK    7  A    between atoms: C_13  and  N_14
REMARK    8  A    between atoms: C_13  and  C_18
REMARK    9  A    between atoms: C_18  and  C_20
REMARK   10  A    between atoms: C_20  and  O_21
REMARK                            x       y       z     vdW  Elec       q    Type
REMARK                         _______ _______ _______ _____ _____    ______ ____
ROOT
ATOM      1  C   UNL     1     -38.291  23.175   2.050  0.00  0.00    +0.064 C 
ENDROOT
BRANCH   1   4
ATOM      2  O   UNL     1     -35.973  23.878   1.949  0.00  0.00    -0.275 OA
ATOM      3  N   UNL     1     -36.765  22.886   3.891  0.00  0.00    -0.297 N 
ATOM      4  C   UNL     1     -36.885  23.372   2.597  0.00  0.00    +0.221 C 
ATOM      5  H   UNL     1     -37.558  22.497   4.327  0.00  0.00    +0.150 HD
BRANCH   3   6
ATOM      6  CA  UNL     1     -35.520  22.931   4.622  0.00  0.00    +0.171 C 
BRANCH   6   8
ATOM      7  OXT UNL     1     -35.031  20.573   4.354  0.00  0.00    -0.248 OA
ATOM      8  C   UNL     1     -35.082  21.553   5.086  0.00  0.00    +0.332 C 
BRANCH   8   9
ATOM      9  O   UNL     1     -34.742  21.512   6.396  0.00  0.00    -0.479 OA
ATOM     10  H   UNL     1     -34.000  21.995   6.703  0.00  0.00    +0.295 HD
ENDBRANCH   8   9
ENDBRANCH   6   8
BRANCH   6  11
ATOM     11  C   UNL     1     -35.583  23.932   5.780  0.00  0.00    +0.031 C 
ATOM     12  C   UNL     1     -35.922  25.359   5.365  0.00  0.00    +0.002 C 
ENDBRANCH   6  11
ENDBRANCH   3   6
ENDBRANCH   1   4
BRANCH   1  13
ATOM     13  C   UNL     1     -38.739  21.707   2.033  0.00  0.00    -0.045 C 
BRANCH  13  14
ATOM     14  N   UNL     1     -40.199  21.648   1.891  0.00  0.00    +0.383 N 
ATOM     15  H   UNL     1     -40.499  22.315   1.179  0.00  0.00    -0.089 HD
ATOM     16  H   UNL     1     -40.637  21.883   2.781  0.00  0.00    -0.089 HD
ATOM     17  H   UNL     1     -40.476  20.706   1.613  0.00  0.00    -0.089 HD
ENDBRANCH  13  14
BRANCH  13  18
ATOM     18  C   UNL     1     -38.093  20.935   0.874  0.00  0.00    +0.088 C 
BRANCH  18  20
ATOM     19  O   UNL     1     -35.825  20.153   0.571  0.00  0.00    -0.250 OA
ATOM     20  C   UNL     1     -36.812  20.253   1.289  0.00  0.00    +0.312 C 
BRANCH  20  21
ATOM     21  O   UNL     1     -36.872  19.756   2.549  0.00  0.00    -0.480 OA
ATOM     22  H   UNL     1     -37.635  19.899   3.073  0.00  0.00    +0.295 HD
ENDBRANCH  20  21
ENDBRANCH  18  20
ENDBRANCH  13  18
ENDBRANCH   1  13
TORSDOF 10
ENDMDL
MODEL 9
REMARK VINA RESULT:      -4.4      3.525      5.159
REMARK  Name = 191734
REMARK  10 active torsions:
REMARK  status: ('A' for Active; 'I' for Inactive)
REMARK    1  A    between atoms: C_1  and  C_4
REMARK    2  A    between atoms: C_1  and  C_13
REMARK    3  A    between atoms: N_3  and  CA_6
REMARK    4  A    between atoms: CA_6  and  C_8
REMARK    5  A    between atoms: CA_6  and  C_11
REMARK    6  A    between atoms: C_8  and  O_9
REMARK    7  A    between atoms: C_13  and  N_14
REMARK    8  A    between atoms: C_13  and  C_18
REMARK    9  A    between atoms: C_18  and  C_20
REMARK   10  A    between atoms: C_20  and  O_21
REMARK                            x       y       z     vdW  Elec       q    Type
REMARK                         _______ _______ _______ _____ _____    ______ ____
ROOT
ATOM      1  C   UNL     1     -35.940  22.847   4.455  0.00  0.00    +0.064 C 
ENDROOT
BRANCH   1   4
ATOM      2  O   UNL     1     -36.293  22.786   2.057  0.00  0.00    -0.275 OA
ATOM      3  N   UNL     1     -37.776  23.980   3.384  0.00  0.00    -0.297 N 
ATOM      4  C   UNL     1     -36.669  23.174   3.160  0.00  0.00    +0.221 C 
ATOM      5  H   UNL     1     -37.995  24.238   4.308  0.00  0.00    +0.150 HD
BRANCH   3   6
ATOM      6  CA  UNL     1     -38.618  24.451   2.310  0.00  0.00    +0.171 C 
BRANCH   6   8
ATOM      7  OXT UNL     1     -38.748  26.702   1.423  0.00  0.00    -0.248 OA
ATOM      8  C   UNL     1     -38.850  25.950   2.384  0.00  0.00    +0.332 C 
BRANCH   8   9
ATOM      9  O   UNL     1     -39.193  26.379   3.622  0.00  0.00    -0.479 OA
ATOM     10  H   UNL     1     -38.548  26.415   4.301  0.00  0.00    +0.295 HD
ENDBRANCH   8   9
ENDBRANCH   6   8
BRANCH   6  11
ATOM     11  C   UNL     1     -39.936  23.672   2.244  0.00  0.00    +0.031 C 
ATOM     12  C   UNL     1     -39.785  22.209   1.841  0.00  0.00    +0.002 C 
ENDBRANCH   6  11
ENDBRANCH   3   6
ENDBRANCH   1   4
BRANCH   1  13
ATOM     13  C   UNL     1     -34.727  23.749   4.719  0.00  0.00    -0.045 C 
BRANCH  13  14
ATOM     14  N   UNL     1     -34.387  24.475   3.489  0.00  0.00    +0.383 N 
ATOM     15  H   UNL     1     -35.242  24.808   3.043  0.00  0.00    -0.089 HD
ATOM     16  H   UNL     1     -33.892  23.852   2.852  0.00  0.00    -0.089 HD
ATOM     17  H   UNL     1     -33.792  25.271   3.718  0.00  0.00    -0.089 HD
ENDBRANCH  13  14
BRANCH  13  18
ATOM     18  C   UNL     1     -35.013  24.763   5.836  0.00  0.00    +0.088 C 
BRANCH  18  20
ATOM     19  O   UNL     1     -34.514  27.000   5.062  0.00  0.00    -0.250 OA
ATOM     20  C   UNL     1     -35.346  26.131   5.292  0.00  0.00    +0.312 C 
BRANCH  20  21
ATOM     21  O   UNL     1     -36.676  26.298   5.086  0.00  0.00    -0.480 OA
ATOM     22  H   UNL     1     -37.155  26.920   5.596  0.00  0.00    +0.295 HD
ENDBRANCH  20  21
ENDBRANCH  18  20
ENDBRANCH  13  18
ENDBRANCH   1  13
TORSDOF 10
ENDMDL
