MODEL 1
REMARK VINA RESULT:      -6.3      0.000      0.000
REMARK  Name = 5284528
REMARK  8 active torsions:
REMARK  status: ('A' for Active; 'I' for Inactive)
REMARK    1  A    between atoms: N_2  and  CA_9
REMARK    2  A    between atoms: C_3  and  CA_21
REMARK    3  A    between atoms: CA_11  and  C_18
REMARK    4  A    between atoms: C_13  and  C_14
REMARK    5  A    between atoms: C_18  and  O_19
REMARK    6  A    between atoms: CA_21  and  C_22
REMARK    7  A    between atoms: CA_21  and  N_30
REMARK    8  A    between atoms: C_27  and  O_28
REMARK                            x       y       z     vdW  Elec       q    Type
REMARK                         _______ _______ _______ _____ _____    ______ ____
ROOT
ATOM      1  O   UNL     1     -34.634  25.739   1.569  0.00  0.00    -0.277 OA
ATOM      2  N   UNL     1     -33.706  27.216   3.096  0.00  0.00    -0.298 N 
ATOM      3  C   UNL     1     -34.641  26.266   2.680  0.00  0.00    +0.206 C 
ATOM      4  H   UNL     1     -33.786  27.589   4.004  0.00  0.00    +0.150 HD
ENDROOT
BRANCH   2   9
ATOM      5  S   UNL     1     -32.477  29.842   4.097  0.00  0.00    -0.114 S 
ATOM      6  O   UNL     1     -30.839  25.837   2.394  0.00  0.00    -0.273 OA
ATOM      7  N   UNL     1     -30.771  28.105   3.038  0.00  0.00    -0.242 N 
ATOM      8  C   UNL     1     -31.864  28.973   2.637  0.00  0.00    +0.155 C 
ATOM      9  CA  UNL     1     -32.616  27.683   2.242  0.00  0.00    +0.178 C 
ATOM     10  C   UNL     1     -31.263  26.962   2.514  0.00  0.00    +0.251 C 
ATOM     11  CA  UNL     1     -29.676  28.535   3.721  0.00  0.00    +0.128 C 
ATOM     12  C   UNL     1     -30.877  30.668   4.407  0.00  0.00    +0.087 C 
ATOM     13  C   UNL     1     -29.665  29.741   4.339  0.00  0.00    +0.009 C 
BRANCH  13  14
ATOM     14  C   UNL     1     -28.518  30.299   5.031  0.00  0.00    -0.007 C 
ATOM     15  C   UNL     1     -28.306  30.125   6.334  0.00  0.00    -0.026 C 
ATOM     16  C   UNL     1     -29.224  29.339   7.212  0.00  0.00    +0.031 C 
ENDBRANCH  13  14
BRANCH  11  18
ATOM     17  OXT UNL     1     -28.383  26.777   4.660  0.00  0.00    -0.244 OA
ATOM     18  C   UNL     1     -28.537  27.604   3.786  0.00  0.00    +0.352 C 
BRANCH  18  19
ATOM     19  O   UNL     1     -27.720  27.826   2.739  0.00  0.00    -0.476 OA
ATOM     20  H   UNL     1     -27.469  27.115   2.183  0.00  0.00    +0.295 HD
ENDBRANCH  18  19
ENDBRANCH  11  18
ENDBRANCH   2   9
BRANCH   3  21
ATOM     21  CA  UNL     1     -35.693  25.962   3.741  0.00  0.00    +0.036 C 
BRANCH  21  22
ATOM     22  C   UNL     1     -35.570  24.536   4.233  0.00  0.00    -0.034 C 
ATOM     23  C   UNL     1     -35.779  23.496   3.344  0.00  0.00    -0.003 C 
ATOM     24  C   UNL     1     -35.252  24.306   5.559  0.00  0.00    -0.003 C 
ATOM     25  C   UNL     1     -35.666  22.182   3.799  0.00  0.00    +0.036 C 
ATOM     26  C   UNL     1     -35.139  22.992   6.013  0.00  0.00    +0.036 C 
ATOM     27  C   UNL     1     -35.346  21.930   5.133  0.00  0.00    +0.134 C 
BRANCH  27  28
ATOM     28  O   UNL     1     -35.235  20.646   5.575  0.00  0.00    -0.506 OA
ATOM     29  H   UNL     1     -35.160  20.472   6.492  0.00  0.00    +0.292 HD
ENDBRANCH  27  28
ENDBRANCH  21  22
BRANCH  21  30
ATOM     30  N   UNL     1     -35.534  26.941   4.820  0.00  0.00    +0.390 N 
ATOM     31  H1  UNL     1     -35.887  27.848   4.513  0.00  0.00    -0.088 HD
ATOM     32  H2  UNL     1     -34.546  27.025   5.061  0.00  0.00    -0.088 HD
ATOM     33  H3  UNL     1     -36.059  26.633   5.639  0.00  0.00    -0.088 HD
ENDBRANCH  21  30
ENDBRANCH   3  21
TORSDOF 8
ENDMDL
MODEL 2
REMARK VINA RESULT:      -6.2      1.651      2.188
REMARK  Name = 5284528
REMARK  8 active torsions:
REMARK  status: ('A' for Active; 'I' for Inactive)
REMARK    1  A    between atoms: N_2  and  CA_9
REMARK    2  A    between atoms: C_3  and  CA_21
REMARK    3  A    between atoms: CA_11  and  C_18
REMARK    4  A    between atoms: C_13  and  C_14
REMARK    5  A    between atoms: C_18  and  O_19
REMARK    6  A    between atoms: CA_21  and  C_22
REMARK    7  A    between atoms: CA_21  and  N_30
REMARK    8  A    between atoms: C_27  and  O_28
REMARK                            x       y       z     vdW  Elec       q    Type
REMARK                         _______ _______ _______ _____ _____    ______ ____
ROOT
ATOM      1  O   UNL     1     -36.406  25.873   1.001  0.00  0.00    -0.277 OA
ATOM      2  N   UNL     1     -34.750  26.093   2.608  0.00  0.00    -0.298 N 
ATOM      3  C   UNL     1     -36.030  25.754   2.166  0.00  0.00    +0.206 C 
ATOM      4  H   UNL     1     -34.531  25.967   3.560  0.00  0.00    +0.150 HD
ENDROOT
BRANCH   2   9
ATOM      5  S   UNL     1     -34.574  29.152   2.731  0.00  0.00    -0.114 S 
ATOM      6  O   UNL     1     -31.522  25.646   2.608  0.00  0.00    -0.273 OA
ATOM      7  N   UNL     1     -32.262  27.880   2.442  0.00  0.00    -0.242 N 
ATOM      8  C   UNL     1     -33.479  28.154   1.699  0.00  0.00    +0.155 C 
ATOM      9  CA  UNL     1     -33.720  26.629   1.720  0.00  0.00    +0.178 C 
ATOM     10  C   UNL     1     -32.283  26.536   2.308  0.00  0.00    +0.251 C 
ATOM     11  CA  UNL     1     -31.488  28.845   3.008  0.00  0.00    +0.128 C 
ATOM     12  C   UNL     1     -33.382  30.533   2.845  0.00  0.00    +0.087 C 
ATOM     13  C   UNL     1     -31.953  30.107   3.176  0.00  0.00    +0.009 C 
BRANCH  13  14
ATOM     14  C   UNL     1     -31.172  31.206   3.710  0.00  0.00    -0.007 C 
ATOM     15  C   UNL     1     -31.120  31.492   5.010  0.00  0.00    -0.026 C 
ATOM     16  C   UNL     1     -31.858  30.711   6.046  0.00  0.00    +0.031 C 
ENDBRANCH  13  14
BRANCH  11  18
ATOM     17  OXT UNL     1     -29.130  28.610   2.828  0.00  0.00    -0.244 OA
ATOM     18  C   UNL     1     -30.150  28.431   3.461  0.00  0.00    +0.352 C 
BRANCH  18  19
ATOM     19  O   UNL     1     -30.252  27.834   4.664  0.00  0.00    -0.476 OA
ATOM     20  H   UNL     1     -30.649  26.989   4.735  0.00  0.00    +0.295 HD
ENDBRANCH  18  19
ENDBRANCH  11  18
ENDBRANCH   2   9
BRANCH   3  21
ATOM     21  CA  UNL     1     -36.929  25.239   3.285  0.00  0.00    +0.036 C 
BRANCH  21  22
ATOM     22  C   UNL     1     -36.352  23.987   3.910  0.00  0.00    -0.034 C 
ATOM     23  C   UNL     1     -35.951  24.017   5.234  0.00  0.00    -0.003 C 
ATOM     24  C   UNL     1     -36.237  22.843   3.141  0.00  0.00    -0.003 C 
ATOM     25  C   UNL     1     -35.418  22.863   5.808  0.00  0.00    +0.036 C 
ATOM     26  C   UNL     1     -35.705  21.688   3.716  0.00  0.00    +0.036 C 
ATOM     27  C   UNL     1     -35.295  21.698   5.049  0.00  0.00    +0.134 C 
BRANCH  27  28
ATOM     28  O   UNL     1     -34.776  20.572   5.611  0.00  0.00    -0.506 OA
ATOM     29  H   UNL     1     -34.365  20.616   6.451  0.00  0.00    +0.292 HD
ENDBRANCH  27  28
ENDBRANCH  21  22
BRANCH  21  30
ATOM     30  N   UNL     1     -37.096  26.323   4.257  0.00  0.00    +0.390 N 
ATOM     31  H1  UNL     1     -36.240  26.424   4.805  0.00  0.00    -0.088 HD
ATOM     32  H2  UNL     1     -37.874  26.105   4.880  0.00  0.00    -0.088 HD
ATOM     33  H3  UNL     1     -37.289  27.195   3.765  0.00  0.00    -0.088 HD
ENDBRANCH  21  30
ENDBRANCH   3  21
TORSDOF 8
ENDMDL
MODEL 3
REMARK VINA RESULT:      -6.1      5.447      7.876
REMARK  Name = 5284528
REMARK  8 active torsions:
REMARK  status: ('A' for Active; 'I' for Inactive)
REMARK    1  A    between atoms: N_2  and  CA_9
REMARK    2  A    between atoms: C_3  and  CA_21
REMARK    3  A    between atoms: CA_11  and  C_18
REMARK    4  A    between atoms: C_13  and  C_14
REMARK    5  A    between atoms: C_18  and  O_19
REMARK    6  A    between atoms: CA_21  and  C_22
REMARK    7  A    between atoms: CA_21  and  N_30
REMARK    8  A    between atoms: C_27  and  O_28
REMARK                            x       y       z     vdW  Elec       q    Type
REMARK                         _______ _______ _______ _____ _____    ______ ____
ROOT
ATOM      1  O   UNL     1     -35.058  20.261   3.272  0.00  0.00    -0.277 OA
ATOM      2  N   UNL     1     -36.277  21.778   2.011  0.00  0.00    -0.298 N 
ATOM      3  C   UNL     1     -35.500  20.630   2.185  0.00  0.00    +0.206 C 
ATOM      4  H   UNL     1     -36.590  22.001   1.104  0.00  0.00    +0.150 HD
ENDROOT
BRANCH   2   9
ATOM      5  S   UNL     1     -34.589  24.337   2.075  0.00  0.00    -0.114 S 
ATOM      6  O   UNL     1     -39.086  23.301   2.647  0.00  0.00    -0.273 OA
ATOM      7  N   UNL     1     -37.136  24.624   2.767  0.00  0.00    -0.242 N 
ATOM      8  C   UNL     1     -35.914  24.013   3.259  0.00  0.00    +0.155 C 
ATOM      9  CA  UNL     1     -36.645  22.661   3.115  0.00  0.00    +0.178 C 
ATOM     10  C   UNL     1     -37.911  23.520   2.828  0.00  0.00    +0.251 C 
ATOM     11  CA  UNL     1     -37.239  25.934   2.418  0.00  0.00    +0.128 C 
ATOM     12  C   UNL     1     -34.710  26.150   2.273  0.00  0.00    +0.087 C 
ATOM     13  C   UNL     1     -36.136  26.696   2.219  0.00  0.00    +0.009 C 
BRANCH  13  14
ATOM     14  C   UNL     1     -36.160  28.113   1.910  0.00  0.00    -0.007 C 
ATOM     15  C   UNL     1     -36.109  28.582   0.665  0.00  0.00    -0.026 C 
ATOM     16  C   UNL     1     -36.023  27.698  -0.536  0.00  0.00    +0.031 C 
ENDBRANCH  13  14
BRANCH  11  18
ATOM     17  OXT UNL     1     -39.055  26.805   1.157  0.00  0.00    -0.244 OA
ATOM     18  C   UNL     1     -38.603  26.456   2.227  0.00  0.00    +0.352 C 
BRANCH  18  19
ATOM     19  O   UNL     1     -39.241  26.479   3.413  0.00  0.00    -0.476 OA
ATOM     20  H   UNL     1     -40.167  26.337   3.449  0.00  0.00    +0.295 HD
ENDBRANCH  18  19
ENDBRANCH  11  18
ENDBRANCH   2   9
BRANCH   3  21
ATOM     21  CA  UNL     1     -35.232  19.889   0.880  0.00  0.00    +0.036 C 
BRANCH  21  22
ATOM     22  C   UNL     1     -33.762  19.557   0.738  0.00  0.00    -0.034 C 
ATOM     23  C   UNL     1     -33.298  18.338   1.199  0.00  0.00    -0.003 C 
ATOM     24  C   UNL     1     -32.916  20.482   0.153  0.00  0.00    -0.003 C 
ATOM     25  C   UNL     1     -31.944  18.034   1.070  0.00  0.00    +0.036 C 
ATOM     26  C   UNL     1     -31.561  20.177   0.023  0.00  0.00    +0.036 C 
ATOM     27  C   UNL     1     -31.075  18.953   0.481  0.00  0.00    +0.134 C 
BRANCH  27  28
ATOM     28  O   UNL     1     -29.752  18.654   0.354  0.00  0.00    -0.506 OA
ATOM     29  H   UNL     1     -29.431  17.823   0.641  0.00  0.00    +0.292 HD
ENDBRANCH  27  28
ENDBRANCH  21  22
BRANCH  21  30
ATOM     30  N   UNL     1     -36.079  18.693   0.864  0.00  0.00    +0.390 N 
ATOM     31  H1  UNL     1     -37.032  18.954   0.608  0.00  0.00    -0.088 HD
ATOM     32  H2  UNL     1     -36.081  18.264   1.790  0.00  0.00    -0.088 HD
ATOM     33  H3  UNL     1     -35.715  18.028   0.182  0.00  0.00    -0.088 HD
ENDBRANCH  21  30
ENDBRANCH   3  21
TORSDOF 8
ENDMDL
MODEL 4
REMARK VINA RESULT:      -6.1      5.205      7.942
REMARK  Name = 5284528
REMARK  8 active torsions:
REMARK  status: ('A' for Active; 'I' for Inactive)
REMARK    1  A    between atoms: N_2  and  CA_9
REMARK    2  A    between atoms: C_3  and  CA_21
REMARK    3  A    between atoms: CA_11  and  C_18
REMARK    4  A    between atoms: C_13  and  C_14
REMARK    5  A    between atoms: C_18  and  O_19
REMARK    6  A    between atoms: CA_21  and  C_22
REMARK    7  A    between atoms: CA_21  and  N_30
REMARK    8  A    between atoms: C_27  and  O_28
REMARK                            x       y       z     vdW  Elec       q    Type
REMARK                         _______ _______ _______ _____ _____    ______ ____
ROOT
ATOM      1  O   UNL     1     -37.507  19.385   0.087  0.00  0.00    -0.277 OA
ATOM      2  N   UNL     1     -36.661  21.516   0.434  0.00  0.00    -0.298 N 
ATOM      3  C   UNL     1     -36.655  20.243  -0.141  0.00  0.00    +0.206 C 
ATOM      4  H   UNL     1     -35.939  22.142   0.198  0.00  0.00    +0.150 HD
ENDROOT
BRANCH   2   9
ATOM      5  S   UNL     1     -35.616  21.723   3.310  0.00  0.00    -0.114 S 
ATOM      6  O   UNL     1     -38.338  24.306   0.564  0.00  0.00    -0.273 OA
ATOM      7  N   UNL     1     -37.372  23.579   2.590  0.00  0.00    -0.242 N 
ATOM      8  C   UNL     1     -37.310  22.153   2.855  0.00  0.00    +0.155 C 
ATOM      9  CA  UNL     1     -37.691  21.958   1.371  0.00  0.00    +0.178 C 
ATOM     10  C   UNL     1     -37.923  23.496   1.359  0.00  0.00    +0.251 C 
ATOM     11  CA  UNL     1     -36.953  24.530   3.467  0.00  0.00    +0.128 C 
ATOM     12  C   UNL     1     -35.623  22.808   4.781  0.00  0.00    +0.087 C 
ATOM     13  C   UNL     1     -36.172  24.210   4.527  0.00  0.00    +0.009 C 
BRANCH  13  14
ATOM     14  C   UNL     1     -35.738  25.152   5.541  0.00  0.00    -0.007 C 
ATOM     15  C   UNL     1     -34.613  25.859   5.438  0.00  0.00    -0.026 C 
ATOM     16  C   UNL     1     -33.689  25.753   4.269  0.00  0.00    +0.031 C 
ENDBRANCH  13  14
BRANCH  11  18
ATOM     17  OXT UNL     1     -36.698  26.691   2.512  0.00  0.00    -0.244 OA
ATOM     18  C   UNL     1     -37.356  25.916   3.173  0.00  0.00    +0.352 C 
BRANCH  18  19
ATOM     19  O   UNL     1     -38.547  26.165   3.750  0.00  0.00    -0.476 OA
ATOM     20  H   UNL     1     -38.655  26.922   4.292  0.00  0.00    +0.295 HD
ENDBRANCH  18  19
ENDBRANCH  11  18
ENDBRANCH   2   9
BRANCH   3  21
ATOM     21  CA  UNL     1     -35.465  20.013  -1.066  0.00  0.00    +0.036 C 
BRANCH  21  22
ATOM     22  C   UNL     1     -34.315  19.372  -0.318  0.00  0.00    -0.034 C 
ATOM     23  C   UNL     1     -34.369  18.020  -0.027  0.00  0.00    -0.003 C 
ATOM     24  C   UNL     1     -33.238  20.154   0.059  0.00  0.00    -0.003 C 
ATOM     25  C   UNL     1     -33.310  17.431   0.663  0.00  0.00    +0.036 C 
ATOM     26  C   UNL     1     -32.178  19.564   0.749  0.00  0.00    +0.036 C 
ATOM     27  C   UNL     1     -32.214  18.203   1.050  0.00  0.00    +0.134 C 
BRANCH  27  28
ATOM     28  O   UNL     1     -31.180  17.626   1.723  0.00  0.00    -0.506 OA
ATOM     29  H   UNL     1     -31.352  17.072   2.458  0.00  0.00    +0.292 HD
ENDBRANCH  27  28
ENDBRANCH  21  22
BRANCH  21  30
ATOM     30  N   UNL     1     -35.925  19.194  -2.191  0.00  0.00    +0.390 N 
ATOM     31  H1  UNL     1     -36.043  19.784  -3.016  0.00  0.00    -0.088 HD
ATOM     32  H2  UNL     1     -36.818  18.761  -1.953  0.00  0.00    -0.088 HD
ATOM     33  H3  UNL     1     -35.236  18.468  -2.388  0.00  0.00    -0.088 HD
ENDBRANCH  21  30
ENDBRANCH   3  21
TORSDOF 8
ENDMDL
MODEL 5
REMARK VINA RESULT:      -6.0      2.254      3.170
REMARK  Name = 5284528
REMARK  8 active torsions:
REMARK  status: ('A' for Active; 'I' for Inactive)
REMARK    1  A    between atoms: N_2  and  CA_9
REMARK    2  A    between atoms: C_3  and  CA_21
REMARK    3  A    between atoms: CA_11  and  C_18
REMARK    4  A    between atoms: C_13  and  C_14
REMARK    5  A    between atoms: C_18  and  O_19
REMARK    6  A    between atoms: CA_21  and  C_22
REMARK    7  A    between atoms: CA_21  and  N_30
REMARK    8  A    between atoms: C_27  and  O_28
REMARK                            x       y       z     vdW  Elec       q    Type
REMARK                         _______ _______ _______ _____ _____    ______ ____
ROOT
ATOM      1  O   UNL     1     -34.304  25.692   1.792  0.00  0.00    -0.277 OA
ATOM      2  N   UNL     1     -33.724  26.965   3.641  0.00  0.00    -0.298 N 
ATOM      3  C   UNL     1     -34.546  26.087   2.932  0.00  0.00    +0.206 C 
ATOM      4  H   UNL     1     -33.993  27.231   4.550  0.00  0.00    +0.150 HD
ENDROOT
BRANCH   2   9
ATOM      5  S   UNL     1     -34.179  29.531   2.025  0.00  0.00    -0.114 S 
ATOM      6  O   UNL     1     -31.059  28.077   5.151  0.00  0.00    -0.273 OA
ATOM      7  N   UNL     1     -31.941  29.454   3.451  0.00  0.00    -0.242 N 
ATOM      8  C   UNL     1     -32.539  28.823   2.288  0.00  0.00    +0.155 C 
ATOM      9  CA  UNL     1     -32.482  27.506   3.093  0.00  0.00    +0.178 C 
ATOM     10  C   UNL     1     -31.650  28.321   4.126  0.00  0.00    +0.251 C 
ATOM     11  CA  UNL     1     -31.810  30.800   3.597  0.00  0.00    +0.128 C 
ATOM     12  C   UNL     1     -33.526  31.218   1.768  0.00  0.00    +0.087 C 
ATOM     13  C   UNL     1     -32.497  31.661   2.807  0.00  0.00    +0.009 C 
BRANCH  13  14
ATOM     14  C   UNL     1     -32.364  33.104   2.855  0.00  0.00    -0.007 C 
ATOM     15  C   UNL     1     -31.481  33.775   2.117  0.00  0.00    -0.026 C 
ATOM     16  C   UNL     1     -30.540  33.108   1.168  0.00  0.00    +0.031 C 
ENDBRANCH  13  14
BRANCH  11  18
ATOM     17  OXT UNL     1     -29.808  31.700   4.508  0.00  0.00    -0.244 OA
ATOM     18  C   UNL     1     -30.926  31.259   4.681  0.00  0.00    +0.352 C 
BRANCH  18  19
ATOM     19  O   UNL     1     -31.554  31.109   5.863  0.00  0.00    -0.476 OA
ATOM     20  H   UNL     1     -31.059  30.913   6.634  0.00  0.00    +0.295 HD
ENDBRANCH  18  19
ENDBRANCH  11  18
ENDBRANCH   2   9
BRANCH   3  21
ATOM     21  CA  UNL     1     -35.794  25.683   3.708  0.00  0.00    +0.036 C 
BRANCH  21  22
ATOM     22  C   UNL     1     -35.642  24.294   4.291  0.00  0.00    -0.034 C 
ATOM     23  C   UNL     1     -35.804  23.194   3.467  0.00  0.00    -0.003 C 
ATOM     24  C   UNL     1     -35.347  24.157   5.636  0.00  0.00    -0.003 C 
ATOM     25  C   UNL     1     -35.666  21.916   4.005  0.00  0.00    +0.036 C 
ATOM     26  C   UNL     1     -35.207  22.877   6.174  0.00  0.00    +0.036 C 
ATOM     27  C   UNL     1     -35.367  21.757   5.359  0.00  0.00    +0.134 C 
BRANCH  27  28
ATOM     28  O   UNL     1     -35.230  20.508   5.883  0.00  0.00    -0.506 OA
ATOM     29  H   UNL     1     -35.700  20.272   6.658  0.00  0.00    +0.292 HD
ENDBRANCH  27  28
ENDBRANCH  21  22
BRANCH  21  30
ATOM     30  N   UNL     1     -36.029  26.699   4.737  0.00  0.00    +0.390 N 
ATOM     31  H1  UNL     1     -36.494  27.505   4.321  0.00  0.00    -0.088 HD
ATOM     32  H2  UNL     1     -35.136  26.991   5.137  0.00  0.00    -0.088 HD
ATOM     33  H3  UNL     1     -36.618  26.309   5.473  0.00  0.00    -0.088 HD
ENDBRANCH  21  30
ENDBRANCH   3  21
TORSDOF 8
ENDMDL
MODEL 6
REMARK VINA RESULT:      -6.0      5.199      8.746
REMARK  Name = 5284528
REMARK  8 active torsions:
REMARK  status: ('A' for Active; 'I' for Inactive)
REMARK    1  A    between atoms: N_2  and  CA_9
REMARK    2  A    between atoms: C_3  and  CA_21
REMARK    3  A    between atoms: CA_11  and  C_18
REMARK    4  A    between atoms: C_13  and  C_14
REMARK    5  A    between atoms: C_18  and  O_19
REMARK    6  A    between atoms: CA_21  and  C_22
REMARK    7  A    between atoms: CA_21  and  N_30
REMARK    8  A    between atoms: C_27  and  O_28
REMARK                            x       y       z     vdW  Elec       q    Type
REMARK                         _______ _______ _______ _____ _____    ______ ____
ROOT
ATOM      1  O   UNL     1     -35.352  20.630   3.350  0.00  0.00    -0.277 OA
ATOM      2  N   UNL     1     -37.040  22.220   3.329  0.00  0.00    -0.298 N 
ATOM      3  C   UNL     1     -35.855  21.655   3.808  0.00  0.00    +0.206 C 
ATOM      4  H   UNL     1     -37.374  23.042   3.755  0.00  0.00    +0.150 HD
ENDROOT
BRANCH   2   9
ATOM      5  S   UNL     1     -39.563  23.838   2.680  0.00  0.00    -0.114 S 
ATOM      6  O   UNL     1     -36.218  21.758   0.210  0.00  0.00    -0.273 OA
ATOM      7  N   UNL     1     -38.307  22.783   0.593  0.00  0.00    -0.242 N 
ATOM      8  C   UNL     1     -39.081  22.368   1.749  0.00  0.00    +0.155 C 
ATOM      9  CA  UNL     1     -37.803  21.643   2.224  0.00  0.00    +0.178 C 
ATOM     10  C   UNL     1     -37.231  21.999   0.822  0.00  0.00    +0.251 C 
ATOM     11  CA  UNL     1     -38.739  23.696  -0.319  0.00  0.00    +0.128 C 
ATOM     12  C   UNL     1     -40.520  24.537   1.290  0.00  0.00    +0.087 C 
ATOM     13  C   UNL     1     -39.794  24.505  -0.054  0.00  0.00    +0.009 C 
BRANCH  13  14
ATOM     14  C   UNL     1     -40.356  25.456  -0.994  0.00  0.00    -0.007 C 
ATOM     15  C   UNL     1     -39.970  26.730  -1.052  0.00  0.00    -0.026 C 
ATOM     16  C   UNL     1     -38.923  27.305  -0.156  0.00  0.00    +0.031 C 
ENDBRANCH  13  14
BRANCH  11  18
ATOM     17  OXT UNL     1     -38.295  23.230  -2.606  0.00  0.00    -0.244 OA
ATOM     18  C   UNL     1     -37.974  23.781  -1.574  0.00  0.00    +0.352 C 
BRANCH  18  19
ATOM     19  O   UNL     1     -36.889  24.555  -1.382  0.00  0.00    -0.476 OA
ATOM     20  H   UNL     1     -36.288  24.701  -2.086  0.00  0.00    +0.295 HD
ENDBRANCH  18  19
ENDBRANCH  11  18
ENDBRANCH   2   9
BRANCH   3  21
ATOM     21  CA  UNL     1     -35.259  22.427   4.979  0.00  0.00    +0.036 C 
BRANCH  21  22
ATOM     22  C   UNL     1     -35.223  23.912   4.686  0.00  0.00    -0.034 C 
ATOM     23  C   UNL     1     -34.449  24.373   3.636  0.00  0.00    -0.003 C 
ATOM     24  C   UNL     1     -35.963  24.772   5.476  0.00  0.00    -0.003 C 
ATOM     25  C   UNL     1     -34.414  25.740   3.367  0.00  0.00    +0.036 C 
ATOM     26  C   UNL     1     -35.929  26.141   5.206  0.00  0.00    +0.036 C 
ATOM     27  C   UNL     1     -35.155  26.625   4.152  0.00  0.00    +0.134 C 
BRANCH  27  28
ATOM     28  O   UNL     1     -35.122  27.960   3.887  0.00  0.00    -0.506 OA
ATOM     29  H   UNL     1     -35.101  28.576   4.592  0.00  0.00    +0.292 HD
ENDBRANCH  27  28
ENDBRANCH  21  22
BRANCH  21  30
ATOM     30  N   UNL     1     -36.052  22.112   6.171  0.00  0.00    +0.390 N 
ATOM     31  H1  UNL     1     -36.193  21.103   6.230  0.00  0.00    -0.088 HD
ATOM     32  H2  UNL     1     -36.957  22.579   6.111  0.00  0.00    -0.088 HD
ATOM     33  H3  UNL     1     -35.558  22.435   7.003  0.00  0.00    -0.088 HD
ENDBRANCH  21  30
ENDBRANCH   3  21
TORSDOF 8
ENDMDL
MODEL 7
REMARK VINA RESULT:      -6.0      4.633      8.696
REMARK  Name = 5284528
REMARK  8 active torsions:
REMARK  status: ('A' for Active; 'I' for Inactive)
REMARK    1  A    between atoms: N_2  and  CA_9
REMARK    2  A    between atoms: C_3  and  CA_21
REMARK    3  A    between atoms: CA_11  and  C_18
REMARK    4  A    between atoms: C_13  and  C_14
REMARK    5  A    between atoms: C_18  and  O_19
REMARK    6  A    between atoms: CA_21  and  C_22
REMARK    7  A    between atoms: CA_21  and  N_30
REMARK    8  A    between atoms: C_27  and  O_28
REMARK                            x       y       z     vdW  Elec       q    Type
REMARK                         _______ _______ _______ _____ _____    ______ ____
ROOT
ATOM      1  O   UNL     1     -34.783  29.921   0.350  0.00  0.00    -0.277 OA
ATOM      2  N   UNL     1     -35.448  28.751   2.237  0.00  0.00    -0.298 N 
ATOM      3  C   UNL     1     -35.081  29.906   1.543  0.00  0.00    +0.206 C 
ATOM      4  H   UNL     1     -35.671  28.827   3.193  0.00  0.00    +0.150 HD
ENDROOT
BRANCH   2   9
ATOM      5  S   UNL     1     -33.935  26.611   3.830  0.00  0.00    -0.114 S 
ATOM      6  O   UNL     1     -38.013  26.843   1.608  0.00  0.00    -0.273 OA
ATOM      7  N   UNL     1     -36.177  25.801   2.661  0.00  0.00    -0.242 N 
ATOM      8  C   UNL     1     -34.838  26.239   2.310  0.00  0.00    +0.155 C 
ATOM      9  CA  UNL     1     -35.516  27.434   1.606  0.00  0.00    +0.178 C 
ATOM     10  C   UNL     1     -36.848  26.680   1.886  0.00  0.00    +0.251 C 
ATOM     11  CA  UNL     1     -36.439  24.785   3.526  0.00  0.00    +0.128 C 
ATOM     12  C   UNL     1     -34.076  24.901   4.458  0.00  0.00    +0.087 C 
ATOM     13  C   UNL     1     -35.478  24.304   4.352  0.00  0.00    +0.009 C 
BRANCH  13  14
ATOM     14  C   UNL     1     -35.657  23.182   5.255  0.00  0.00    -0.007 C 
ATOM     15  C   UNL     1     -35.528  21.914   4.867  0.00  0.00    -0.026 C 
ATOM     16  C   UNL     1     -35.186  21.521   3.468  0.00  0.00    +0.031 C 
ENDBRANCH  13  14
BRANCH  11  18
ATOM     17  OXT UNL     1     -38.167  23.230   3.035  0.00  0.00    -0.244 OA
ATOM     18  C   UNL     1     -37.820  24.276   3.542  0.00  0.00    +0.352 C 
BRANCH  18  19
ATOM     19  O   UNL     1     -38.609  25.149   4.197  0.00  0.00    -0.476 OA
ATOM     20  H   UNL     1     -38.689  25.099   5.129  0.00  0.00    +0.295 HD
ENDBRANCH  18  19
ENDBRANCH  11  18
ENDBRANCH   2   9
BRANCH   3  21
ATOM     21  CA  UNL     1     -35.062  31.149   2.425  0.00  0.00    +0.036 C 
BRANCH  21  22
ATOM     22  C   UNL     1     -35.922  32.245   1.831  0.00  0.00    -0.034 C 
ATOM     23  C   UNL     1     -35.311  33.324   1.218  0.00  0.00    -0.003 C 
ATOM     24  C   UNL     1     -37.299  32.143   1.920  0.00  0.00    -0.003 C 
ATOM     25  C   UNL     1     -36.104  34.334   0.673  0.00  0.00    +0.036 C 
ATOM     26  C   UNL     1     -38.092  33.153   1.374  0.00  0.00    +0.036 C 
ATOM     27  C   UNL     1     -37.494  34.248   0.751  0.00  0.00    +0.134 C 
BRANCH  27  28
ATOM     28  O   UNL     1     -38.267  35.234   0.217  0.00  0.00    -0.506 OA
ATOM     29  H   UNL     1     -38.117  35.523  -0.660  0.00  0.00    +0.292 HD
ENDBRANCH  27  28
ENDBRANCH  21  22
BRANCH  21  30
ATOM     30  N   UNL     1     -35.506  30.754   3.764  0.00  0.00    +0.390 N 
ATOM     31  H1  UNL     1     -34.714  30.779   4.407  0.00  0.00    -0.088 HD
ATOM     32  H2  UNL     1     -35.886  29.807   3.731  0.00  0.00    -0.088 HD
ATOM     33  H3  UNL     1     -36.227  31.398   4.088  0.00  0.00    -0.088 HD
ENDBRANCH  21  30
ENDBRANCH   3  21
TORSDOF 8
ENDMDL
MODEL 8
REMARK VINA RESULT:      -5.9      3.095      8.137
REMARK  Name = 5284528
REMARK  8 active torsions:
REMARK  status: ('A' for Active; 'I' for Inactive)
REMARK    1  A    between atoms: N_2  and  CA_9
REMARK    2  A    between atoms: C_3  and  CA_21
REMARK    3  A    between atoms: CA_11  and  C_18
REMARK    4  A    between atoms: C_13  and  C_14
REMARK    5  A    between atoms: C_18  and  O_19
REMARK    6  A    between atoms: CA_21  and  C_22
REMARK    7  A    between atoms: CA_21  and  N_30
REMARK    8  A    between atoms: C_27  and  O_28
REMARK                            x       y       z     vdW  Elec       q    Type
REMARK                         _______ _______ _______ _____ _____    ______ ____
ROOT
ATOM      1  O   UNL     1     -35.365  26.895   5.204  0.00  0.00    -0.277 OA
ATOM      2  N   UNL     1     -34.466  24.759   5.147  0.00  0.00    -0.298 N 
ATOM      3  C   UNL     1     -34.400  26.143   5.323  0.00  0.00    +0.206 C 
ATOM      4  H   UNL     1     -33.643  24.230   5.260  0.00  0.00    +0.150 HD
ENDROOT
BRANCH   2   9
ATOM      5  S   UNL     1     -35.079  24.880   2.145  0.00  0.00    -0.114 S 
ATOM      6  O   UNL     1     -35.274  21.617   5.451  0.00  0.00    -0.273 OA
ATOM      7  N   UNL     1     -35.716  22.605   3.355  0.00  0.00    -0.242 N 
ATOM      8  C   UNL     1     -36.129  23.997   3.319  0.00  0.00    +0.155 C 
ATOM      9  CA  UNL     1     -35.704  24.062   4.802  0.00  0.00    +0.178 C 
ATOM     10  C   UNL     1     -35.537  22.519   4.691  0.00  0.00    +0.251 C 
ATOM     11  CA  UNL     1     -35.619  21.816   2.252  0.00  0.00    +0.128 C 
ATOM     12  C   UNL     1     -35.613  23.853   0.731  0.00  0.00    +0.087 C 
ATOM     13  C   UNL     1     -35.610  22.351   1.007  0.00  0.00    +0.009 C 
BRANCH  13  14
ATOM     14  C   UNL     1     -35.575  21.577  -0.220  0.00  0.00    -0.007 C 
ATOM     15  C   UNL     1     -34.440  21.206  -0.809  0.00  0.00    -0.026 C 
ATOM     16  C   UNL     1     -33.091  21.549  -0.266  0.00  0.00    +0.031 C 
ENDBRANCH  13  14
BRANCH  11  18
ATOM     17  OXT UNL     1     -34.416  19.788   2.544  0.00  0.00    -0.244 OA
ATOM     18  C   UNL     1     -35.480  20.370   2.490  0.00  0.00    +0.352 C 
BRANCH  18  19
ATOM     19  O   UNL     1     -36.701  19.822   2.634  0.00  0.00    -0.476 OA
ATOM     20  H   UNL     1     -37.411  20.115   2.097  0.00  0.00    +0.295 HD
ENDBRANCH  18  19
ENDBRANCH  11  18
ENDBRANCH   2   9
BRANCH   3  21
ATOM     21  CA  UNL     1     -32.995  26.634   5.655  0.00  0.00    +0.036 C 
BRANCH  21  22
ATOM     22  C   UNL     1     -32.576  27.747   4.718  0.00  0.00    -0.034 C 
ATOM     23  C   UNL     1     -32.205  28.970   5.248  0.00  0.00    -0.003 C 
ATOM     24  C   UNL     1     -32.575  27.515   3.355  0.00  0.00    -0.003 C 
ATOM     25  C   UNL     1     -31.820  29.995   4.385  0.00  0.00    +0.036 C 
ATOM     26  C   UNL     1     -32.190  28.541   2.491  0.00  0.00    +0.036 C 
ATOM     27  C   UNL     1     -31.812  29.781   3.006  0.00  0.00    +0.134 C 
BRANCH  27  28
ATOM     28  O   UNL     1     -31.435  30.783   2.165  0.00  0.00    -0.506 OA
ATOM     29  H   UNL     1     -30.535  30.878   1.924  0.00  0.00    +0.292 HD
ENDBRANCH  27  28
ENDBRANCH  21  22
BRANCH  21  30
ATOM     30  N   UNL     1     -32.989  27.052   7.059  0.00  0.00    +0.390 N 
ATOM     31  H1  UNL     1     -33.449  27.959   7.147  0.00  0.00    -0.088 HD
ATOM     32  H2  UNL     1     -32.025  27.127   7.388  0.00  0.00    -0.088 HD
ATOM     33  H3  UNL     1     -33.487  26.363   7.622  0.00  0.00    -0.088 HD
ENDBRANCH  21  30
ENDBRANCH   3  21
TORSDOF 8
ENDMDL
MODEL 9
REMARK VINA RESULT:      -5.9      4.133      6.048
REMARK  Name = 5284528
REMARK  8 active torsions:
REMARK  status: ('A' for Active; 'I' for Inactive)
REMARK    1  A    between atoms: N_2  and  CA_9
REMARK    2  A    between atoms: C_3  and  CA_21
REMARK    3  A    between atoms: CA_11  and  C_18
REMARK    4  A    between atoms: C_13  and  C_14
REMARK    5  A    between atoms: C_18  and  O_19
REMARK    6  A    between atoms: CA_21  and  C_22
REMARK    7  A    between atoms: CA_21  and  N_30
REMARK    8  A    between atoms: C_27  and  O_28
REMARK                            x       y       z     vdW  Elec       q    Type
REMARK                         _______ _______ _______ _____ _____    ______ ____
ROOT
ATOM      1  O   UNL     1     -33.914  25.967   3.433  0.00  0.00    -0.277 OA
ATOM      2  N   UNL     1     -35.213  27.888   3.400  0.00  0.00    -0.298 N 
ATOM      3  C   UNL     1     -34.981  26.535   3.661  0.00  0.00    +0.206 C 
ATOM      4  H   UNL     1     -36.098  28.263   3.612  0.00  0.00    +0.150 HD
ENDROOT
BRANCH   2   9
ATOM      5  S   UNL     1     -35.454  28.120   0.351  0.00  0.00    -0.114 S 
ATOM      6  O   UNL     1     -34.677  31.068   3.861  0.00  0.00    -0.273 OA
ATOM      7  N   UNL     1     -34.739  30.340   1.619  0.00  0.00    -0.242 N 
ATOM      8  C   UNL     1     -34.214  29.024   1.303  0.00  0.00    +0.155 C 
ATOM      9  CA  UNL     1     -34.199  28.770   2.826  0.00  0.00    +0.178 C 
ATOM     10  C   UNL     1     -34.546  30.281   2.954  0.00  0.00    +0.251 C 
ATOM     11  CA  UNL     1     -35.220  31.206   0.687  0.00  0.00    +0.128 C 
ATOM     12  C   UNL     1     -35.443  29.331  -1.016  0.00  0.00    +0.087 C 
ATOM     13  C   UNL     1     -35.522  30.789  -0.567  0.00  0.00    +0.009 C 
BRANCH  13  14
ATOM     14  C   UNL     1     -35.977  31.660  -1.635  0.00  0.00    -0.007 C 
ATOM     15  C   UNL     1     -37.265  31.846  -1.916  0.00  0.00    -0.026 C 
ATOM     16  C   UNL     1     -38.369  31.180  -1.162  0.00  0.00    +0.031 C 
ENDBRANCH  13  14
BRANCH  11  18
ATOM     17  OXT UNL     1     -34.581  33.456   1.102  0.00  0.00    -0.244 OA
ATOM     18  C   UNL     1     -35.434  32.594   1.130  0.00  0.00    +0.352 C 
BRANCH  18  19
ATOM     19  O   UNL     1     -36.703  32.734   1.558  0.00  0.00    -0.476 OA
ATOM     20  H   UNL     1     -36.967  33.524   1.989  0.00  0.00    +0.295 HD
ENDBRANCH  18  19
ENDBRANCH  11  18
ENDBRANCH   2   9
BRANCH   3  21
ATOM     21  CA  UNL     1     -36.200  25.823   4.237  0.00  0.00    +0.036 C 
BRANCH  21  22
ATOM     22  C   UNL     1     -35.881  24.378   4.555  0.00  0.00    -0.034 C 
ATOM     23  C   UNL     1     -36.037  23.420   3.569  0.00  0.00    -0.003 C 
ATOM     24  C   UNL     1     -35.444  24.049   5.826  0.00  0.00    -0.003 C 
ATOM     25  C   UNL     1     -35.745  22.088   3.865  0.00  0.00    +0.036 C 
ATOM     26  C   UNL     1     -35.150  22.718   6.120  0.00  0.00    +0.036 C 
ATOM     27  C   UNL     1     -35.301  21.737   5.140  0.00  0.00    +0.134 C 
BRANCH  27  28
ATOM     28  O   UNL     1     -35.014  20.437   5.426  0.00  0.00    -0.506 OA
ATOM     29  H   UNL     1     -34.152  20.104   5.276  0.00  0.00    +0.292 HD
ENDBRANCH  27  28
ENDBRANCH  21  22
BRANCH  21  30
ATOM     30  N   UNL     1     -36.638  26.573   5.418  0.00  0.00    +0.390 N 
ATOM     31  H1  UNL     1     -35.828  26.803   5.995  0.00  0.00    -0.088 HD
ATOM     32  H2  UNL     1     -37.290  26.004   5.959  0.00  0.00    -0.088 HD
ATOM     33  H3  UNL     1     -37.101  27.432   5.123  0.00  0.00    -0.088 HD
ENDBRANCH  21  30
ENDBRANCH   3  21
TORSDOF 8
ENDMDL
