MODEL 1
REMARK VINA RESULT:      -8.5      0.000      0.000
REMARK  Name = 194532
REMARK  7 active torsions:
REMARK  status: ('A' for Active; 'I' for Inactive)
REMARK    1  A    between atoms: C_4  and  C_8
REMARK    2  A    between atoms: C_5  and  C_22
REMARK    3  A    between atoms: N_7  and  C_12
REMARK    4  A    between atoms: C_22  and  N_24
REMARK    5  A    between atoms: C_22  and  C_34
REMARK    6  A    between atoms: C_25  and  C_29
REMARK    7  A    between atoms: C_34  and  C_37
REMARK                            x       y       z     vdW  Elec       q    Type
REMARK                         _______ _______ _______ _____ _____    ______ ____
ROOT
ATOM      1  O   UNL     1     -35.047  20.236   3.104  0.00  0.00    -0.273 OA
ATOM      2  O   UNL     1     -35.643  22.178   5.048  0.00  0.00    -0.273 OA
ATOM      3  N   UNL     1     -35.757  22.431   2.733  0.00  0.00    -0.253 N 
ATOM      4  C   UNL     1     -35.353  21.153   2.349  0.00  0.00    +0.246 C 
ATOM      5  C   UNL     1     -35.877  22.865   4.055  0.00  0.00    +0.246 C 
ATOM      6  H   UNL     1     -35.974  23.074   2.020  0.00  0.00    +0.158 HD
ENDROOT
BRANCH   4   8
ATOM      7  N   UNL     1     -34.776  19.687   0.511  0.00  0.00    -0.302 N 
ATOM      8  C   UNL     1     -35.308  21.004   0.861  0.00  0.00    +0.150 C 
ATOM      9  C   UNL     1     -36.726  20.998   0.284  0.00  0.00    +0.031 C 
ATOM     10  C   UNL     1     -37.125  19.532   0.333  0.00  0.00    +0.024 C 
ATOM     11  C   UNL     1     -35.826  18.800   0.006  0.00  0.00    +0.091 C 
BRANCH   7  12
ATOM     12  C   UNL     1     -33.436  19.353   0.507  0.00  0.00    +0.048 C 
ATOM     13  C   UNL     1     -32.466  20.178  -0.117  0.00  0.00    +0.015 C 
ATOM     14  C   UNL     1     -32.966  18.169   1.123  0.00  0.00    +0.015 C 
ATOM     15  C   UNL     1     -31.100  19.852  -0.132  0.00  0.00    +0.001 C 
ATOM     16  C   UNL     1     -31.612  17.829   1.118  0.00  0.00    +0.001 C 
ATOM     17  C   UNL     1     -30.667  18.659   0.495  0.00  0.00    +0.000 C 
ATOM     18  C   UNL     1     -30.155  20.682  -0.755  0.00  0.00    +0.000 C 
ATOM     19  C   UNL     1     -29.301  18.333   0.480  0.00  0.00    +0.000 C 
ATOM     20  C   UNL     1     -28.802  20.342  -0.760  0.00  0.00    +0.000 C 
ATOM     21  C   UNL     1     -28.376  19.170  -0.144  0.00  0.00    +0.000 C 
ENDBRANCH   7  12
ENDBRANCH   4   8
BRANCH   5  22
ATOM     22  C   UNL     1     -36.402  24.295   4.141  0.00  0.00    +0.151 C 
BRANCH  22  24
ATOM     23  O   UNL     1     -37.847  24.413   1.626  0.00  0.00    -0.273 OA
ATOM     24  N   UNL     1     -37.828  24.245   3.948  0.00  0.00    -0.297 N 
ATOM     25  C   UNL     1     -38.432  24.309   2.701  0.00  0.00    +0.241 C 
ATOM     26  H   UNL     1     -38.404  24.162   4.743  0.00  0.00    +0.150 HD
BRANCH  25  29
ATOM     27  O   UNL     1     -41.250  27.320   3.815  0.00  0.00    -0.275 OA
ATOM     28  N   UNL     1     -40.343  25.162   3.773  0.00  0.00    -0.298 N 
ATOM     29  C   UNL     1     -39.921  24.211   2.784  0.00  0.00    +0.149 C 
ATOM     30  C   UNL     1     -40.611  24.677   1.516  0.00  0.00    +0.039 C 
ATOM     31  C   UNL     1     -40.797  26.181   1.718  0.00  0.00    +0.087 C 
ATOM     32  C   UNL     1     -40.856  26.330   3.219  0.00  0.00    +0.223 C 
ATOM     33  H   UNL     1     -40.277  25.004   4.743  0.00  0.00    +0.150 HD
ENDBRANCH  25  29
ENDBRANCH  22  24
BRANCH  22  34
ATOM     34  C   UNL     1     -36.026  24.924   5.485  0.00  0.00    +0.059 C 
BRANCH  34  37
ATOM     35  N   UNL     1     -35.287  26.661   3.902  0.00  0.00    -0.246 NA
ATOM     36  N   UNL     1     -33.136  26.481   4.656  0.00  0.00    -0.225 NA
ATOM     37  C   UNL     1     -35.340  26.274   5.326  0.00  0.00    +0.148 C 
ATOM     38  C   UNL     1     -33.886  26.199   5.659  0.00  0.00    +0.098 C 
ATOM     39  C   UNL     1     -34.019  26.748   3.641  0.00  0.00    +0.194 C 
ENDBRANCH  34  37
ENDBRANCH  22  34
ENDBRANCH   5  22
TORSDOF 7
ENDMDL
MODEL 2
REMARK VINA RESULT:      -7.9      1.957      3.948
REMARK  Name = 194532
REMARK  7 active torsions:
REMARK  status: ('A' for Active; 'I' for Inactive)
REMARK    1  A    between atoms: C_4  and  C_8
REMARK    2  A    between atoms: C_5  and  C_22
REMARK    3  A    between atoms: N_7  and  C_12
REMARK    4  A    between atoms: C_22  and  N_24
REMARK    5  A    between atoms: C_22  and  C_34
REMARK    6  A    between atoms: C_25  and  C_29
REMARK    7  A    between atoms: C_34  and  C_37
REMARK                            x       y       z     vdW  Elec       q    Type
REMARK                         _______ _______ _______ _____ _____    ______ ____
ROOT
ATOM      1  O   UNL     1     -35.247  20.593   3.532  0.00  0.00    -0.273 OA
ATOM      2  O   UNL     1     -35.188  22.408   5.679  0.00  0.00    -0.273 OA
ATOM      3  N   UNL     1     -35.263  22.926   3.407  0.00  0.00    -0.253 N 
ATOM      4  C   UNL     1     -35.273  21.634   2.884  0.00  0.00    +0.246 C 
ATOM      5  C   UNL     1     -35.221  23.234   4.769  0.00  0.00    +0.246 C 
ATOM      6  H   UNL     1     -35.287  23.677   2.771  0.00  0.00    +0.158 HD
ENDROOT
BRANCH   4   8
ATOM      7  N   UNL     1     -34.963  20.306   0.884  0.00  0.00    -0.302 N 
ATOM      8  C   UNL     1     -35.303  21.636   1.388  0.00  0.00    +0.150 C 
ATOM      9  C   UNL     1     -36.729  21.872   0.885  0.00  0.00    +0.031 C 
ATOM     10  C   UNL     1     -37.316  20.471   0.809  0.00  0.00    +0.024 C 
ATOM     11  C   UNL     1     -36.138  19.618   0.347  0.00  0.00    +0.091 C 
BRANCH   7  12
ATOM     12  C   UNL     1     -33.679  19.806   0.780  0.00  0.00    +0.048 C 
ATOM     13  C   UNL     1     -32.664  20.504   0.078  0.00  0.00    +0.015 C 
ATOM     14  C   UNL     1     -33.315  18.571   1.368  0.00  0.00    +0.015 C 
ATOM     15  C   UNL     1     -31.354  20.009  -0.039  0.00  0.00    +0.001 C 
ATOM     16  C   UNL     1     -32.020  18.064   1.262  0.00  0.00    +0.001 C 
ATOM     17  C   UNL     1     -31.028  18.770   0.562  0.00  0.00    +0.000 C 
ATOM     18  C   UNL     1     -30.363  20.715  -0.738  0.00  0.00    +0.000 C 
ATOM     19  C   UNL     1     -29.719  18.274   0.446  0.00  0.00    +0.000 C 
ATOM     20  C   UNL     1     -29.068  20.207  -0.844  0.00  0.00    +0.000 C 
ATOM     21  C   UNL     1     -28.747  18.990  -0.254  0.00  0.00    +0.000 C 
ENDBRANCH   7  12
ENDBRANCH   4   8
BRANCH   5  22
ATOM     22  C   UNL     1     -35.285  24.738   5.016  0.00  0.00    +0.151 C 
BRANCH  22  24
ATOM     23  O   UNL     1     -33.641  27.081   5.498  0.00  0.00    -0.273 OA
ATOM     24  N   UNL     1     -34.369  25.367   4.100  0.00  0.00    -0.297 N 
ATOM     25  C   UNL     1     -33.621  26.490   4.421  0.00  0.00    +0.241 C 
ATOM     26  H   UNL     1     -34.269  24.980   3.201  0.00  0.00    +0.150 HD
BRANCH  25  29
ATOM     27  O   UNL     1     -34.690  28.403   0.754  0.00  0.00    -0.275 OA
ATOM     28  N   UNL     1     -33.529  26.883   2.104  0.00  0.00    -0.298 N 
ATOM     29  C   UNL     1     -32.733  26.923   3.299  0.00  0.00    +0.149 C 
ATOM     30  C   UNL     1     -32.317  28.377   3.408  0.00  0.00    +0.039 C 
ATOM     31  C   UNL     1     -33.430  29.144   2.693  0.00  0.00    +0.087 C 
ATOM     32  C   UNL     1     -33.969  28.140   1.703  0.00  0.00    +0.223 C 
ATOM     33  H   UNL     1     -33.741  26.053   1.620  0.00  0.00    +0.150 HD
ENDBRANCH  25  29
ENDBRANCH  22  24
BRANCH  22  34
ATOM     34  C   UNL     1     -36.717  25.249   4.839  0.00  0.00    +0.059 C 
BRANCH  34  37
ATOM     35  N   UNL     1     -36.629  25.874   2.458  0.00  0.00    -0.246 NA
ATOM     36  N   UNL     1     -38.872  26.318   2.456  0.00  0.00    -0.225 NA
ATOM     37  C   UNL     1     -37.266  24.979   3.445  0.00  0.00    +0.148 C 
ATOM     38  C   UNL     1     -38.697  25.388   3.324  0.00  0.00    +0.098 C 
ATOM     39  C   UNL     1     -37.614  26.567   1.973  0.00  0.00    +0.194 C 
ENDBRANCH  34  37
ENDBRANCH  22  34
ENDBRANCH   5  22
TORSDOF 7
ENDMDL
MODEL 3
REMARK VINA RESULT:      -7.8      3.543      6.332
REMARK  Name = 194532
REMARK  7 active torsions:
REMARK  status: ('A' for Active; 'I' for Inactive)
REMARK    1  A    between atoms: C_4  and  C_8
REMARK    2  A    between atoms: C_5  and  C_22
REMARK    3  A    between atoms: N_7  and  C_12
REMARK    4  A    between atoms: C_22  and  N_24
REMARK    5  A    between atoms: C_22  and  C_34
REMARK    6  A    between atoms: C_25  and  C_29
REMARK    7  A    between atoms: C_34  and  C_37
REMARK                            x       y       z     vdW  Elec       q    Type
REMARK                         _______ _______ _______ _____ _____    ______ ____
ROOT
ATOM      1  O   UNL     1     -31.901  25.393   0.241  0.00  0.00    -0.273 OA
ATOM      2  O   UNL     1     -31.494  26.553   2.770  0.00  0.00    -0.273 OA
ATOM      3  N   UNL     1     -33.499  25.729   1.913  0.00  0.00    -0.253 N 
ATOM      4  C   UNL     1     -33.050  25.305   0.663  0.00  0.00    +0.246 C 
ATOM      5  C   UNL     1     -32.696  26.326   2.888  0.00  0.00    +0.246 C 
ATOM      6  H   UNL     1     -34.452  25.598   2.124  0.00  0.00    +0.158 HD
ENDROOT
BRANCH   4   8
ATOM      7  N   UNL     1     -34.879  23.719   0.621  0.00  0.00    -0.302 N 
ATOM      8  C   UNL     1     -34.155  24.722  -0.161  0.00  0.00    +0.150 C 
ATOM      9  C   UNL     1     -35.209  25.788  -0.467  0.00  0.00    +0.031 C 
ATOM     10  C   UNL     1     -36.160  25.699   0.716  0.00  0.00    +0.024 C 
ATOM     11  C   UNL     1     -36.197  24.206   1.029  0.00  0.00    +0.091 C 
BRANCH   7  12
ATOM     12  C   UNL     1     -34.453  22.422   0.827  0.00  0.00    +0.048 C 
ATOM     13  C   UNL     1     -33.269  21.923   0.225  0.00  0.00    +0.015 C 
ATOM     14  C   UNL     1     -35.177  21.525   1.648  0.00  0.00    +0.015 C 
ATOM     15  C   UNL     1     -32.823  20.605   0.422  0.00  0.00    +0.001 C 
ATOM     16  C   UNL     1     -34.749  20.214   1.856  0.00  0.00    +0.001 C 
ATOM     17  C   UNL     1     -33.575  19.739   1.251  0.00  0.00    +0.000 C 
ATOM     18  C   UNL     1     -31.649  20.130  -0.183  0.00  0.00    +0.000 C 
ATOM     19  C   UNL     1     -33.129  18.422   1.449  0.00  0.00    +0.000 C 
ATOM     20  C   UNL     1     -31.221  18.819   0.025  0.00  0.00    +0.000 C 
ATOM     21  C   UNL     1     -31.960  17.966   0.839  0.00  0.00    +0.000 C 
ENDBRANCH   7  12
ENDBRANCH   4   8
BRANCH   5  22
ATOM     22  C   UNL     1     -33.474  26.615   4.168  0.00  0.00    +0.151 C 
BRANCH  22  24
ATOM     23  O   UNL     1     -32.150  27.025   6.718  0.00  0.00    -0.273 OA
ATOM     24  N   UNL     1     -32.977  27.855   4.706  0.00  0.00    -0.297 N 
ATOM     25  C   UNL     1     -32.355  27.954   5.941  0.00  0.00    +0.241 C 
ATOM     26  H   UNL     1     -33.086  28.673   4.170  0.00  0.00    +0.150 HD
BRANCH  25  29
ATOM     27  O   UNL     1     -28.614  29.293   7.511  0.00  0.00    -0.275 OA
ATOM     28  N   UNL     1     -30.945  29.256   7.301  0.00  0.00    -0.298 N 
ATOM     29  C   UNL     1     -31.914  29.350   6.246  0.00  0.00    +0.149 C 
ATOM     30  C   UNL     1     -31.144  29.985   5.104  0.00  0.00    +0.039 C 
ATOM     31  C   UNL     1     -29.692  29.577   5.353  0.00  0.00    +0.087 C 
ATOM     32  C   UNL     1     -29.635  29.374   6.848  0.00  0.00    +0.223 C 
ATOM     33  H   UNL     1     -31.183  29.122   8.247  0.00  0.00    +0.150 HD
ENDBRANCH  25  29
ENDBRANCH  22  24
BRANCH  22  34
ATOM     34  C   UNL     1     -34.976  26.674   3.880  0.00  0.00    +0.059 C 
BRANCH  34  37
ATOM     35  N   UNL     1     -35.007  24.956   5.645  0.00  0.00    -0.246 NA
ATOM     36  N   UNL     1     -36.788  23.921   4.654  0.00  0.00    -0.225 NA
ATOM     37  C   UNL     1     -35.806  25.993   4.960  0.00  0.00    +0.148 C 
ATOM     38  C   UNL     1     -36.906  25.169   4.376  0.00  0.00    +0.098 C 
ATOM     39  C   UNL     1     -35.647  23.852   5.409  0.00  0.00    +0.194 C 
ENDBRANCH  34  37
ENDBRANCH  22  34
ENDBRANCH   5  22
TORSDOF 7
ENDMDL
MODEL 4
REMARK VINA RESULT:      -7.6      2.708      4.387
REMARK  Name = 194532
REMARK  7 active torsions:
REMARK  status: ('A' for Active; 'I' for Inactive)
REMARK    1  A    between atoms: C_4  and  C_8
REMARK    2  A    between atoms: C_5  and  C_22
REMARK    3  A    between atoms: N_7  and  C_12
REMARK    4  A    between atoms: C_22  and  N_24
REMARK    5  A    between atoms: C_22  and  C_34
REMARK    6  A    between atoms: C_25  and  C_29
REMARK    7  A    between atoms: C_34  and  C_37
REMARK                            x       y       z     vdW  Elec       q    Type
REMARK                         _______ _______ _______ _____ _____    ______ ____
ROOT
ATOM      1  O   UNL     1     -36.504  22.960   4.313  0.00  0.00    -0.273 OA
ATOM      2  O   UNL     1     -34.824  24.691   5.758  0.00  0.00    -0.273 OA
ATOM      3  N   UNL     1     -35.294  24.776   3.476  0.00  0.00    -0.253 N 
ATOM      4  C   UNL     1     -36.159  23.687   3.386  0.00  0.00    +0.246 C 
ATOM      5  C   UNL     1     -34.680  25.211   4.653  0.00  0.00    +0.246 C 
ATOM      6  H   UNL     1     -35.102  25.276   2.650  0.00  0.00    +0.158 HD
ENDROOT
BRANCH   4   8
ATOM      7  N   UNL     1     -36.389  22.079   1.590  0.00  0.00    -0.302 N 
ATOM      8  C   UNL     1     -36.637  23.466   1.985  0.00  0.00    +0.150 C 
ATOM      9  C   UNL     1     -38.159  23.607   1.914  0.00  0.00    +0.031 C 
ATOM     10  C   UNL     1     -38.662  22.203   2.216  0.00  0.00    +0.024 C 
ATOM     11  C   UNL     1     -37.630  21.305   1.538  0.00  0.00    +0.091 C 
BRANCH   7  12
ATOM     12  C   UNL     1     -35.170  21.585   1.169  0.00  0.00    +0.048 C 
ATOM     13  C   UNL     1     -34.722  20.293   1.546  0.00  0.00    +0.015 C 
ATOM     14  C   UNL     1     -34.307  22.345   0.345  0.00  0.00    +0.015 C 
ATOM     15  C   UNL     1     -33.484  19.776   1.129  0.00  0.00    +0.001 C 
ATOM     16  C   UNL     1     -33.074  21.847  -0.079  0.00  0.00    +0.001 C 
ATOM     17  C   UNL     1     -32.648  20.565   0.304  0.00  0.00    +0.000 C 
ATOM     18  C   UNL     1     -33.058  18.494   1.512  0.00  0.00    +0.000 C 
ATOM     19  C   UNL     1     -31.410  20.049  -0.113  0.00  0.00    +0.000 C 
ATOM     20  C   UNL     1     -31.826  17.997   1.088  0.00  0.00    +0.000 C 
ATOM     21  C   UNL     1     -31.003  18.773   0.278  0.00  0.00    +0.000 C 
ENDBRANCH   7  12
ENDBRANCH   4   8
BRANCH   5  22
ATOM     22  C   UNL     1     -33.843  26.466   4.429  0.00  0.00    +0.151 C 
BRANCH  22  24
ATOM     23  O   UNL     1     -34.131  27.141   1.621  0.00  0.00    -0.273 OA
ATOM     24  N   UNL     1     -34.705  27.466   3.854  0.00  0.00    -0.297 N 
ATOM     25  C   UNL     1     -34.776  27.718   2.492  0.00  0.00    +0.241 C 
ATOM     26  H   UNL     1     -35.273  27.997   4.458  0.00  0.00    +0.150 HD
BRANCH  25  29
ATOM     27  O   UNL     1     -34.306  31.959   2.712  0.00  0.00    -0.275 OA
ATOM     28  N   UNL     1     -35.434  29.924   2.974  0.00  0.00    -0.298 N 
ATOM     29  C   UNL     1     -35.768  28.788   2.162  0.00  0.00    +0.149 C 
ATOM     30  C   UNL     1     -35.626  29.302   0.743  0.00  0.00    +0.039 C 
ATOM     31  C   UNL     1     -34.595  30.427   0.849  0.00  0.00    +0.087 C 
ATOM     32  C   UNL     1     -34.747  30.910   2.272  0.00  0.00    +0.223 C 
ATOM     33  H   UNL     1     -35.667  29.999   3.928  0.00  0.00    +0.150 HD
ENDBRANCH  25  29
ENDBRANCH  22  24
BRANCH  22  34
ATOM     34  C   UNL     1     -33.219  26.935   5.746  0.00  0.00    +0.059 C 
BRANCH  34  37
ATOM     35  N   UNL     1     -32.423  29.266   5.704  0.00  0.00    -0.246 NA
ATOM     36  N   UNL     1     -31.678  29.009   3.558  0.00  0.00    -0.225 NA
ATOM     37  C   UNL     1     -32.024  27.854   5.532  0.00  0.00    +0.148 C 
ATOM     38  C   UNL     1     -31.572  27.854   4.109  0.00  0.00    +0.098 C 
ATOM     39  C   UNL     1     -32.186  29.808   4.549  0.00  0.00    +0.194 C 
ENDBRANCH  34  37
ENDBRANCH  22  34
ENDBRANCH   5  22
TORSDOF 7
ENDMDL
MODEL 5
REMARK VINA RESULT:      -7.6      3.196      6.228
REMARK  Name = 194532
REMARK  7 active torsions:
REMARK  status: ('A' for Active; 'I' for Inactive)
REMARK    1  A    between atoms: C_4  and  C_8
REMARK    2  A    between atoms: C_5  and  C_22
REMARK    3  A    between atoms: N_7  and  C_12
REMARK    4  A    between atoms: C_22  and  N_24
REMARK    5  A    between atoms: C_22  and  C_34
REMARK    6  A    between atoms: C_25  and  C_29
REMARK    7  A    between atoms: C_34  and  C_37
REMARK                            x       y       z     vdW  Elec       q    Type
REMARK                         _______ _______ _______ _____ _____    ______ ____
ROOT
ATOM      1  O   UNL     1     -36.151  26.713   2.954  0.00  0.00    -0.273 OA
ATOM      2  O   UNL     1     -38.532  27.106   1.513  0.00  0.00    -0.273 OA
ATOM      3  N   UNL     1     -38.176  25.583   3.241  0.00  0.00    -0.253 N 
ATOM      4  C   UNL     1     -36.842  25.873   3.521  0.00  0.00    +0.246 C 
ATOM      5  C   UNL     1     -38.939  26.215   2.256  0.00  0.00    +0.246 C 
ATOM      6  H   UNL     1     -38.613  24.881   3.776  0.00  0.00    +0.158 HD
ENDROOT
BRANCH   4   8
ATOM      7  N   UNL     1     -35.105  24.309   4.154  0.00  0.00    -0.302 N 
ATOM      8  C   UNL     1     -36.301  25.011   4.620  0.00  0.00    +0.150 C 
ATOM      9  C   UNL     1     -35.797  25.878   5.776  0.00  0.00    +0.031 C 
ATOM     10  C   UNL     1     -34.351  26.164   5.403  0.00  0.00    +0.024 C 
ATOM     11  C   UNL     1     -33.890  24.863   4.752  0.00  0.00    +0.091 C 
BRANCH   7  12
ATOM     12  C   UNL     1     -35.113  23.171   3.371  0.00  0.00    +0.048 C 
ATOM     13  C   UNL     1     -34.799  23.218   1.988  0.00  0.00    +0.015 C 
ATOM     14  C   UNL     1     -35.438  21.903   3.909  0.00  0.00    +0.015 C 
ATOM     15  C   UNL     1     -34.805  22.071   1.177  0.00  0.00    +0.001 C 
ATOM     16  C   UNL     1     -35.449  20.753   3.119  0.00  0.00    +0.001 C 
ATOM     17  C   UNL     1     -35.135  20.820   1.751  0.00  0.00    +0.000 C 
ATOM     18  C   UNL     1     -34.491  22.137  -0.189  0.00  0.00    +0.000 C 
ATOM     19  C   UNL     1     -35.141  19.673   0.941  0.00  0.00    +0.000 C 
ATOM     20  C   UNL     1     -34.502  20.988  -0.979  0.00  0.00    +0.000 C 
ATOM     21  C   UNL     1     -34.826  19.758  -0.416  0.00  0.00    +0.000 C 
ENDBRANCH   7  12
ENDBRANCH   4   8
BRANCH   5  22
ATOM     22  C   UNL     1     -40.380  25.716   2.242  0.00  0.00    +0.151 C 
BRANCH  22  24
ATOM     23  O   UNL     1     -40.387  23.912  -0.032  0.00  0.00    -0.273 OA
ATOM     24  N   UNL     1     -40.340  24.276   2.267  0.00  0.00    -0.297 N 
ATOM     25  C   UNL     1     -40.347  23.494   1.123  0.00  0.00    +0.241 C 
ATOM     26  H   UNL     1     -40.307  23.825   3.142  0.00  0.00    +0.150 HD
BRANCH  25  29
ATOM     27  O   UNL     1     -39.804  20.219  -1.566  0.00  0.00    -0.275 OA
ATOM     28  N   UNL     1     -40.740  21.340   0.263  0.00  0.00    -0.298 N 
ATOM     29  C   UNL     1     -40.274  22.032   1.431  0.00  0.00    +0.149 C 
ATOM     30  C   UNL     1     -38.850  21.538   1.600  0.00  0.00    +0.039 C 
ATOM     31  C   UNL     1     -38.410  21.162   0.185  0.00  0.00    +0.087 C 
ATOM     32  C   UNL     1     -39.707  20.816  -0.507  0.00  0.00    +0.223 C 
ATOM     33  H   UNL     1     -41.693  21.246   0.030  0.00  0.00    +0.150 HD
ENDBRANCH  25  29
ENDBRANCH  22  24
BRANCH  22  34
ATOM     34  C   UNL     1     -41.157  26.289   3.430  0.00  0.00    +0.059 C 
BRANCH  34  37
ATOM     35  N   UNL     1     -42.116  28.535   3.752  0.00  0.00    -0.246 NA
ATOM     36  N   UNL     1     -44.157  27.630   4.244  0.00  0.00    -0.225 NA
ATOM     37  C   UNL     1     -42.240  27.269   3.001  0.00  0.00    +0.148 C 
ATOM     38  C   UNL     1     -43.598  26.815   3.425  0.00  0.00    +0.098 C 
ATOM     39  C   UNL     1     -43.235  28.632   4.402  0.00  0.00    +0.194 C 
ENDBRANCH  34  37
ENDBRANCH  22  34
ENDBRANCH   5  22
TORSDOF 7
ENDMDL
MODEL 6
REMARK VINA RESULT:      -7.4      3.129      4.853
REMARK  Name = 194532
REMARK  7 active torsions:
REMARK  status: ('A' for Active; 'I' for Inactive)
REMARK    1  A    between atoms: C_4  and  C_8
REMARK    2  A    between atoms: C_5  and  C_22
REMARK    3  A    between atoms: N_7  and  C_12
REMARK    4  A    between atoms: C_22  and  N_24
REMARK    5  A    between atoms: C_22  and  C_34
REMARK    6  A    between atoms: C_25  and  C_29
REMARK    7  A    between atoms: C_34  and  C_37
REMARK                            x       y       z     vdW  Elec       q    Type
REMARK                         _______ _______ _______ _____ _____    ______ ____
ROOT
ATOM      1  O   UNL     1     -31.125  24.649   0.002  0.00  0.00    -0.273 OA
ATOM      2  O   UNL     1     -30.603  26.483   2.068  0.00  0.00    -0.273 OA
ATOM      3  N   UNL     1     -32.676  25.993   1.121  0.00  0.00    -0.253 N 
ATOM      4  C   UNL     1     -32.273  25.040   0.186  0.00  0.00    +0.246 C 
ATOM      5  C   UNL     1     -31.819  26.655   2.003  0.00  0.00    +0.246 C 
ATOM      6  H   UNL     1     -33.634  26.215   1.163  0.00  0.00    +0.158 HD
ENDROOT
BRANCH   4   8
ATOM      7  N   UNL     1     -34.252  23.645   0.200  0.00  0.00    -0.302 N 
ATOM      8  C   UNL     1     -33.424  24.528  -0.623  0.00  0.00    +0.150 C 
ATOM      9  C   UNL     1     -34.363  25.677  -0.998  0.00  0.00    +0.031 C 
ATOM     10  C   UNL     1     -35.328  25.746   0.175  0.00  0.00    +0.024 C 
ATOM     11  C   UNL     1     -35.518  24.283   0.564  0.00  0.00    +0.091 C 
BRANCH   7  12
ATOM     12  C   UNL     1     -33.961  22.325   0.479  0.00  0.00    +0.048 C 
ATOM     13  C   UNL     1     -32.771  21.710   0.010  0.00  0.00    +0.015 C 
ATOM     14  C   UNL     1     -34.836  21.518   1.245  0.00  0.00    +0.015 C 
ATOM     15  C   UNL     1     -32.461  20.368   0.282  0.00  0.00    +0.001 C 
ATOM     16  C   UNL     1     -34.544  20.183   1.526  0.00  0.00    +0.001 C 
ATOM     17  C   UNL     1     -33.361  19.593   1.052  0.00  0.00    +0.000 C 
ATOM     18  C   UNL     1     -31.279  19.778  -0.191  0.00  0.00    +0.000 C 
ATOM     19  C   UNL     1     -33.051  18.251   1.325  0.00  0.00    +0.000 C 
ATOM     20  C   UNL     1     -30.987  18.443   0.090  0.00  0.00    +0.000 C 
ATOM     21  C   UNL     1     -31.871  17.681   0.846  0.00  0.00    +0.000 C 
ENDBRANCH   7  12
ENDBRANCH   4   8
BRANCH   5  22
ATOM     22  C   UNL     1     -32.576  27.589   2.941  0.00  0.00    +0.151 C 
BRANCH  22  24
ATOM     23  O   UNL     1     -35.398  27.645   3.621  0.00  0.00    -0.273 OA
ATOM     24  N   UNL     1     -33.259  26.771   3.910  0.00  0.00    -0.297 N 
ATOM     25  C   UNL     1     -34.618  26.869   4.168  0.00  0.00    +0.241 C 
ATOM     26  H   UNL     1     -32.734  26.108   4.414  0.00  0.00    +0.150 HD
BRANCH  25  29
ATOM     27  O   UNL     1     -37.626  23.854   3.842  0.00  0.00    -0.275 OA
ATOM     28  N   UNL     1     -36.442  25.576   4.896  0.00  0.00    -0.298 N 
ATOM     29  C   UNL     1     -35.074  25.887   5.200  0.00  0.00    +0.149 C 
ATOM     30  C   UNL     1     -34.366  24.551   5.091  0.00  0.00    +0.039 C 
ATOM     31  C   UNL     1     -35.213  23.754   4.099  0.00  0.00    +0.087 C 
ATOM     32  C   UNL     1     -36.591  24.353   4.251  0.00  0.00    +0.223 C 
ATOM     33  H   UNL     1     -37.197  26.167   5.122  0.00  0.00    +0.150 HD
ENDBRANCH  25  29
ENDBRANCH  22  24
BRANCH  22  34
ATOM     34  C   UNL     1     -31.615  28.580   3.601  0.00  0.00    +0.059 C 
BRANCH  34  37
ATOM     35  N   UNL     1     -32.273  29.020   5.934  0.00  0.00    -0.246 NA
ATOM     36  N   UNL     1     -30.137  29.648   6.455  0.00  0.00    -0.225 NA
ATOM     37  C   UNL     1     -31.355  28.255   5.066  0.00  0.00    +0.148 C 
ATOM     38  C   UNL     1     -30.030  28.772   5.522  0.00  0.00    +0.098 C 
ATOM     39  C   UNL     1     -31.488  29.755   6.660  0.00  0.00    +0.194 C 
ENDBRANCH  34  37
ENDBRANCH  22  34
ENDBRANCH   5  22
TORSDOF 7
ENDMDL
MODEL 7
REMARK VINA RESULT:      -7.4      4.667     10.147
REMARK  Name = 194532
REMARK  7 active torsions:
REMARK  status: ('A' for Active; 'I' for Inactive)
REMARK    1  A    between atoms: C_4  and  C_8
REMARK    2  A    between atoms: C_5  and  C_22
REMARK    3  A    between atoms: N_7  and  C_12
REMARK    4  A    between atoms: C_22  and  N_24
REMARK    5  A    between atoms: C_22  and  C_34
REMARK    6  A    between atoms: C_25  and  C_29
REMARK    7  A    between atoms: C_34  and  C_37
REMARK                            x       y       z     vdW  Elec       q    Type
REMARK                         _______ _______ _______ _____ _____    ______ ____
ROOT
ATOM      1  O   UNL     1     -38.536  27.067   1.497  0.00  0.00    -0.273 OA
ATOM      2  O   UNL     1     -35.863  27.846   1.887  0.00  0.00    -0.273 OA
ATOM      3  N   UNL     1     -37.027  26.200   3.057  0.00  0.00    -0.253 N 
ATOM      4  C   UNL     1     -38.258  26.297   2.411  0.00  0.00    +0.246 C 
ATOM      5  C   UNL     1     -35.907  26.979   2.758  0.00  0.00    +0.246 C 
ATOM      6  H   UNL     1     -36.941  25.535   3.778  0.00  0.00    +0.158 HD
ENDROOT
BRANCH   4   8
ATOM      7  N   UNL     1     -40.476  25.359   2.156  0.00  0.00    -0.302 N 
ATOM      8  C   UNL     1     -39.263  25.339   2.972  0.00  0.00    +0.150 C 
ATOM      9  C   UNL     1     -38.754  23.901   2.848  0.00  0.00    +0.031 C 
ATOM     10  C   UNL     1     -39.239  23.470   1.472  0.00  0.00    +0.024 C 
ATOM     11  C   UNL     1     -40.602  24.144   1.350  0.00  0.00    +0.091 C 
BRANCH   7  12
ATOM     12  C   UNL     1     -41.465  26.321   2.236  0.00  0.00    +0.048 C 
ATOM     13  C   UNL     1     -41.730  27.017   3.443  0.00  0.00    +0.015 C 
ATOM     14  C   UNL     1     -42.263  26.658   1.117  0.00  0.00    +0.015 C 
ATOM     15  C   UNL     1     -42.733  27.995   3.542  0.00  0.00    +0.001 C 
ATOM     16  C   UNL     1     -43.263  27.628   1.196  0.00  0.00    +0.001 C 
ATOM     17  C   UNL     1     -43.510  28.306   2.401  0.00  0.00    +0.000 C 
ATOM     18  C   UNL     1     -42.980  28.673   4.746  0.00  0.00    +0.000 C 
ATOM     19  C   UNL     1     -44.513  29.284   2.499  0.00  0.00    +0.000 C 
ATOM     20  C   UNL     1     -43.980  29.643   4.826  0.00  0.00    +0.000 C 
ATOM     21  C   UNL     1     -44.745  29.947   3.705  0.00  0.00    +0.000 C 
ENDBRANCH   7  12
ENDBRANCH   4   8
BRANCH   5  22
ATOM     22  C   UNL     1     -34.698  26.587   3.601  0.00  0.00    +0.151 C 
BRANCH  22  24
ATOM     23  O   UNL     1     -31.827  26.948   3.371  0.00  0.00    -0.273 OA
ATOM     24  N   UNL     1     -33.944  27.786   3.861  0.00  0.00    -0.297 N 
ATOM     25  C   UNL     1     -32.566  27.864   3.722  0.00  0.00    +0.241 C 
ATOM     26  H   UNL     1     -34.431  28.590   4.152  0.00  0.00    +0.150 HD
BRANCH  25  29
ATOM     27  O   UNL     1     -31.745  29.615   7.532  0.00  0.00    -0.275 OA
ATOM     28  N   UNL     1     -32.539  29.581   5.330  0.00  0.00    -0.298 N 
ATOM     29  C   UNL     1     -32.040  29.229   4.030  0.00  0.00    +0.149 C 
ATOM     30  C   UNL     1     -30.533  29.252   4.204  0.00  0.00    +0.039 C 
ATOM     31  C   UNL     1     -30.318  28.941   5.685  0.00  0.00    +0.087 C 
ATOM     32  C   UNL     1     -31.590  29.430   6.336  0.00  0.00    +0.223 C 
ATOM     33  H   UNL     1     -33.458  29.896   5.492  0.00  0.00    +0.150 HD
ENDBRANCH  25  29
ENDBRANCH  22  24
BRANCH  22  34
ATOM     34  C   UNL     1     -35.147  25.899   4.893  0.00  0.00    +0.059 C 
BRANCH  34  37
ATOM     35  N   UNL     1     -34.755  23.769   3.722  0.00  0.00    -0.246 NA
ATOM     36  N   UNL     1     -36.017  22.648   5.264  0.00  0.00    -0.225 NA
ATOM     37  C   UNL     1     -34.621  24.476   5.011  0.00  0.00    +0.148 C 
ATOM     38  C   UNL     1     -35.487  23.636   5.891  0.00  0.00    +0.098 C 
ATOM     39  C   UNL     1     -35.548  22.775   3.982  0.00  0.00    +0.194 C 
ENDBRANCH  34  37
ENDBRANCH  22  34
ENDBRANCH   5  22
TORSDOF 7
ENDMDL
MODEL 8
REMARK VINA RESULT:      -7.4      3.338      6.356
REMARK  Name = 194532
REMARK  7 active torsions:
REMARK  status: ('A' for Active; 'I' for Inactive)
REMARK    1  A    between atoms: C_4  and  C_8
REMARK    2  A    between atoms: C_5  and  C_22
REMARK    3  A    between atoms: N_7  and  C_12
REMARK    4  A    between atoms: C_22  and  N_24
REMARK    5  A    between atoms: C_22  and  C_34
REMARK    6  A    between atoms: C_25  and  C_29
REMARK    7  A    between atoms: C_34  and  C_37
REMARK                            x       y       z     vdW  Elec       q    Type
REMARK                         _______ _______ _______ _____ _____    ______ ____
ROOT
ATOM      1  O   UNL     1     -37.016  24.266   4.467  0.00  0.00    -0.273 OA
ATOM      2  O   UNL     1     -35.128  26.080   5.490  0.00  0.00    -0.273 OA
ATOM      3  N   UNL     1     -35.705  25.771   3.252  0.00  0.00    -0.253 N 
ATOM      4  C   UNL     1     -36.661  24.768   3.406  0.00  0.00    +0.246 C 
ATOM      5  C   UNL     1     -34.998  26.365   4.300  0.00  0.00    +0.246 C 
ATOM      6  H   UNL     1     -35.515  26.084   2.339  0.00  0.00    +0.158 HD
ENDROOT
BRANCH   4   8
ATOM      7  N   UNL     1     -37.241  22.866   2.023  0.00  0.00    -0.302 N 
ATOM      8  C   UNL     1     -37.226  24.327   2.091  0.00  0.00    +0.150 C 
ATOM      9  C   UNL     1     -38.702  24.720   1.990  0.00  0.00    +0.031 C 
ATOM     10  C   UNL     1     -39.429  23.533   2.603  0.00  0.00    +0.024 C 
ATOM     11  C   UNL     1     -38.599  22.336   2.149  0.00  0.00    +0.091 C 
BRANCH   7  12
ATOM     12  C   UNL     1     -36.145  22.079   1.727  0.00  0.00    +0.048 C 
ATOM     13  C   UNL     1     -35.108  22.539   0.874  0.00  0.00    +0.015 C 
ATOM     14  C   UNL     1     -36.003  20.775   2.258  0.00  0.00    +0.015 C 
ATOM     15  C   UNL     1     -33.989  21.751   0.561  0.00  0.00    +0.001 C 
ATOM     16  C   UNL     1     -34.898  19.979   1.958  0.00  0.00    +0.001 C 
ATOM     17  C   UNL     1     -33.882  20.452   1.111  0.00  0.00    +0.000 C 
ATOM     18  C   UNL     1     -32.973  22.223  -0.285  0.00  0.00    +0.000 C 
ATOM     19  C   UNL     1     -32.763  19.663   0.798  0.00  0.00    +0.000 C 
ATOM     20  C   UNL     1     -31.868  21.427  -0.585  0.00  0.00    +0.000 C 
ATOM     21  C   UNL     1     -31.763  20.149  -0.045  0.00  0.00    +0.000 C 
ENDBRANCH   7  12
ENDBRANCH   4   8
BRANCH   5  22
ATOM     22  C   UNL     1     -34.073  27.473   3.808  0.00  0.00    +0.151 C 
BRANCH  22  24
ATOM     23  O   UNL     1     -32.868  29.932   4.770  0.00  0.00    -0.273 OA
ATOM     24  N   UNL     1     -33.009  27.608   4.769  0.00  0.00    -0.297 N 
ATOM     25  C   UNL     1     -32.495  28.832   5.170  0.00  0.00    +0.241 C 
ATOM     26  H   UNL     1     -32.627  26.789   5.161  0.00  0.00    +0.150 HD
BRANCH  25  29
ATOM     27  O   UNL     1     -28.273  28.551   4.581  0.00  0.00    -0.275 OA
ATOM     28  N   UNL     1     -30.329  28.000   5.556  0.00  0.00    -0.298 N 
ATOM     29  C   UNL     1     -31.415  28.688   6.195  0.00  0.00    +0.149 C 
ATOM     30  C   UNL     1     -30.811  30.018   6.601  0.00  0.00    +0.039 C 
ATOM     31  C   UNL     1     -29.687  30.248   5.591  0.00  0.00    +0.087 C 
ATOM     32  C   UNL     1     -29.296  28.850   5.175  0.00  0.00    +0.223 C 
ATOM     33  H   UNL     1     -30.317  27.027   5.402  0.00  0.00    +0.150 HD
ENDBRANCH  25  29
ENDBRANCH  22  24
BRANCH  22  34
ATOM     34  C   UNL     1     -33.545  27.148   2.408  0.00  0.00    +0.059 C 
BRANCH  34  37
ATOM     35  N   UNL     1     -31.113  26.869   2.675  0.00  0.00    -0.246 NA
ATOM     36  N   UNL     1     -30.970  25.853   0.632  0.00  0.00    -0.225 NA
ATOM     37  C   UNL     1     -32.386  26.161   2.435  0.00  0.00    +0.148 C 
ATOM     38  C   UNL     1     -32.135  25.565   1.089  0.00  0.00    +0.098 C 
ATOM     39  C   UNL     1     -30.407  26.627   1.614  0.00  0.00    +0.194 C 
ENDBRANCH  34  37
ENDBRANCH  22  34
ENDBRANCH   5  22
TORSDOF 7
ENDMDL
MODEL 9
REMARK VINA RESULT:      -7.4      4.374     11.503
REMARK  Name = 194532
REMARK  7 active torsions:
REMARK  status: ('A' for Active; 'I' for Inactive)
REMARK    1  A    between atoms: C_4  and  C_8
REMARK    2  A    between atoms: C_5  and  C_22
REMARK    3  A    between atoms: N_7  and  C_12
REMARK    4  A    between atoms: C_22  and  N_24
REMARK    5  A    between atoms: C_22  and  C_34
REMARK    6  A    between atoms: C_25  and  C_29
REMARK    7  A    between atoms: C_34  and  C_37
REMARK                            x       y       z     vdW  Elec       q    Type
REMARK                         _______ _______ _______ _____ _____    ______ ____
ROOT
ATOM      1  O   UNL     1     -41.993  27.749   2.301  0.00  0.00    -0.273 OA
ATOM      2  O   UNL     1     -39.282  27.006   2.327  0.00  0.00    -0.273 OA
ATOM      3  N   UNL     1     -41.125  25.586   2.468  0.00  0.00    -0.253 N 
ATOM      4  C   UNL     1     -42.143  26.535   2.402  0.00  0.00    +0.246 C 
ATOM      5  C   UNL     1     -39.759  25.878   2.427  0.00  0.00    +0.246 C 
ATOM      6  H   UNL     1     -41.387  24.640   2.549  0.00  0.00    +0.158 HD
ENDROOT
BRANCH   4   8
ATOM      7  N   UNL     1     -44.492  26.923   2.842  0.00  0.00    -0.302 N 
ATOM      8  C   UNL     1     -43.500  25.908   2.489  0.00  0.00    +0.150 C 
ATOM      9  C   UNL     1     -43.946  25.415   1.111  0.00  0.00    +0.031 C 
ATOM     10  C   UNL     1     -44.638  26.626   0.505  0.00  0.00    +0.024 C 
ATOM     11  C   UNL     1     -45.340  27.266   1.700  0.00  0.00    +0.091 C 
BRANCH   7  12
ATOM     12  C   UNL     1     -44.715  27.397   4.120  0.00  0.00    +0.048 C 
ATOM     13  C   UNL     1     -44.219  28.657   4.543  0.00  0.00    +0.015 C 
ATOM     14  C   UNL     1     -45.447  26.648   5.072  0.00  0.00    +0.015 C 
ATOM     15  C   UNL     1     -44.434  29.153   5.839  0.00  0.00    +0.001 C 
ATOM     16  C   UNL     1     -45.671  27.125   6.364  0.00  0.00    +0.001 C 
ATOM     17  C   UNL     1     -45.172  28.375   6.763  0.00  0.00    +0.000 C 
ATOM     18  C   UNL     1     -43.936  30.403   6.239  0.00  0.00    +0.000 C 
ATOM     19  C   UNL     1     -45.388  28.870   8.060  0.00  0.00    +0.000 C 
ATOM     20  C   UNL     1     -44.160  30.879   7.531  0.00  0.00    +0.000 C 
ATOM     21  C   UNL     1     -44.884  30.114   8.439  0.00  0.00    +0.000 C 
ENDBRANCH   7  12
ENDBRANCH   4   8
BRANCH   5  22
ATOM     22  C   UNL     1     -38.905  24.614   2.456  0.00  0.00    +0.151 C 
BRANCH  22  24
ATOM     23  O   UNL     1     -36.175  25.505   2.876  0.00  0.00    -0.273 OA
ATOM     24  N   UNL     1     -38.167  24.618   3.692  0.00  0.00    -0.297 N 
ATOM     25  C   UNL     1     -36.858  25.066   3.797  0.00  0.00    +0.241 C 
ATOM     26  H   UNL     1     -38.614  24.286   4.504  0.00  0.00    +0.150 HD
BRANCH  25  29
ATOM     27  O   UNL     1     -34.716  21.880   5.671  0.00  0.00    -0.275 OA
ATOM     28  N   UNL     1     -36.308  23.592   5.545  0.00  0.00    -0.298 N 
ATOM     29  C   UNL     1     -36.339  24.984   5.197  0.00  0.00    +0.149 C 
ATOM     30  C   UNL     1     -34.891  25.418   5.312  0.00  0.00    +0.039 C 
ATOM     31  C   UNL     1     -34.091  24.143   5.045  0.00  0.00    +0.087 C 
ATOM     32  C   UNL     1     -35.033  23.041   5.471  0.00  0.00    +0.223 C 
ATOM     33  H   UNL     1     -37.107  23.079   5.809  0.00  0.00    +0.150 HD
ENDBRANCH  25  29
ENDBRANCH  22  24
BRANCH  22  34
ATOM     34  C   UNL     1     -39.785  23.370   2.316  0.00  0.00    +0.059 C 
BRANCH  34  37
ATOM     35  N   UNL     1     -37.708  22.429   1.383  0.00  0.00    -0.246 NA
ATOM     36  N   UNL     1     -38.909  21.042   0.018  0.00  0.00    -0.225 NA
ATOM     37  C   UNL     1     -38.973  22.105   2.072  0.00  0.00    +0.148 C 
ATOM     38  C   UNL     1     -39.627  21.212   1.069  0.00  0.00    +0.098 C 
ATOM     39  C   UNL     1     -37.782  21.785   0.258  0.00  0.00    +0.194 C 
ENDBRANCH  34  37
ENDBRANCH  22  34
ENDBRANCH   5  22
TORSDOF 7
ENDMDL
