MODEL 1
REMARK VINA RESULT:      -6.1      0.000      0.000
REMARK  Name = 5281698
REMARK  6 active torsions:
REMARK  status: ('A' for Active; 'I' for Inactive)
REMARK    1  A    between atoms: C_5  and  C_12
REMARK    2  A    between atoms: C_6  and  O_20
REMARK    3  A    between atoms: C_8  and  O_22
REMARK    4  A    between atoms: C_9  and  O_24
REMARK    5  A    between atoms: C_10  and  O_26
REMARK    6  A    between atoms: C_17  and  O_18
REMARK                            x       y       z     vdW  Elec       q    Type
REMARK                         _______ _______ _______ _____ _____    ______ ____
ROOT
ATOM      1  O   UNL     1     -35.340  22.232   2.148  0.00  0.00    -0.447 OA
ATOM      2  O   UNL     1     -38.984  20.958   0.845  0.00  0.00    -0.283 OA
ATOM      3  C   UNL     1     -37.746  22.544   2.073  0.00  0.00    +0.113 A 
ATOM      4  C   UNL     1     -36.472  22.926   2.489  0.00  0.00    +0.188 A 
ATOM      5  C   UNL     1     -35.470  21.110   1.347  0.00  0.00    +0.182 A 
ATOM      6  C   UNL     1     -36.309  24.059   3.288  0.00  0.00    +0.207 C 
ATOM      7  C   UNL     1     -37.891  21.346   1.234  0.00  0.00    +0.238 A 
ATOM      8  C   UNL     1     -36.640  20.630   0.887  0.00  0.00    +0.208 A 
ATOM      9  C   UNL     1     -38.865  23.291   2.454  0.00  0.00    +0.143 C 
ATOM     10  C   UNL     1     -37.423  24.806   3.669  0.00  0.00    +0.174 C 
ATOM     11  C   UNL     1     -38.699  24.423   3.252  0.00  0.00    +0.077 C 
ENDROOT
BRANCH   5  12
ATOM     12  C   UNL     1     -34.179  20.458   1.057  0.00  0.00    +0.038 C 
ATOM     13  C   UNL     1     -33.255  21.083   0.219  0.00  0.00    +0.006 C 
ATOM     14  C   UNL     1     -33.881  19.218   1.621  0.00  0.00    +0.006 C 
ATOM     15  C   UNL     1     -32.034  20.466  -0.056  0.00  0.00    +0.037 C 
ATOM     16  C   UNL     1     -32.661  18.601   1.346  0.00  0.00    +0.037 C 
ATOM     17  C   UNL     1     -31.737  19.225   0.508  0.00  0.00    +0.134 C 
BRANCH  17  18
ATOM     18  O   UNL     1     -30.546  18.624   0.241  0.00  0.00    -0.506 OA
ATOM     19  H   UNL     1     -30.528  17.748  -0.090  0.00  0.00    +0.292 HD
ENDBRANCH  17  18
ENDBRANCH   5  12
BRANCH   6  20
ATOM     20  O   UNL     1     -35.064  24.438   3.699  0.00  0.00    -0.465 OA
ATOM     21  C   UNL     1     -34.636  23.974   4.977  0.00  0.00    +0.253 C 
ENDBRANCH   6  20
BRANCH   8  22
ATOM     22  O   UNL     1     -36.737  19.490   0.118  0.00  0.00    -0.501 OA
ATOM     23  H   UNL     1     -35.984  18.947  -0.010  0.00  0.00    +0.292 HD
ENDBRANCH   8  22
BRANCH   9  24
ATOM     24  O   UNL     1     -40.131  22.962   2.074  0.00  0.00    -0.505 OA
ATOM     25  H   UNL     1     -40.357  22.939   1.164  0.00  0.00    +0.292 HD
ENDBRANCH   9  24
BRANCH  10  26
ATOM     26  O   UNL     1     -37.280  25.914   4.449  0.00  0.00    -0.503 OA
ATOM     27  H   UNL     1     -38.036  26.380   4.744  0.00  0.00    +0.292 HD
ENDBRANCH  10  26
TORSDOF 6
ENDMDL
MODEL 2
REMARK VINA RESULT:      -6.1      4.057      6.357
REMARK  Name = 5281698
REMARK  6 active torsions:
REMARK  status: ('A' for Active; 'I' for Inactive)
REMARK    1  A    between atoms: C_5  and  C_12
REMARK    2  A    between atoms: C_6  and  O_20
REMARK    3  A    between atoms: C_8  and  O_22
REMARK    4  A    between atoms: C_9  and  O_24
REMARK    5  A    between atoms: C_10  and  O_26
REMARK    6  A    between atoms: C_17  and  O_18
REMARK                            x       y       z     vdW  Elec       q    Type
REMARK                         _______ _______ _______ _____ _____    ______ ____
ROOT
ATOM      1  O   UNL     1     -34.140  26.433   3.937  0.00  0.00    -0.447 OA
ATOM      2  O   UNL     1     -37.005  28.036   1.525  0.00  0.00    -0.283 OA
ATOM      3  C   UNL     1     -34.937  28.311   2.623  0.00  0.00    +0.113 A 
ATOM      4  C   UNL     1     -33.995  27.707   3.454  0.00  0.00    +0.188 A 
ATOM      5  C   UNL     1     -35.266  25.712   3.574  0.00  0.00    +0.182 A 
ATOM      6  C   UNL     1     -32.845  28.404   3.828  0.00  0.00    +0.207 C 
ATOM      7  C   UNL     1     -36.141  27.556   2.246  0.00  0.00    +0.238 A 
ATOM      8  C   UNL     1     -36.253  26.181   2.789  0.00  0.00    +0.208 A 
ATOM      9  C   UNL     1     -34.736  29.615   2.161  0.00  0.00    +0.143 C 
ATOM     10  C   UNL     1     -32.642  29.704   3.369  0.00  0.00    +0.174 C 
ATOM     11  C   UNL     1     -33.586  30.309   2.536  0.00  0.00    +0.077 C 
ENDROOT
BRANCH   5  12
ATOM     12  C   UNL     1     -35.298  24.360   4.163  0.00  0.00    +0.038 C 
ATOM     13  C   UNL     1     -35.319  23.239   3.333  0.00  0.00    +0.006 C 
ATOM     14  C   UNL     1     -35.307  24.203   5.549  0.00  0.00    +0.006 C 
ATOM     15  C   UNL     1     -35.350  21.960   3.890  0.00  0.00    +0.037 C 
ATOM     16  C   UNL     1     -35.338  22.924   6.105  0.00  0.00    +0.037 C 
ATOM     17  C   UNL     1     -35.359  21.803   5.276  0.00  0.00    +0.134 C 
BRANCH  17  18
ATOM     18  O   UNL     1     -35.389  20.555   5.819  0.00  0.00    -0.506 OA
ATOM     19  H   UNL     1     -34.943  19.850   5.395  0.00  0.00    +0.292 HD
ENDBRANCH  17  18
ENDBRANCH   5  12
BRANCH   6  20
ATOM     20  O   UNL     1     -31.920  27.819   4.641  0.00  0.00    -0.465 OA
ATOM     21  C   UNL     1     -32.033  28.075   6.039  0.00  0.00    +0.253 C 
ENDBRANCH   6  20
BRANCH   8  22
ATOM     22  O   UNL     1     -37.377  25.449   2.473  0.00  0.00    -0.501 OA
ATOM     23  H   UNL     1     -37.404  24.952   1.679  0.00  0.00    +0.292 HD
ENDBRANCH   8  22
BRANCH   9  24
ATOM     24  O   UNL     1     -35.624  30.251   1.347  0.00  0.00    -0.505 OA
ATOM     25  H   UNL     1     -35.459  30.305   0.426  0.00  0.00    +0.292 HD
ENDBRANCH   9  24
BRANCH  10  26
ATOM     26  O   UNL     1     -31.525  30.398   3.725  0.00  0.00    -0.503 OA
ATOM     27  H   UNL     1     -30.818  30.493   3.118  0.00  0.00    +0.292 HD
ENDBRANCH  10  26
TORSDOF 6
ENDMDL
MODEL 3
REMARK VINA RESULT:      -6.1      1.900      5.734
REMARK  Name = 5281698
REMARK  6 active torsions:
REMARK  status: ('A' for Active; 'I' for Inactive)
REMARK    1  A    between atoms: C_5  and  C_12
REMARK    2  A    between atoms: C_6  and  O_20
REMARK    3  A    between atoms: C_8  and  O_22
REMARK    4  A    between atoms: C_9  and  O_24
REMARK    5  A    between atoms: C_10  and  O_26
REMARK    6  A    between atoms: C_17  and  O_18
REMARK                            x       y       z     vdW  Elec       q    Type
REMARK                         _______ _______ _______ _____ _____    ______ ____
ROOT
ATOM      1  O   UNL     1     -36.378  22.715   2.283  0.00  0.00    -0.447 OA
ATOM      2  O   UNL     1     -40.436  23.066   2.228  0.00  0.00    -0.283 OA
ATOM      3  C   UNL     1     -38.520  21.927   1.459  0.00  0.00    +0.113 A 
ATOM      4  C   UNL     1     -37.130  21.861   1.519  0.00  0.00    +0.188 A 
ATOM      5  C   UNL     1     -37.031  23.677   3.037  0.00  0.00    +0.182 A 
ATOM      6  C   UNL     1     -36.444  20.896   0.779  0.00  0.00    +0.207 C 
ATOM      7  C   UNL     1     -39.218  22.955   2.246  0.00  0.00    +0.238 A 
ATOM      8  C   UNL     1     -38.364  23.853   3.060  0.00  0.00    +0.208 A 
ATOM      9  C   UNL     1     -39.235  21.030   0.660  0.00  0.00    +0.143 C 
ATOM     10  C   UNL     1     -37.154  19.999  -0.018  0.00  0.00    +0.174 C 
ATOM     11  C   UNL     1     -38.548  20.066  -0.078  0.00  0.00    +0.077 C 
ENDROOT
BRANCH   5  12
ATOM     12  C   UNL     1     -36.106  24.527   3.809  0.00  0.00    +0.038 C 
ATOM     13  C   UNL     1     -35.672  24.118   5.070  0.00  0.00    +0.006 C 
ATOM     14  C   UNL     1     -35.666  25.740   3.279  0.00  0.00    +0.006 C 
ATOM     15  C   UNL     1     -34.798  24.923   5.801  0.00  0.00    +0.037 C 
ATOM     16  C   UNL     1     -34.792  26.545   4.010  0.00  0.00    +0.037 C 
ATOM     17  C   UNL     1     -34.358  26.136   5.271  0.00  0.00    +0.134 C 
BRANCH  17  18
ATOM     18  O   UNL     1     -33.505  26.921   5.985  0.00  0.00    -0.506 OA
ATOM     19  H   UNL     1     -32.582  26.773   5.937  0.00  0.00    +0.292 HD
ENDBRANCH  17  18
ENDBRANCH   5  12
BRANCH   6  20
ATOM     20  O   UNL     1     -35.083  20.826   0.833  0.00  0.00    -0.465 OA
ATOM     21  C   UNL     1     -34.520  19.909   1.767  0.00  0.00    +0.253 C 
ENDBRANCH   6  20
BRANCH   8  22
ATOM     22  O   UNL     1     -38.981  24.842   3.796  0.00  0.00    -0.501 OA
ATOM     23  H   UNL     1     -39.916  24.883   3.833  0.00  0.00    +0.292 HD
ENDBRANCH   8  22
BRANCH   9  24
ATOM     24  O   UNL     1     -40.594  21.051   0.567  0.00  0.00    -0.505 OA
ATOM     25  H   UNL     1     -41.117  20.701   1.262  0.00  0.00    +0.292 HD
ENDBRANCH   9  24
BRANCH  10  26
ATOM     26  O   UNL     1     -36.500  19.052  -0.746  0.00  0.00    -0.503 OA
ATOM     27  H   UNL     1     -35.610  19.190  -1.003  0.00  0.00    +0.292 HD
ENDBRANCH  10  26
TORSDOF 6
ENDMDL
MODEL 4
REMARK VINA RESULT:      -6.0      1.374      2.075
REMARK  Name = 5281698
REMARK  6 active torsions:
REMARK  status: ('A' for Active; 'I' for Inactive)
REMARK    1  A    between atoms: C_5  and  C_12
REMARK    2  A    between atoms: C_6  and  O_20
REMARK    3  A    between atoms: C_8  and  O_22
REMARK    4  A    between atoms: C_9  and  O_24
REMARK    5  A    between atoms: C_10  and  O_26
REMARK    6  A    between atoms: C_17  and  O_18
REMARK                            x       y       z     vdW  Elec       q    Type
REMARK                         _______ _______ _______ _____ _____    ______ ____
ROOT
ATOM      1  O   UNL     1     -34.893  20.917   1.669  0.00  0.00    -0.447 OA
ATOM      2  O   UNL     1     -38.021  19.075  -0.182  0.00  0.00    -0.283 OA
ATOM      3  C   UNL     1     -37.282  20.790   1.258  0.00  0.00    +0.113 A 
ATOM      4  C   UNL     1     -36.170  21.373   1.863  0.00  0.00    +0.188 A 
ATOM      5  C   UNL     1     -34.699  19.835   0.825  0.00  0.00    +0.182 A 
ATOM      6  C   UNL     1     -36.333  22.471   2.710  0.00  0.00    +0.207 C 
ATOM      7  C   UNL     1     -37.083  19.633   0.372  0.00  0.00    +0.238 A 
ATOM      8  C   UNL     1     -35.684  19.177   0.189  0.00  0.00    +0.208 A 
ATOM      9  C   UNL     1     -38.562  21.298   1.494  0.00  0.00    +0.143 C 
ATOM     10  C   UNL     1     -37.609  22.981   2.947  0.00  0.00    +0.174 C 
ATOM     11  C   UNL     1     -38.721  22.396   2.340  0.00  0.00    +0.077 C 
ENDROOT
BRANCH   5  12
ATOM     12  C   UNL     1     -33.282  19.446   0.706  0.00  0.00    +0.038 C 
ATOM     13  C   UNL     1     -32.820  18.291   1.338  0.00  0.00    +0.006 C 
ATOM     14  C   UNL     1     -32.402  20.232  -0.038  0.00  0.00    +0.006 C 
ATOM     15  C   UNL     1     -31.479  17.923   1.225  0.00  0.00    +0.037 C 
ATOM     16  C   UNL     1     -31.062  19.864  -0.151  0.00  0.00    +0.037 C 
ATOM     17  C   UNL     1     -30.600  18.709   0.481  0.00  0.00    +0.134 C 
BRANCH  17  18
ATOM     18  O   UNL     1     -29.292  18.350   0.371  0.00  0.00    -0.506 OA
ATOM     19  H   UNL     1     -28.709  18.479   1.093  0.00  0.00    +0.292 HD
ENDBRANCH  17  18
ENDBRANCH   5  12
BRANCH   6  20
ATOM     20  O   UNL     1     -35.250  23.047   3.306  0.00  0.00    -0.465 OA
ATOM     21  C   UNL     1     -34.666  24.166   2.643  0.00  0.00    +0.253 C 
ENDBRANCH   6  20
BRANCH   8  22
ATOM     22  O   UNL     1     -35.460  18.082  -0.619  0.00  0.00    -0.501 OA
ATOM     23  H   UNL     1     -34.680  17.574  -0.512  0.00  0.00    +0.292 HD
ENDBRANCH   8  22
BRANCH   9  24
ATOM     24  O   UNL     1     -39.680  20.766   0.926  0.00  0.00    -0.505 OA
ATOM     25  H   UNL     1     -40.525  20.965   1.280  0.00  0.00    +0.292 HD
ENDBRANCH   9  24
BRANCH  10  26
ATOM     26  O   UNL     1     -37.784  24.052   3.771  0.00  0.00    -0.503 OA
ATOM     27  H   UNL     1     -38.607  24.186   4.197  0.00  0.00    +0.292 HD
ENDBRANCH  10  26
TORSDOF 6
ENDMDL
MODEL 5
REMARK VINA RESULT:      -6.0      3.002      4.968
REMARK  Name = 5281698
REMARK  6 active torsions:
REMARK  status: ('A' for Active; 'I' for Inactive)
REMARK    1  A    between atoms: C_5  and  C_12
REMARK    2  A    between atoms: C_6  and  O_20
REMARK    3  A    between atoms: C_8  and  O_22
REMARK    4  A    between atoms: C_9  and  O_24
REMARK    5  A    between atoms: C_10  and  O_26
REMARK    6  A    between atoms: C_17  and  O_18
REMARK                            x       y       z     vdW  Elec       q    Type
REMARK                         _______ _______ _______ _____ _____    ______ ____
ROOT
ATOM      1  O   UNL     1     -37.659  23.206   2.205  0.00  0.00    -0.447 OA
ATOM      2  O   UNL     1     -35.177  20.526   4.010  0.00  0.00    -0.283 OA
ATOM      3  C   UNL     1     -36.073  22.707   3.973  0.00  0.00    +0.113 A 
ATOM      4  C   UNL     1     -36.936  23.576   3.309  0.00  0.00    +0.188 A 
ATOM      5  C   UNL     1     -37.533  21.908   1.737  0.00  0.00    +0.182 A 
ATOM      6  C   UNL     1     -37.092  24.887   3.762  0.00  0.00    +0.207 C 
ATOM      7  C   UNL     1     -35.925  21.332   3.473  0.00  0.00    +0.238 A 
ATOM      8  C   UNL     1     -36.729  20.976   2.279  0.00  0.00    +0.208 A 
ATOM      9  C   UNL     1     -35.360  23.141   5.094  0.00  0.00    +0.143 C 
ATOM     10  C   UNL     1     -36.383  25.323   4.881  0.00  0.00    +0.174 C 
ATOM     11  C   UNL     1     -35.518  24.451   5.545  0.00  0.00    +0.077 C 
ENDROOT
BRANCH   5  12
ATOM     12  C   UNL     1     -38.362  21.643   0.546  0.00  0.00    +0.038 C 
ATOM     13  C   UNL     1     -37.815  21.784  -0.729  0.00  0.00    +0.006 C 
ATOM     14  C   UNL     1     -39.692  21.250   0.695  0.00  0.00    +0.006 C 
ATOM     15  C   UNL     1     -38.599  21.534  -1.855  0.00  0.00    +0.037 C 
ATOM     16  C   UNL     1     -40.476  21.000  -0.431  0.00  0.00    +0.037 C 
ATOM     17  C   UNL     1     -39.929  21.141  -1.706  0.00  0.00    +0.134 C 
BRANCH  17  18
ATOM     18  O   UNL     1     -40.694  20.897  -2.805  0.00  0.00    -0.506 OA
ATOM     19  H   UNL     1     -40.734  20.033  -3.165  0.00  0.00    +0.292 HD
ENDBRANCH  17  18
ENDBRANCH   5  12
BRANCH   6  20
ATOM     20  O   UNL     1     -37.935  25.743   3.117  0.00  0.00    -0.465 OA
ATOM     21  C   UNL     1     -37.375  26.539   2.075  0.00  0.00    +0.253 C 
ENDBRANCH   6  20
BRANCH   8  22
ATOM     22  O   UNL     1     -36.602  19.701   1.769  0.00  0.00    -0.501 OA
ATOM     23  H   UNL     1     -37.089  18.995   2.148  0.00  0.00    +0.292 HD
ENDBRANCH   8  22
BRANCH   9  24
ATOM     24  O   UNL     1     -34.505  22.331   5.779  0.00  0.00    -0.505 OA
ATOM     25  H   UNL     1     -34.226  21.519   5.404  0.00  0.00    +0.292 HD
ENDBRANCH   9  24
BRANCH  10  26
ATOM     26  O   UNL     1     -36.524  26.599   5.336  0.00  0.00    -0.503 OA
ATOM     27  H   UNL     1     -35.942  26.930   5.991  0.00  0.00    +0.292 HD
ENDBRANCH  10  26
TORSDOF 6
ENDMDL
MODEL 6
REMARK VINA RESULT:      -5.9      3.280      6.490
REMARK  Name = 5281698
REMARK  6 active torsions:
REMARK  status: ('A' for Active; 'I' for Inactive)
REMARK    1  A    between atoms: C_5  and  C_12
REMARK    2  A    between atoms: C_6  and  O_20
REMARK    3  A    between atoms: C_8  and  O_22
REMARK    4  A    between atoms: C_9  and  O_24
REMARK    5  A    between atoms: C_10  and  O_26
REMARK    6  A    between atoms: C_17  and  O_18
REMARK                            x       y       z     vdW  Elec       q    Type
REMARK                         _______ _______ _______ _____ _____    ______ ____
ROOT
ATOM      1  O   UNL     1     -34.818  24.690   4.114  0.00  0.00    -0.447 OA
ATOM      2  O   UNL     1     -37.458  26.528   1.613  0.00  0.00    -0.283 OA
ATOM      3  C   UNL     1     -36.646  24.512   2.528  0.00  0.00    +0.113 A 
ATOM      4  C   UNL     1     -35.717  23.944   3.398  0.00  0.00    +0.188 A 
ATOM      5  C   UNL     1     -34.844  26.068   3.977  0.00  0.00    +0.182 A 
ATOM      6  C   UNL     1     -35.674  22.559   3.566  0.00  0.00    +0.207 C 
ATOM      7  C   UNL     1     -36.669  25.973   2.367  0.00  0.00    +0.238 A 
ATOM      8  C   UNL     1     -35.682  26.739   3.165  0.00  0.00    +0.208 A 
ATOM      9  C   UNL     1     -37.538  23.700   1.821  0.00  0.00    +0.143 C 
ATOM     10  C   UNL     1     -36.563  21.747   2.863  0.00  0.00    +0.174 C 
ATOM     11  C   UNL     1     -37.493  22.317   1.992  0.00  0.00    +0.077 C 
ENDROOT
BRANCH   5  12
ATOM     12  C   UNL     1     -33.827  26.748   4.800  0.00  0.00    +0.038 C 
ATOM     13  C   UNL     1     -33.744  26.479   6.167  0.00  0.00    +0.006 C 
ATOM     14  C   UNL     1     -32.949  27.659   4.214  0.00  0.00    +0.006 C 
ATOM     15  C   UNL     1     -32.782  27.123   6.946  0.00  0.00    +0.037 C 
ATOM     16  C   UNL     1     -31.988  28.302   4.993  0.00  0.00    +0.037 C 
ATOM     17  C   UNL     1     -31.904  28.034   6.359  0.00  0.00    +0.134 C 
BRANCH  17  18
ATOM     18  O   UNL     1     -30.966  28.661   7.120  0.00  0.00    -0.506 OA
ATOM     19  H   UNL     1     -30.901  29.595   7.107  0.00  0.00    +0.292 HD
ENDBRANCH  17  18
ENDBRANCH   5  12
BRANCH   6  20
ATOM     20  O   UNL     1     -34.767  21.997   4.415  0.00  0.00    -0.465 OA
ATOM     21  C   UNL     1     -35.193  21.764   5.755  0.00  0.00    +0.253 C 
ENDBRANCH   6  20
BRANCH   8  22
ATOM     22  O   UNL     1     -35.660  28.110   3.026  0.00  0.00    -0.501 OA
ATOM     23  H   UNL     1     -34.889  28.592   3.256  0.00  0.00    +0.292 HD
ENDBRANCH   8  22
BRANCH   9  24
ATOM     24  O   UNL     1     -38.466  24.204   0.961  0.00  0.00    -0.505 OA
ATOM     25  H   UNL     1     -38.980  24.948   1.209  0.00  0.00    +0.292 HD
ENDBRANCH   9  24
BRANCH  10  26
ATOM     26  O   UNL     1     -36.533  20.393   3.016  0.00  0.00    -0.503 OA
ATOM     27  H   UNL     1     -35.753  19.916   2.814  0.00  0.00    +0.292 HD
ENDBRANCH  10  26
TORSDOF 6
ENDMDL
MODEL 7
REMARK VINA RESULT:      -5.8      1.754      5.720
REMARK  Name = 5281698
REMARK  6 active torsions:
REMARK  status: ('A' for Active; 'I' for Inactive)
REMARK    1  A    between atoms: C_5  and  C_12
REMARK    2  A    between atoms: C_6  and  O_20
REMARK    3  A    between atoms: C_8  and  O_22
REMARK    4  A    between atoms: C_9  and  O_24
REMARK    5  A    between atoms: C_10  and  O_26
REMARK    6  A    between atoms: C_17  and  O_18
REMARK                            x       y       z     vdW  Elec       q    Type
REMARK                         _______ _______ _______ _____ _____    ______ ____
ROOT
ATOM      1  O   UNL     1     -35.135  21.268   2.135  0.00  0.00    -0.447 OA
ATOM      2  O   UNL     1     -39.069  21.030   1.103  0.00  0.00    -0.283 OA
ATOM      3  C   UNL     1     -36.901  20.119   0.931  0.00  0.00    +0.113 A 
ATOM      4  C   UNL     1     -35.570  20.257   1.318  0.00  0.00    +0.188 A 
ATOM      5  C   UNL     1     -36.062  22.184   2.604  0.00  0.00    +0.182 A 
ATOM      6  C   UNL     1     -34.614  19.344   0.870  0.00  0.00    +0.207 C 
ATOM      7  C   UNL     1     -37.888  21.096   1.414  0.00  0.00    +0.238 A 
ATOM      8  C   UNL     1     -37.372  22.169   2.298  0.00  0.00    +0.208 A 
ATOM      9  C   UNL     1     -37.287  19.068   0.094  0.00  0.00    +0.143 C 
ATOM     10  C   UNL     1     -34.995  18.294   0.036  0.00  0.00    +0.174 C 
ATOM     11  C   UNL     1     -36.329  18.156  -0.352  0.00  0.00    +0.077 C 
ENDROOT
BRANCH   5  12
ATOM     12  C   UNL     1     -35.464  23.217   3.469  0.00  0.00    +0.038 C 
ATOM     13  C   UNL     1     -34.797  24.302   2.900  0.00  0.00    +0.006 C 
ATOM     14  C   UNL     1     -35.564  23.110   4.856  0.00  0.00    +0.006 C 
ATOM     15  C   UNL     1     -34.230  25.279   3.719  0.00  0.00    +0.037 C 
ATOM     16  C   UNL     1     -34.997  24.087   5.675  0.00  0.00    +0.037 C 
ATOM     17  C   UNL     1     -34.330  25.172   5.106  0.00  0.00    +0.134 C 
BRANCH  17  18
ATOM     18  O   UNL     1     -33.777  26.125   5.904  0.00  0.00    -0.506 OA
ATOM     19  H   UNL     1     -32.860  26.105   6.090  0.00  0.00    +0.292 HD
ENDBRANCH  17  18
ENDBRANCH   5  12
BRANCH   6  20
ATOM     20  O   UNL     1     -33.309  19.474   1.245  0.00  0.00    -0.465 OA
ATOM     21  C   UNL     1     -32.444  20.166   0.347  0.00  0.00    +0.253 C 
ENDBRANCH   6  20
BRANCH   8  22
ATOM     22  O   UNL     1     -38.264  23.115   2.756  0.00  0.00    -0.501 OA
ATOM     23  H   UNL     1     -39.170  22.896   2.857  0.00  0.00    +0.292 HD
ENDBRANCH   8  22
BRANCH   9  24
ATOM     24  O   UNL     1     -38.574  18.887  -0.313  0.00  0.00    -0.505 OA
ATOM     25  H   UNL     1     -39.222  18.594   0.299  0.00  0.00    +0.292 HD
ENDBRANCH   9  24
BRANCH  10  26
ATOM     26  O   UNL     1     -34.074  17.394  -0.410  0.00  0.00    -0.503 OA
ATOM     27  H   UNL     1     -33.363  17.679  -0.948  0.00  0.00    +0.292 HD
ENDBRANCH  10  26
TORSDOF 6
ENDMDL
MODEL 8
REMARK VINA RESULT:      -5.8      3.970      6.474
REMARK  Name = 5281698
REMARK  6 active torsions:
REMARK  status: ('A' for Active; 'I' for Inactive)
REMARK    1  A    between atoms: C_5  and  C_12
REMARK    2  A    between atoms: C_6  and  O_20
REMARK    3  A    between atoms: C_8  and  O_22
REMARK    4  A    between atoms: C_9  and  O_24
REMARK    5  A    between atoms: C_10  and  O_26
REMARK    6  A    between atoms: C_17  and  O_18
REMARK                            x       y       z     vdW  Elec       q    Type
REMARK                         _______ _______ _______ _____ _____    ______ ____
ROOT
ATOM      1  O   UNL     1     -36.193  25.914   2.641  0.00  0.00    -0.447 OA
ATOM      2  O   UNL     1     -33.563  28.858   3.649  0.00  0.00    -0.283 OA
ATOM      3  C   UNL     1     -35.395  28.184   2.326  0.00  0.00    +0.113 A 
ATOM      4  C   UNL     1     -36.263  27.136   2.025  0.00  0.00    +0.188 A 
ATOM      5  C   UNL     1     -35.226  25.717   3.613  0.00  0.00    +0.182 A 
ATOM      6  C   UNL     1     -37.254  27.307   1.058  0.00  0.00    +0.207 C 
ATOM      7  C   UNL     1     -34.357  27.977   3.347  0.00  0.00    +0.238 A 
ATOM      8  C   UNL     1     -34.323  26.641   3.989  0.00  0.00    +0.208 A 
ATOM      9  C   UNL     1     -35.512  29.409   1.663  0.00  0.00    +0.143 C 
ATOM     10  C   UNL     1     -37.375  28.528   0.395  0.00  0.00    +0.174 C 
ATOM     11  C   UNL     1     -36.505  29.577   0.698  0.00  0.00    +0.077 C 
ENDROOT
BRANCH   5  12
ATOM     12  C   UNL     1     -35.260  24.362   4.193  0.00  0.00    +0.038 C 
ATOM     13  C   UNL     1     -35.283  23.246   3.357  0.00  0.00    +0.006 C 
ATOM     14  C   UNL     1     -35.270  24.196   5.578  0.00  0.00    +0.006 C 
ATOM     15  C   UNL     1     -35.316  21.964   3.906  0.00  0.00    +0.037 C 
ATOM     16  C   UNL     1     -35.303  22.915   6.127  0.00  0.00    +0.037 C 
ATOM     17  C   UNL     1     -35.326  21.798   5.291  0.00  0.00    +0.134 C 
BRANCH  17  18
ATOM     18  O   UNL     1     -35.358  20.548   5.826  0.00  0.00    -0.506 OA
ATOM     19  H   UNL     1     -35.942  19.904   5.478  0.00  0.00    +0.292 HD
ENDBRANCH  17  18
ENDBRANCH   5  12
BRANCH   6  20
ATOM     20  O   UNL     1     -38.106  26.285   0.758  0.00  0.00    -0.465 OA
ATOM     21  C   UNL     1     -39.324  26.221   1.496  0.00  0.00    +0.253 C 
ENDBRANCH   6  20
BRANCH   8  22
ATOM     22  O   UNL     1     -33.352  26.403   4.938  0.00  0.00    -0.501 OA
ATOM     23  H   UNL     1     -33.511  26.620   5.836  0.00  0.00    +0.292 HD
ENDBRANCH   8  22
BRANCH   9  24
ATOM     24  O   UNL     1     -34.692  30.465   1.921  0.00  0.00    -0.505 OA
ATOM     25  H   UNL     1     -34.757  30.922   2.737  0.00  0.00    +0.292 HD
ENDBRANCH   9  24
BRANCH  10  26
ATOM     26  O   UNL     1     -38.338  28.710  -0.551  0.00  0.00    -0.503 OA
ATOM     27  H   UNL     1     -39.128  29.163  -0.334  0.00  0.00    +0.292 HD
ENDBRANCH  10  26
TORSDOF 6
ENDMDL
MODEL 9
REMARK VINA RESULT:      -5.8      5.538      8.785
REMARK  Name = 5281698
REMARK  6 active torsions:
REMARK  status: ('A' for Active; 'I' for Inactive)
REMARK    1  A    between atoms: C_5  and  C_12
REMARK    2  A    between atoms: C_6  and  O_20
REMARK    3  A    between atoms: C_8  and  O_22
REMARK    4  A    between atoms: C_9  and  O_24
REMARK    5  A    between atoms: C_10  and  O_26
REMARK    6  A    between atoms: C_17  and  O_18
REMARK                            x       y       z     vdW  Elec       q    Type
REMARK                         _______ _______ _______ _____ _____    ______ ____
ROOT
ATOM      1  O   UNL     1     -33.733  28.200   3.759  0.00  0.00    -0.447 OA
ATOM      2  O   UNL     1     -30.945  29.275   6.528  0.00  0.00    -0.283 OA
ATOM      3  C   UNL     1     -32.096  29.812   4.542  0.00  0.00    +0.113 A 
ATOM      4  C   UNL     1     -33.059  29.386   3.629  0.00  0.00    +0.188 A 
ATOM      5  C   UNL     1     -33.452  27.396   4.852  0.00  0.00    +0.182 A 
ATOM      6  C   UNL     1     -33.370  30.178   2.523  0.00  0.00    +0.207 C 
ATOM      7  C   UNL     1     -31.784  28.957   5.697  0.00  0.00    +0.238 A 
ATOM      8  C   UNL     1     -32.541  27.686   5.799  0.00  0.00    +0.208 A 
ATOM      9  C   UNL     1     -31.439  31.032   4.357  0.00  0.00    +0.143 C 
ATOM     10  C   UNL     1     -32.718  31.396   2.335  0.00  0.00    +0.174 C 
ATOM     11  C   UNL     1     -31.754  31.822   3.251  0.00  0.00    +0.077 C 
ENDROOT
BRANCH   5  12
ATOM     12  C   UNL     1     -34.244  26.153   4.871  0.00  0.00    +0.038 C 
ATOM     13  C   UNL     1     -33.776  25.018   4.209  0.00  0.00    +0.006 C 
ATOM     14  C   UNL     1     -35.462  26.111   5.550  0.00  0.00    +0.006 C 
ATOM     15  C   UNL     1     -34.525  23.842   4.226  0.00  0.00    +0.037 C 
ATOM     16  C   UNL     1     -36.212  24.935   5.566  0.00  0.00    +0.037 C 
ATOM     17  C   UNL     1     -35.743  23.800   4.905  0.00  0.00    +0.134 C 
BRANCH  17  18
ATOM     18  O   UNL     1     -36.474  22.652   4.921  0.00  0.00    -0.506 OA
ATOM     19  H   UNL     1     -36.467  22.104   5.681  0.00  0.00    +0.292 HD
ENDBRANCH  17  18
ENDBRANCH   5  12
BRANCH   6  20
ATOM     20  O   UNL     1     -34.311  29.767   1.625  0.00  0.00    -0.465 OA
ATOM     21  C   UNL     1     -35.658  30.163   1.872  0.00  0.00    +0.253 C 
ENDBRANCH   6  20
BRANCH   8  22
ATOM     22  O   UNL     1     -32.263  26.849   6.858  0.00  0.00    -0.501 OA
ATOM     23  H   UNL     1     -32.475  25.938   6.803  0.00  0.00    +0.292 HD
ENDBRANCH   8  22
BRANCH   9  24
ATOM     24  O   UNL     1     -30.493  31.495   5.220  0.00  0.00    -0.505 OA
ATOM     25  H   UNL     1     -29.793  32.033   4.904  0.00  0.00    +0.292 HD
ENDBRANCH   9  24
BRANCH  10  26
ATOM     26  O   UNL     1     -33.011  32.181   1.261  0.00  0.00    -0.503 OA
ATOM     27  H   UNL     1     -33.900  32.408   1.076  0.00  0.00    +0.292 HD
ENDBRANCH  10  26
TORSDOF 6
ENDMDL
