MODEL 1
REMARK VINA RESULT:      -5.7      0.000      0.000
REMARK  Name = 5328793
REMARK  6 active torsions:
REMARK  status: ('A' for Active; 'I' for Inactive)
REMARK    1  A    between atoms: C_1  and  C_11
REMARK    2  A    between atoms: C_4  and  O_7
REMARK    3  A    between atoms: C_5  and  O_9
REMARK    4  A    between atoms: C_12  and  C_14
REMARK    5  A    between atoms: C_12  and  C_18
REMARK    6  A    between atoms: C_14  and  O_15
REMARK                            x       y       z     vdW  Elec       q    Type
REMARK                         _______ _______ _______ _____ _____    ______ ____
ROOT
ATOM      1  C   UNL     1     -34.678  25.385   5.413  0.00  0.00    +0.004 C 
ATOM      2  C   UNL     1     -35.998  25.749   5.146  0.00  0.00    +0.040 C 
ATOM      3  C   UNL     1     -34.227  24.107   5.085  0.00  0.00    +0.003 C 
ATOM      4  C   UNL     1     -36.867  24.834   4.551  0.00  0.00    +0.167 C 
ATOM      5  C   UNL     1     -36.415  23.555   4.223  0.00  0.00    +0.167 C 
ATOM      6  C   UNL     1     -35.095  23.192   4.490  0.00  0.00    +0.040 C 
ENDROOT
BRANCH   4   7
ATOM      7  O   UNL     1     -38.154  25.201   4.294  0.00  0.00    -0.503 OA
ATOM      8  H   UNL     1     -38.335  25.841   3.634  0.00  0.00    +0.292 HD
ENDBRANCH   4   7
BRANCH   5   9
ATOM      9  O   UNL     1     -37.253  22.654   3.640  0.00  0.00    -0.503 OA
ATOM     10  H   UNL     1     -37.314  22.606   2.706  0.00  0.00    +0.292 HD
ENDBRANCH   5   9
BRANCH   1  11
ATOM     11  C   UNL     1     -33.773  26.340   6.034  0.00  0.00    +0.017 C 
ATOM     12  C   UNL     1     -32.995  27.219   5.362  0.00  0.00    +0.144 C 
BRANCH  12  14
ATOM     13  O   UNL     1     -32.218  29.336   6.223  0.00  0.00    -0.244 OA
ATOM     14  C   UNL     1     -32.131  28.118   6.174  0.00  0.00    +0.348 C 
BRANCH  14  15
ATOM     15  O   UNL     1     -31.213  27.403   6.868  0.00  0.00    -0.477 OA
ATOM     16  H   UNL     1     -31.459  26.974   7.664  0.00  0.00    +0.295 HD
ENDBRANCH  14  15
ENDBRANCH  12  14
BRANCH  12  18
ATOM     17  N   UNL     1     -32.998  27.343   2.777  0.00  0.00    -0.191 NA
ATOM     18  C   UNL     1     -32.996  27.287   3.937  0.00  0.00    +0.107 C 
ENDBRANCH  12  18
ENDBRANCH   1  11
TORSDOF 6
ENDMDL
MODEL 2
REMARK VINA RESULT:      -5.4      3.959      4.984
REMARK  Name = 5328793
REMARK  6 active torsions:
REMARK  status: ('A' for Active; 'I' for Inactive)
REMARK    1  A    between atoms: C_1  and  C_11
REMARK    2  A    between atoms: C_4  and  O_7
REMARK    3  A    between atoms: C_5  and  O_9
REMARK    4  A    between atoms: C_12  and  C_14
REMARK    5  A    between atoms: C_12  and  C_18
REMARK    6  A    between atoms: C_14  and  O_15
REMARK                            x       y       z     vdW  Elec       q    Type
REMARK                         _______ _______ _______ _____ _____    ______ ____
ROOT
ATOM      1  C   UNL     1     -35.852  24.059   3.774  0.00  0.00    +0.004 C 
ATOM      2  C   UNL     1     -35.879  22.819   3.137  0.00  0.00    +0.040 C 
ATOM      3  C   UNL     1     -35.595  24.133   5.143  0.00  0.00    +0.003 C 
ATOM      4  C   UNL     1     -35.650  21.653   3.868  0.00  0.00    +0.167 C 
ATOM      5  C   UNL     1     -35.394  21.728   5.237  0.00  0.00    +0.167 C 
ATOM      6  C   UNL     1     -35.366  22.968   5.875  0.00  0.00    +0.040 C 
ENDROOT
BRANCH   4   7
ATOM      7  O   UNL     1     -35.678  20.447   3.233  0.00  0.00    -0.503 OA
ATOM      8  H   UNL     1     -36.133  20.357   2.419  0.00  0.00    +0.292 HD
ENDBRANCH   4   7
BRANCH   5   9
ATOM      9  O   UNL     1     -35.166  20.597   5.962  0.00  0.00    -0.503 OA
ATOM     10  H   UNL     1     -34.354  20.487   6.416  0.00  0.00    +0.292 HD
ENDBRANCH   5   9
BRANCH   1  11
ATOM     11  C   UNL     1     -36.091  25.274   3.012  0.00  0.00    +0.017 C 
ATOM     12  C   UNL     1     -37.313  25.783   2.730  0.00  0.00    +0.144 C 
BRANCH  12  14
ATOM     13  O   UNL     1     -38.230  27.349   1.138  0.00  0.00    -0.244 OA
ATOM     14  C   UNL     1     -37.357  27.040   1.935  0.00  0.00    +0.348 C 
BRANCH  14  15
ATOM     15  O   UNL     1     -36.283  27.819   2.210  0.00  0.00    -0.477 OA
ATOM     16  H   UNL     1     -35.457  27.423   2.413  0.00  0.00    +0.295 HD
ENDBRANCH  14  15
ENDBRANCH  12  14
BRANCH  12  18
ATOM     17  N   UNL     1     -39.488  24.632   3.533  0.00  0.00    -0.191 NA
ATOM     18  C   UNL     1     -38.512  25.149   3.173  0.00  0.00    +0.107 C 
ENDBRANCH  12  18
ENDBRANCH   1  11
TORSDOF 6
ENDMDL
MODEL 3
REMARK VINA RESULT:      -5.4      3.168      4.570
REMARK  Name = 5328793
REMARK  6 active torsions:
REMARK  status: ('A' for Active; 'I' for Inactive)
REMARK    1  A    between atoms: C_1  and  C_11
REMARK    2  A    between atoms: C_4  and  O_7
REMARK    3  A    between atoms: C_5  and  O_9
REMARK    4  A    between atoms: C_12  and  C_14
REMARK    5  A    between atoms: C_12  and  C_18
REMARK    6  A    between atoms: C_14  and  O_15
REMARK                            x       y       z     vdW  Elec       q    Type
REMARK                         _______ _______ _______ _____ _____    ______ ____
ROOT
ATOM      1  C   UNL     1     -36.266  22.789   3.042  0.00  0.00    +0.004 C 
ATOM      2  C   UNL     1     -37.546  22.449   2.604  0.00  0.00    +0.040 C 
ATOM      3  C   UNL     1     -35.206  21.904   2.848  0.00  0.00    +0.003 C 
ATOM      4  C   UNL     1     -37.766  21.225   1.972  0.00  0.00    +0.167 C 
ATOM      5  C   UNL     1     -36.704  20.340   1.779  0.00  0.00    +0.167 C 
ATOM      6  C   UNL     1     -35.424  20.680   2.217  0.00  0.00    +0.040 C 
ENDROOT
BRANCH   4   7
ATOM      7  O   UNL     1     -39.020  20.905   1.548  0.00  0.00    -0.503 OA
ATOM      8  H   UNL     1     -39.171  20.095   1.101  0.00  0.00    +0.292 HD
ENDBRANCH   4   7
BRANCH   5   9
ATOM      9  O   UNL     1     -36.905  19.143   1.162  0.00  0.00    -0.503 OA
ATOM     10  H   UNL     1     -36.176  18.588   0.966  0.00  0.00    +0.292 HD
ENDBRANCH   5   9
BRANCH   1  11
ATOM     11  C   UNL     1     -36.038  24.066   3.701  0.00  0.00    +0.017 C 
ATOM     12  C   UNL     1     -35.703  24.215   5.003  0.00  0.00    +0.144 C 
BRANCH  12  14
ATOM     13  O   UNL     1     -34.479  26.056   5.973  0.00  0.00    -0.244 OA
ATOM     14  C   UNL     1     -35.510  25.605   5.498  0.00  0.00    +0.348 C 
BRANCH  14  15
ATOM     15  O   UNL     1     -36.648  26.328   5.353  0.00  0.00    -0.477 OA
ATOM     16  H   UNL     1     -37.458  25.998   5.690  0.00  0.00    +0.295 HD
ENDBRANCH  14  15
ENDBRANCH  12  14
BRANCH  12  18
ATOM     17  N   UNL     1     -35.408  22.182   6.578  0.00  0.00    -0.191 NA
ATOM     18  C   UNL     1     -35.540  23.095   5.872  0.00  0.00    +0.107 C 
ENDBRANCH  12  18
ENDBRANCH   1  11
TORSDOF 6
ENDMDL
MODEL 4
REMARK VINA RESULT:      -5.4      2.812      3.654
REMARK  Name = 5328793
REMARK  6 active torsions:
REMARK  status: ('A' for Active; 'I' for Inactive)
REMARK    1  A    between atoms: C_1  and  C_11
REMARK    2  A    between atoms: C_4  and  O_7
REMARK    3  A    between atoms: C_5  and  O_9
REMARK    4  A    between atoms: C_12  and  C_14
REMARK    5  A    between atoms: C_12  and  C_18
REMARK    6  A    between atoms: C_14  and  O_15
REMARK                            x       y       z     vdW  Elec       q    Type
REMARK                         _______ _______ _______ _____ _____    ______ ____
ROOT
ATOM      1  C   UNL     1     -35.862  24.235   4.156  0.00  0.00    +0.004 C 
ATOM      2  C   UNL     1     -35.961  23.083   3.376  0.00  0.00    +0.040 C 
ATOM      3  C   UNL     1     -35.524  24.135   5.506  0.00  0.00    +0.003 C 
ATOM      4  C   UNL     1     -35.721  21.831   3.945  0.00  0.00    +0.167 C 
ATOM      5  C   UNL     1     -35.384  21.733   5.295  0.00  0.00    +0.167 C 
ATOM      6  C   UNL     1     -35.286  22.885   6.076  0.00  0.00    +0.040 C 
ENDROOT
BRANCH   4   7
ATOM      7  O   UNL     1     -35.819  20.714   3.172  0.00  0.00    -0.503 OA
ATOM      8  H   UNL     1     -36.200  20.767   2.318  0.00  0.00    +0.292 HD
ENDBRANCH   4   7
BRANCH   5   9
ATOM      9  O   UNL     1     -35.146  20.518   5.862  0.00  0.00    -0.503 OA
ATOM     10  H   UNL     1     -35.602  20.267   6.642  0.00  0.00    +0.292 HD
ENDBRANCH   5   9
BRANCH   1  11
ATOM     11  C   UNL     1     -36.112  25.539   3.562  0.00  0.00    +0.017 C 
ATOM     12  C   UNL     1     -35.153  26.389   3.130  0.00  0.00    +0.144 C 
BRANCH  12  14
ATOM     13  O   UNL     1     -36.232  27.816   1.509  0.00  0.00    -0.244 OA
ATOM     14  C   UNL     1     -35.604  27.682   2.549  0.00  0.00    +0.348 C 
BRANCH  14  15
ATOM     15  O   UNL     1     -35.224  28.719   3.334  0.00  0.00    -0.477 OA
ATOM     16  H   UNL     1     -34.890  29.503   2.944  0.00  0.00    +0.295 HD
ENDBRANCH  14  15
ENDBRANCH  12  14
BRANCH  12  18
ATOM     17  N   UNL     1     -32.637  25.806   3.301  0.00  0.00    -0.191 NA
ATOM     18  C   UNL     1     -33.765  26.068   3.224  0.00  0.00    +0.107 C 
ENDBRANCH  12  18
ENDBRANCH   1  11
TORSDOF 6
ENDMDL
MODEL 5
REMARK VINA RESULT:      -5.3      3.316      4.955
REMARK  Name = 5328793
REMARK  6 active torsions:
REMARK  status: ('A' for Active; 'I' for Inactive)
REMARK    1  A    between atoms: C_1  and  C_11
REMARK    2  A    between atoms: C_4  and  O_7
REMARK    3  A    between atoms: C_5  and  O_9
REMARK    4  A    between atoms: C_12  and  C_14
REMARK    5  A    between atoms: C_12  and  C_18
REMARK    6  A    between atoms: C_14  and  O_15
REMARK                            x       y       z     vdW  Elec       q    Type
REMARK                         _______ _______ _______ _____ _____    ______ ____
ROOT
ATOM      1  C   UNL     1     -36.274  22.699   2.989  0.00  0.00    +0.004 C 
ATOM      2  C   UNL     1     -35.268  21.734   2.942  0.00  0.00    +0.040 C 
ATOM      3  C   UNL     1     -37.517  22.439   2.412  0.00  0.00    +0.003 C 
ATOM      4  C   UNL     1     -35.504  20.509   2.318  0.00  0.00    +0.167 C 
ATOM      5  C   UNL     1     -36.747  20.250   1.740  0.00  0.00    +0.167 C 
ATOM      6  C   UNL     1     -37.754  21.215   1.787  0.00  0.00    +0.040 C 
ENDROOT
BRANCH   4   7
ATOM      7  O   UNL     1     -34.514  19.575   2.279  0.00  0.00    -0.503 OA
ATOM      8  H   UNL     1     -34.672  18.711   2.605  0.00  0.00    +0.292 HD
ENDBRANCH   4   7
BRANCH   5   9
ATOM      9  O   UNL     1     -36.991  19.057   1.129  0.00  0.00    -0.503 OA
ATOM     10  H   UNL     1     -37.713  18.528   1.405  0.00  0.00    +0.292 HD
ENDBRANCH   5   9
BRANCH   1  11
ATOM     11  C   UNL     1     -36.027  23.976   3.641  0.00  0.00    +0.017 C 
ATOM     12  C   UNL     1     -35.773  24.136   4.959  0.00  0.00    +0.144 C 
BRANCH  12  14
ATOM     13  O   UNL     1     -34.504  25.951   5.920  0.00  0.00    -0.244 OA
ATOM     14  C   UNL     1     -35.545  25.525   5.442  0.00  0.00    +0.348 C 
BRANCH  14  15
ATOM     15  O   UNL     1     -36.661  26.277   5.284  0.00  0.00    -0.477 OA
ATOM     16  H   UNL     1     -36.595  27.211   5.257  0.00  0.00    +0.295 HD
ENDBRANCH  14  15
ENDBRANCH  12  14
BRANCH  12  18
ATOM     17  N   UNL     1     -35.683  22.124   6.585  0.00  0.00    -0.191 NA
ATOM     18  C   UNL     1     -35.724  23.027   5.856  0.00  0.00    +0.107 C 
ENDBRANCH  12  18
ENDBRANCH   1  11
TORSDOF 6
ENDMDL
MODEL 6
REMARK VINA RESULT:      -5.3      0.905      1.764
REMARK  Name = 5328793
REMARK  6 active torsions:
REMARK  status: ('A' for Active; 'I' for Inactive)
REMARK    1  A    between atoms: C_1  and  C_11
REMARK    2  A    between atoms: C_4  and  O_7
REMARK    3  A    between atoms: C_5  and  O_9
REMARK    4  A    between atoms: C_12  and  C_14
REMARK    5  A    between atoms: C_12  and  C_18
REMARK    6  A    between atoms: C_14  and  O_15
REMARK                            x       y       z     vdW  Elec       q    Type
REMARK                         _______ _______ _______ _____ _____    ______ ____
ROOT
ATOM      1  C   UNL     1     -35.045  25.149   5.264  0.00  0.00    +0.004 C 
ATOM      2  C   UNL     1     -34.796  23.777   5.299  0.00  0.00    +0.040 C 
ATOM      3  C   UNL     1     -36.159  25.638   4.583  0.00  0.00    +0.003 C 
ATOM      4  C   UNL     1     -35.661  22.894   4.653  0.00  0.00    +0.167 C 
ATOM      5  C   UNL     1     -36.775  23.384   3.970  0.00  0.00    +0.167 C 
ATOM      6  C   UNL     1     -37.024  24.756   3.935  0.00  0.00    +0.040 C 
ENDROOT
BRANCH   4   7
ATOM      7  O   UNL     1     -35.408  21.556   4.695  0.00  0.00    -0.503 OA
ATOM      8  H   UNL     1     -34.823  21.170   4.073  0.00  0.00    +0.292 HD
ENDBRANCH   4   7
BRANCH   5   9
ATOM      9  O   UNL     1     -37.628  22.532   3.337  0.00  0.00    -0.503 OA
ATOM     10  H   UNL     1     -37.299  21.754   2.933  0.00  0.00    +0.292 HD
ENDBRANCH   5   9
BRANCH   1  11
ATOM     11  C   UNL     1     -34.143  26.070   5.939  0.00  0.00    +0.017 C 
ATOM     12  C   UNL     1     -33.260  26.884   5.316  0.00  0.00    +0.144 C 
BRANCH  12  14
ATOM     13  O   UNL     1     -32.325  28.972   6.084  0.00  0.00    -0.244 OA
ATOM     14  C   UNL     1     -32.419  27.758   6.177  0.00  0.00    +0.348 C 
BRANCH  14  15
ATOM     15  O   UNL     1     -31.754  27.023   7.101  0.00  0.00    -0.477 OA
ATOM     16  H   UNL     1     -30.914  26.662   6.895  0.00  0.00    +0.295 HD
ENDBRANCH  14  15
ENDBRANCH  12  14
BRANCH  12  18
ATOM     17  N   UNL     1     -33.034  26.932   2.738  0.00  0.00    -0.191 NA
ATOM     18  C   UNL     1     -33.135  26.911   3.894  0.00  0.00    +0.107 C 
ENDBRANCH  12  18
ENDBRANCH   1  11
TORSDOF 6
ENDMDL
MODEL 7
REMARK VINA RESULT:      -5.2      3.131      5.979
REMARK  Name = 5328793
REMARK  6 active torsions:
REMARK  status: ('A' for Active; 'I' for Inactive)
REMARK    1  A    between atoms: C_1  and  C_11
REMARK    2  A    between atoms: C_4  and  O_7
REMARK    3  A    between atoms: C_5  and  O_9
REMARK    4  A    between atoms: C_12  and  C_14
REMARK    5  A    between atoms: C_12  and  C_18
REMARK    6  A    between atoms: C_14  and  O_15
REMARK                            x       y       z     vdW  Elec       q    Type
REMARK                         _______ _______ _______ _____ _____    ______ ____
ROOT
ATOM      1  C   UNL     1     -36.050  22.942   3.865  0.00  0.00    +0.004 C 
ATOM      2  C   UNL     1     -37.058  23.813   3.452  0.00  0.00    +0.040 C 
ATOM      3  C   UNL     1     -35.152  23.335   4.857  0.00  0.00    +0.003 C 
ATOM      4  C   UNL     1     -37.168  25.078   4.031  0.00  0.00    +0.167 C 
ATOM      5  C   UNL     1     -36.269  25.471   5.022  0.00  0.00    +0.167 C 
ATOM      6  C   UNL     1     -35.261  24.599   5.436  0.00  0.00    +0.040 C 
ENDROOT
BRANCH   4   7
ATOM      7  O   UNL     1     -38.157  25.919   3.619  0.00  0.00    -0.503 OA
ATOM      8  H   UNL     1     -38.850  26.150   4.206  0.00  0.00    +0.292 HD
ENDBRANCH   4   7
BRANCH   5   9
ATOM      9  O   UNL     1     -36.366  26.702   5.597  0.00  0.00    -0.503 OA
ATOM     10  H   UNL     1     -37.202  27.117   5.675  0.00  0.00    +0.292 HD
ENDBRANCH   5   9
BRANCH   1  11
ATOM     11  C   UNL     1     -35.936  21.623   3.261  0.00  0.00    +0.017 C 
ATOM     12  C   UNL     1     -35.309  21.359   2.092  0.00  0.00    +0.144 C 
BRANCH  12  14
ATOM     13  O   UNL     1     -34.312  19.327   1.254  0.00  0.00    -0.244 OA
ATOM     14  C   UNL     1     -35.296  19.944   1.634  0.00  0.00    +0.348 C 
BRANCH  14  15
ATOM     15  O   UNL     1     -36.540  19.409   1.692  0.00  0.00    -0.477 OA
ATOM     16  H   UNL     1     -36.673  18.576   2.100  0.00  0.00    +0.295 HD
ENDBRANCH  14  15
ENDBRANCH  12  14
BRANCH  12  18
ATOM     17  N   UNL     1     -34.177  23.225   0.700  0.00  0.00    -0.191 NA
ATOM     18  C   UNL     1     -34.685  22.388   1.324  0.00  0.00    +0.107 C 
ENDBRANCH  12  18
ENDBRANCH   1  11
TORSDOF 6
ENDMDL
MODEL 8
REMARK VINA RESULT:      -5.1      3.206      4.586
REMARK  Name = 5328793
REMARK  6 active torsions:
REMARK  status: ('A' for Active; 'I' for Inactive)
REMARK    1  A    between atoms: C_1  and  C_11
REMARK    2  A    between atoms: C_4  and  O_7
REMARK    3  A    between atoms: C_5  and  O_9
REMARK    4  A    between atoms: C_12  and  C_14
REMARK    5  A    between atoms: C_12  and  C_18
REMARK    6  A    between atoms: C_14  and  O_15
REMARK                            x       y       z     vdW  Elec       q    Type
REMARK                         _______ _______ _______ _____ _____    ______ ____
ROOT
ATOM      1  C   UNL     1     -35.213  22.969   2.866  0.00  0.00    +0.004 C 
ATOM      2  C   UNL     1     -35.872  21.789   3.212  0.00  0.00    +0.040 C 
ATOM      3  C   UNL     1     -34.757  23.156   1.561  0.00  0.00    +0.003 C 
ATOM      4  C   UNL     1     -36.075  20.797   2.253  0.00  0.00    +0.167 C 
ATOM      5  C   UNL     1     -35.618  20.984   0.948  0.00  0.00    +0.167 C 
ATOM      6  C   UNL     1     -34.959  22.164   0.602  0.00  0.00    +0.040 C 
ENDROOT
BRANCH   4   7
ATOM      7  O   UNL     1     -36.721  19.649   2.602  0.00  0.00    -0.503 OA
ATOM      8  H   UNL     1     -36.497  19.210   3.399  0.00  0.00    +0.292 HD
ENDBRANCH   4   7
BRANCH   5   9
ATOM      9  O   UNL     1     -35.812  20.024   0.002  0.00  0.00    -0.503 OA
ATOM     10  H   UNL     1     -36.311  20.217  -0.767  0.00  0.00    +0.292 HD
ENDBRANCH   5   9
BRANCH   1  11
ATOM     11  C   UNL     1     -35.001  24.004   3.866  0.00  0.00    +0.017 C 
ATOM     12  C   UNL     1     -35.967  24.814   4.359  0.00  0.00    +0.144 C 
BRANCH  12  14
ATOM     13  O   UNL     1     -34.460  25.879   5.915  0.00  0.00    -0.244 OA
ATOM     14  C   UNL     1     -35.556  25.815   5.380  0.00  0.00    +0.348 C 
BRANCH  14  15
ATOM     15  O   UNL     1     -36.574  26.668   5.651  0.00  0.00    -0.477 OA
ATOM     16  H   UNL     1     -36.843  27.294   5.008  0.00  0.00    +0.295 HD
ENDBRANCH  14  15
ENDBRANCH  12  14
BRANCH  12  18
ATOM     17  N   UNL     1     -38.426  24.641   3.569  0.00  0.00    -0.191 NA
ATOM     18  C   UNL     1     -37.322  24.719   3.923  0.00  0.00    +0.107 C 
ENDBRANCH  12  18
ENDBRANCH   1  11
TORSDOF 6
ENDMDL
MODEL 9
REMARK VINA RESULT:      -5.1      3.101      4.563
REMARK  Name = 5328793
REMARK  6 active torsions:
REMARK  status: ('A' for Active; 'I' for Inactive)
REMARK    1  A    between atoms: C_1  and  C_11
REMARK    2  A    between atoms: C_4  and  O_7
REMARK    3  A    between atoms: C_5  and  O_9
REMARK    4  A    between atoms: C_12  and  C_14
REMARK    5  A    between atoms: C_12  and  C_18
REMARK    6  A    between atoms: C_14  and  O_15
REMARK                            x       y       z     vdW  Elec       q    Type
REMARK                         _______ _______ _______ _____ _____    ______ ____
ROOT
ATOM      1  C   UNL     1     -37.617  23.939   3.115  0.00  0.00    +0.004 C 
ATOM      2  C   UNL     1     -37.110  22.674   2.820  0.00  0.00    +0.040 C 
ATOM      3  C   UNL     1     -38.967  24.217   2.897  0.00  0.00    +0.003 C 
ATOM      4  C   UNL     1     -37.951  21.686   2.307  0.00  0.00    +0.167 C 
ATOM      5  C   UNL     1     -39.301  21.966   2.088  0.00  0.00    +0.167 C 
ATOM      6  C   UNL     1     -39.809  23.231   2.384  0.00  0.00    +0.040 C 
ENDROOT
BRANCH   4   7
ATOM      7  O   UNL     1     -37.444  20.454   2.023  0.00  0.00    -0.503 OA
ATOM      8  H   UNL     1     -37.958  19.836   1.543  0.00  0.00    +0.292 HD
ENDBRANCH   4   7
BRANCH   5   9
ATOM      9  O   UNL     1     -40.133  21.010   1.590  0.00  0.00    -0.503 OA
ATOM     10  H   UNL     1     -39.839  20.124   1.517  0.00  0.00    +0.292 HD
ENDBRANCH   5   9
BRANCH   1  11
ATOM     11  C   UNL     1     -36.739  24.968   3.650  0.00  0.00    +0.017 C 
ATOM     12  C   UNL     1     -35.947  24.822   4.736  0.00  0.00    +0.144 C 
BRANCH  12  14
ATOM     13  O   UNL     1     -34.184  25.968   5.922  0.00  0.00    -0.244 OA
ATOM     14  C   UNL     1     -35.116  25.991   5.132  0.00  0.00    +0.348 C 
BRANCH  14  15
ATOM     15  O   UNL     1     -35.530  27.112   4.493  0.00  0.00    -0.477 OA
ATOM     16  H   UNL     1     -36.435  27.217   4.272  0.00  0.00    +0.295 HD
ENDBRANCH  14  15
ENDBRANCH  12  14
BRANCH  12  18
ATOM     17  N   UNL     1     -35.868  22.610   6.078  0.00  0.00    -0.191 NA
ATOM     18  C   UNL     1     -35.903  23.602   5.476  0.00  0.00    +0.107 C 
ENDBRANCH  12  18
ENDBRANCH   1  11
TORSDOF 6
ENDMDL
