MODEL 1
REMARK VINA RESULT:      -7.3      0.000      0.000
REMARK  Name = 21155445
REMARK  10 active torsions:
REMARK  status: ('A' for Active; 'I' for Inactive)
REMARK    1  A    between atoms: C_6  and  C_24
REMARK    2  A    between atoms: C_10  and  O_20
REMARK    3  A    between atoms: C_19  and  O_22
REMARK    4  A    between atoms: C_24  and  C_26
REMARK    5  A    between atoms: C_26  and  C_27
REMARK    6  A    between atoms: C_27  and  C_30
REMARK    7  A    between atoms: N_29  and  C_32
REMARK    8  A    between atoms: C_32  and  C_34
REMARK    9  A    between atoms: C_34  and  C_36
REMARK   10  A    between atoms: C_36  and  O_37
REMARK                            x       y       z     vdW  Elec       q    Type
REMARK                         _______ _______ _______ _____ _____    ______ ____
ROOT
ATOM      1  C   UNL     1     -37.154  21.672   1.836  0.00  0.00    +0.002 C 
ATOM      2  C   UNL     1     -35.802  21.910   2.541  0.00  0.00    +0.000 C 
ATOM      3  C   UNL     1     -37.005  21.055   0.438  0.00  0.00    +0.027 C 
ATOM      4  C   UNL     1     -36.273  19.677   0.576  0.00  0.00    +0.002 C 
ATOM      5  C   UNL     1     -36.079  18.976  -0.822  0.00  0.00    +0.000 C 
ATOM      6  C   UNL     1     -36.313  22.577   3.842  0.00  0.00    +0.000 C 
ATOM      7  C   UNL     1     -37.472  18.822  -1.520  0.00  0.00    +0.005 C 
ATOM      8  C   UNL     1     -35.137  20.541   2.741  0.00  0.00    +0.000 C 
ATOM      9  C   UNL     1     -34.964  19.794   1.408  0.00  0.00    +0.000 C 
ATOM     10  C   UNL     1     -38.357  20.919  -0.289  0.00  0.00    +0.110 C 
ATOM     11  C   UNL     1     -37.871  23.012   1.976  0.00  0.00    +0.000 C 
ATOM     12  C   UNL     1     -37.416  23.542   3.348  0.00  0.00    +0.000 C 
ATOM     13  C   UNL     1     -38.234  20.160  -1.613  0.00  0.00    +0.029 C 
ATOM     14  C   UNL     1     -35.423  17.569  -0.702  0.00  0.00    +0.002 C 
ATOM     15  C   UNL     1     -34.841  22.851   1.774  0.00  0.00    +0.000 C 
ATOM     16  C   UNL     1     -38.348  17.726  -0.877  0.00  0.00    +0.029 C 
ATOM     17  C   UNL     1     -35.138  19.804  -1.739  0.00  0.00    +0.000 C 
ATOM     18  C   UNL     1     -36.309  16.523  -0.038  0.00  0.00    +0.029 C 
ATOM     19  C   UNL     1     -37.629  16.384  -0.785  0.00  0.00    +0.111 C 
ENDROOT
BRANCH  10  20
ATOM     20  O   UNL     1     -39.312  20.285   0.555  0.00  0.00    -0.384 OA
ATOM     21  H   UNL     1     -38.960  20.230   1.457  0.00  0.00    +0.210 HD
ENDBRANCH  10  20
BRANCH  19  22
ATOM     22  O   UNL     1     -38.447  15.449  -0.088  0.00  0.00    -0.384 OA
ATOM     23  H   UNL     1     -37.995  15.168   0.723  0.00  0.00    +0.210 HD
ENDBRANCH  19  22
BRANCH   6  24
ATOM     24  C   UNL     1     -35.270  23.264   4.712  0.00  0.00    +0.000 C 
ATOM     25  C   UNL     1     -35.128  22.520   6.046  0.00  0.00    +0.000 C 
BRANCH  24  26
ATOM     26  C   UNL     1     -35.605  24.745   4.986  0.00  0.00    +0.010 C 
BRANCH  26  27
ATOM     27  C   UNL     1     -34.454  25.517   5.632  0.00  0.00    +0.085 C 
BRANCH  27  30
ATOM     28  O   UNL     1     -33.129  25.641   3.609  0.00  0.00    -0.275 OA
ATOM     29  N   UNL     1     -33.349  27.536   4.937  0.00  0.00    -0.301 N 
ATOM     30  C   UNL     1     -33.573  26.207   4.605  0.00  0.00    +0.223 C 
ATOM     31  H   UNL     1     -33.755  27.887   5.762  0.00  0.00    +0.150 HD
BRANCH  29  32
ATOM     32  C   UNL     1     -32.550  28.427   4.129  0.00  0.00    +0.137 C 
BRANCH  32  34
ATOM     33  F   UNL     1     -30.257  28.067   4.347  0.00  0.00    -0.223 F 
ATOM     34  C   UNL     1     -31.274  28.828   4.848  0.00  0.00    +0.278 C 
BRANCH  34  36
ATOM     35  O   UNL     1     -31.860  29.426   7.114  0.00  0.00    -0.247 OA
ATOM     36  C   UNL     1     -31.394  28.605   6.335  0.00  0.00    +0.349 C 
BRANCH  36  37
ATOM     37  O   UNL     1     -30.916  27.397   6.723  0.00  0.00    -0.478 OA
ATOM     38  H   UNL     1     -31.082  26.637   6.199  0.00  0.00    +0.295 HD
ENDBRANCH  36  37
ENDBRANCH  34  36
ENDBRANCH  32  34
ENDBRANCH  29  32
ENDBRANCH  27  30
ENDBRANCH  26  27
ENDBRANCH  24  26
ENDBRANCH   6  24
TORSDOF 10
ENDMDL
MODEL 2
REMARK VINA RESULT:      -7.3      1.922      2.769
REMARK  Name = 21155445
REMARK  10 active torsions:
REMARK  status: ('A' for Active; 'I' for Inactive)
REMARK    1  A    between atoms: C_6  and  C_24
REMARK    2  A    between atoms: C_10  and  O_20
REMARK    3  A    between atoms: C_19  and  O_22
REMARK    4  A    between atoms: C_24  and  C_26
REMARK    5  A    between atoms: C_26  and  C_27
REMARK    6  A    between atoms: C_27  and  C_30
REMARK    7  A    between atoms: N_29  and  C_32
REMARK    8  A    between atoms: C_32  and  C_34
REMARK    9  A    between atoms: C_34  and  C_36
REMARK   10  A    between atoms: C_36  and  O_37
REMARK                            x       y       z     vdW  Elec       q    Type
REMARK                         _______ _______ _______ _____ _____    ______ ____
ROOT
ATOM      1  C   UNL     1     -37.203  21.644   1.702  0.00  0.00    +0.002 C 
ATOM      2  C   UNL     1     -35.877  21.922   2.443  0.00  0.00    +0.000 C 
ATOM      3  C   UNL     1     -37.001  20.974   0.335  0.00  0.00    +0.027 C 
ATOM      4  C   UNL     1     -36.264  19.609   0.553  0.00  0.00    +0.002 C 
ATOM      5  C   UNL     1     -36.017  18.855  -0.808  0.00  0.00    +0.000 C 
ATOM      6  C   UNL     1     -36.438  22.636   3.698  0.00  0.00    +0.000 C 
ATOM      7  C   UNL     1     -37.384  18.661  -1.547  0.00  0.00    +0.005 C 
ATOM      8  C   UNL     1     -35.210  20.568   2.720  0.00  0.00    +0.000 C 
ATOM      9  C   UNL     1     -34.985  19.770   1.424  0.00  0.00    +0.000 C 
ATOM     10  C   UNL     1     -38.326  20.798  -0.431  0.00  0.00    +0.110 C 
ATOM     11  C   UNL     1     -37.933  22.983   1.764  0.00  0.00    +0.000 C 
ATOM     12  C   UNL     1     -37.530  23.571   3.129  0.00  0.00    +0.000 C 
ATOM     13  C   UNL     1     -38.152  19.988  -1.719  0.00  0.00    +0.029 C 
ATOM     14  C   UNL     1     -35.355  17.460  -0.610  0.00  0.00    +0.002 C 
ATOM     15  C   UNL     1     -34.898  22.840   1.672  0.00  0.00    +0.000 C 
ATOM     16  C   UNL     1     -38.274  17.584  -0.891  0.00  0.00    +0.029 C 
ATOM     17  C   UNL     1     -35.051  19.654  -1.724  0.00  0.00    +0.000 C 
ATOM     18  C   UNL     1     -36.256  16.433   0.064  0.00  0.00    +0.029 C 
ATOM     19  C   UNL     1     -37.549  16.253  -0.721  0.00  0.00    +0.111 C 
ENDROOT
BRANCH  10  20
ATOM     20  O   UNL     1     -39.305  20.189   0.404  0.00  0.00    -0.384 OA
ATOM     21  H   UNL     1     -38.929  19.396   0.817  0.00  0.00    +0.210 HD
ENDBRANCH  10  20
BRANCH  19  22
ATOM     22  O   UNL     1     -38.383  15.340  -0.016  0.00  0.00    -0.384 OA
ATOM     23  H   UNL     1     -39.244  15.283  -0.458  0.00  0.00    +0.210 HD
ENDBRANCH  19  22
BRANCH   6  24
ATOM     24  C   UNL     1     -35.431  23.365   4.575  0.00  0.00    +0.000 C 
ATOM     25  C   UNL     1     -35.185  22.571   5.864  0.00  0.00    +0.000 C 
BRANCH  24  26
ATOM     26  C   UNL     1     -35.880  24.796   4.935  0.00  0.00    +0.010 C 
BRANCH  26  27
ATOM     27  C   UNL     1     -34.789  25.622   5.616  0.00  0.00    +0.085 C 
BRANCH  27  30
ATOM     28  O   UNL     1     -32.874  26.606   4.507  0.00  0.00    -0.275 OA
ATOM     29  N   UNL     1     -35.006  27.360   3.969  0.00  0.00    -0.301 N 
ATOM     30  C   UNL     1     -34.093  26.568   4.652  0.00  0.00    +0.223 C 
ATOM     31  H   UNL     1     -35.963  27.246   4.164  0.00  0.00    +0.150 HD
BRANCH  29  32
ATOM     32  C   UNL     1     -34.616  28.343   2.985  0.00  0.00    +0.137 C 
BRANCH  32  34
ATOM     33  F   UNL     1     -36.414  29.376   1.917  0.00  0.00    -0.223 F 
ATOM     34  C   UNL     1     -35.552  28.324   1.788  0.00  0.00    +0.278 C 
BRANCH  34  36
ATOM     35  O   UNL     1     -35.902  26.004   1.216  0.00  0.00    -0.247 OA
ATOM     36  C   UNL     1     -36.328  27.033   1.724  0.00  0.00    +0.349 C 
BRANCH  36  37
ATOM     37  O   UNL     1     -37.560  27.134   2.279  0.00  0.00    -0.478 OA
ATOM     38  H   UNL     1     -37.931  27.979   2.447  0.00  0.00    +0.295 HD
ENDBRANCH  36  37
ENDBRANCH  34  36
ENDBRANCH  32  34
ENDBRANCH  29  32
ENDBRANCH  27  30
ENDBRANCH  26  27
ENDBRANCH  24  26
ENDBRANCH   6  24
TORSDOF 10
ENDMDL
MODEL 3
REMARK VINA RESULT:      -7.0      1.385      1.542
REMARK  Name = 21155445
REMARK  10 active torsions:
REMARK  status: ('A' for Active; 'I' for Inactive)
REMARK    1  A    between atoms: C_6  and  C_24
REMARK    2  A    between atoms: C_10  and  O_20
REMARK    3  A    between atoms: C_19  and  O_22
REMARK    4  A    between atoms: C_24  and  C_26
REMARK    5  A    between atoms: C_26  and  C_27
REMARK    6  A    between atoms: C_27  and  C_30
REMARK    7  A    between atoms: N_29  and  C_32
REMARK    8  A    between atoms: C_32  and  C_34
REMARK    9  A    between atoms: C_34  and  C_36
REMARK   10  A    between atoms: C_36  and  O_37
REMARK                            x       y       z     vdW  Elec       q    Type
REMARK                         _______ _______ _______ _____ _____    ______ ____
ROOT
ATOM      1  C   UNL     1     -37.163  21.706   1.769  0.00  0.00    +0.002 C 
ATOM      2  C   UNL     1     -35.805  21.962   2.457  0.00  0.00    +0.000 C 
ATOM      3  C   UNL     1     -37.024  21.063   0.381  0.00  0.00    +0.027 C 
ATOM      4  C   UNL     1     -36.287  19.689   0.540  0.00  0.00    +0.002 C 
ATOM      5  C   UNL     1     -36.104  18.961  -0.846  0.00  0.00    +0.000 C 
ATOM      6  C   UNL     1     -36.307  22.653   3.749  0.00  0.00    +0.000 C 
ATOM      7  C   UNL     1     -37.502  18.790  -1.528  0.00  0.00    +0.005 C 
ATOM      8  C   UNL     1     -35.135  20.599   2.678  0.00  0.00    +0.000 C 
ATOM      9  C   UNL     1     -34.971  19.826   1.358  0.00  0.00    +0.000 C 
ATOM     10  C   UNL     1     -38.382  20.909  -0.331  0.00  0.00    +0.110 C 
ATOM     11  C   UNL     1     -37.881  23.048   1.888  0.00  0.00    +0.000 C 
ATOM     12  C   UNL     1     -37.416  23.605   3.246  0.00  0.00    +0.000 C 
ATOM     13  C   UNL     1     -38.268  20.124  -1.640  0.00  0.00    +0.029 C 
ATOM     14  C   UNL     1     -35.443  17.559  -0.703  0.00  0.00    +0.002 C 
ATOM     15  C   UNL     1     -34.853  22.889   1.663  0.00  0.00    +0.000 C 
ATOM     16  C   UNL     1     -38.370  17.705  -0.856  0.00  0.00    +0.029 C 
ATOM     17  C   UNL     1     -35.173  19.773  -1.786  0.00  0.00    +0.000 C 
ATOM     18  C   UNL     1     -36.321  16.524  -0.012  0.00  0.00    +0.029 C 
ATOM     19  C   UNL     1     -37.647  16.367  -0.743  0.00  0.00    +0.111 C 
ENDROOT
BRANCH  10  20
ATOM     20  O   UNL     1     -39.328  20.289   0.534  0.00  0.00    -0.384 OA
ATOM     21  H   UNL     1     -39.410  20.808   1.349  0.00  0.00    +0.210 HD
ENDBRANCH  10  20
BRANCH  19  22
ATOM     22  O   UNL     1     -38.456  15.444  -0.021  0.00  0.00    -0.384 OA
ATOM     23  H   UNL     1     -39.330  15.387  -0.438  0.00  0.00    +0.210 HD
ENDBRANCH  19  22
BRANCH   6  24
ATOM     24  C   UNL     1     -35.258  23.359   4.596  0.00  0.00    +0.000 C 
ATOM     25  C   UNL     1     -35.122  22.660   5.954  0.00  0.00    +0.000 C 
BRANCH  24  26
ATOM     26  C   UNL     1     -35.579  24.851   4.820  0.00  0.00    +0.010 C 
BRANCH  26  27
ATOM     27  C   UNL     1     -34.520  25.793   4.247  0.00  0.00    +0.085 C 
BRANCH  27  30
ATOM     28  O   UNL     1     -33.799  26.214   6.520  0.00  0.00    -0.275 OA
ATOM     29  N   UNL     1     -32.991  27.561   4.808  0.00  0.00    -0.301 N 
ATOM     30  C   UNL     1     -33.748  26.524   5.333  0.00  0.00    +0.223 C 
ATOM     31  H   UNL     1     -33.024  27.722   3.837  0.00  0.00    +0.150 HD
BRANCH  29  32
ATOM     32  C   UNL     1     -32.154  28.416   5.618  0.00  0.00    +0.137 C 
BRANCH  32  34
ATOM     33  F   UNL     1     -32.425  30.711   5.929  0.00  0.00    -0.223 F 
ATOM     34  C   UNL     1     -32.017  29.797   5.000  0.00  0.00    +0.278 C 
BRANCH  34  36
ATOM     35  O   UNL     1     -34.038  30.247   3.757  0.00  0.00    -0.247 OA
ATOM     36  C   UNL     1     -32.858  29.923   3.755  0.00  0.00    +0.349 C 
BRANCH  36  37
ATOM     37  O   UNL     1     -32.170  29.622   2.626  0.00  0.00    -0.478 OA
ATOM     38  H   UNL     1     -32.356  30.079   1.829  0.00  0.00    +0.295 HD
ENDBRANCH  36  37
ENDBRANCH  34  36
ENDBRANCH  32  34
ENDBRANCH  29  32
ENDBRANCH  27  30
ENDBRANCH  26  27
ENDBRANCH  24  26
ENDBRANCH   6  24
TORSDOF 10
ENDMDL
MODEL 4
REMARK VINA RESULT:      -6.6      6.326      8.344
REMARK  Name = 21155445
REMARK  10 active torsions:
REMARK  status: ('A' for Active; 'I' for Inactive)
REMARK    1  A    between atoms: C_6  and  C_24
REMARK    2  A    between atoms: C_10  and  O_20
REMARK    3  A    between atoms: C_19  and  O_22
REMARK    4  A    between atoms: C_24  and  C_26
REMARK    5  A    between atoms: C_26  and  C_27
REMARK    6  A    between atoms: C_27  and  C_30
REMARK    7  A    between atoms: N_29  and  C_32
REMARK    8  A    between atoms: C_32  and  C_34
REMARK    9  A    between atoms: C_34  and  C_36
REMARK   10  A    between atoms: C_36  and  O_37
REMARK                            x       y       z     vdW  Elec       q    Type
REMARK                         _______ _______ _______ _____ _____    ______ ____
ROOT
ATOM      1  C   UNL     1     -39.237  23.475   1.313  0.00  0.00    +0.002 C 
ATOM      2  C   UNL     1     -39.774  24.887   1.630  0.00  0.00    +0.000 C 
ATOM      3  C   UNL     1     -37.705  23.382   1.382  0.00  0.00    +0.027 C 
ATOM      4  C   UNL     1     -37.247  23.770   2.829  0.00  0.00    +0.002 C 
ATOM      5  C   UNL     1     -35.680  23.701   2.983  0.00  0.00    +0.000 C 
ATOM      6  C   UNL     1     -41.286  24.633   1.406  0.00  0.00    +0.000 C 
ATOM      7  C   UNL     1     -35.184  22.271   2.584  0.00  0.00    +0.005 C 
ATOM      8  C   UNL     1     -39.386  25.214   3.078  0.00  0.00    +0.000 C 
ATOM      9  C   UNL     1     -37.866  25.119   3.294  0.00  0.00    +0.000 C 
ATOM     10  C   UNL     1     -37.183  21.995   0.964  0.00  0.00    +0.110 C 
ATOM     11  C   UNL     1     -39.937  23.111   0.006  0.00  0.00    +0.000 C 
ATOM     12  C   UNL     1     -41.326  23.766   0.128  0.00  0.00    +0.000 C 
ATOM     13  C   UNL     1     -35.675  21.848   1.185  0.00  0.00    +0.029 C 
ATOM     14  C   UNL     1     -35.206  24.007   4.434  0.00  0.00    +0.002 C 
ATOM     15  C   UNL     1     -39.250  25.994   0.684  0.00  0.00    +0.000 C 
ATOM     16  C   UNL     1     -35.528  21.199   3.641  0.00  0.00    +0.029 C 
ATOM     17  C   UNL     1     -34.981  24.753   2.081  0.00  0.00    +0.000 C 
ATOM     18  C   UNL     1     -35.587  22.939   5.452  0.00  0.00    +0.029 C 
ATOM     19  C   UNL     1     -35.041  21.580   5.036  0.00  0.00    +0.111 C 
ENDROOT
BRANCH  10  20
ATOM     20  O   UNL     1     -37.884  20.971   1.662  0.00  0.00    -0.384 OA
ATOM     21  H   UNL     1     -38.701  20.756   1.185  0.00  0.00    +0.210 HD
ENDBRANCH  10  20
BRANCH  19  22
ATOM     22  O   UNL     1     -35.481  20.607   5.979  0.00  0.00    -0.384 OA
ATOM     23  H   UNL     1     -35.040  20.760   6.829  0.00  0.00    +0.210 HD
ENDBRANCH  19  22
BRANCH   6  24
ATOM     24  C   UNL     1     -42.178  25.863   1.317  0.00  0.00    +0.000 C 
ATOM     25  C   UNL     1     -42.058  26.498  -0.074  0.00  0.00    +0.000 C 
BRANCH  24  26
ATOM     26  C   UNL     1     -41.844  26.920   2.390  0.00  0.00    +0.010 C 
BRANCH  26  27
ATOM     27  C   UNL     1     -42.695  26.791   3.653  0.00  0.00    +0.085 C 
BRANCH  27  30
ATOM     28  O   UNL     1     -42.045  28.906   4.636  0.00  0.00    -0.275 OA
ATOM     29  N   UNL     1     -44.300  28.358   4.518  0.00  0.00    -0.301 N 
ATOM     30  C   UNL     1     -42.945  28.133   4.322  0.00  0.00    +0.223 C 
ATOM     31  H   UNL     1     -44.938  27.668   4.227  0.00  0.00    +0.150 HD
BRANCH  29  32
ATOM     32  C   UNL     1     -44.820  29.561   5.127  0.00  0.00    +0.137 C 
BRANCH  32  34
ATOM     33  F   UNL     1     -46.168  29.708   7.024  0.00  0.00    -0.223 F 
ATOM     34  C   UNL     1     -44.889  29.426   6.639  0.00  0.00    +0.278 C 
BRANCH  34  36
ATOM     35  O   UNL     1     -43.999  30.689   8.495  0.00  0.00    -0.247 OA
ATOM     36  C   UNL     1     -43.931  30.373   7.314  0.00  0.00    +0.349 C 
BRANCH  36  37
ATOM     37  O   UNL     1     -42.987  30.854   6.468  0.00  0.00    -0.478 OA
ATOM     38  H   UNL     1     -42.685  31.738   6.556  0.00  0.00    +0.295 HD
ENDBRANCH  36  37
ENDBRANCH  34  36
ENDBRANCH  32  34
ENDBRANCH  29  32
ENDBRANCH  27  30
ENDBRANCH  26  27
ENDBRANCH  24  26
ENDBRANCH   6  24
TORSDOF 10
ENDMDL
MODEL 5
REMARK VINA RESULT:      -6.3      4.112      5.878
REMARK  Name = 21155445
REMARK  10 active torsions:
REMARK  status: ('A' for Active; 'I' for Inactive)
REMARK    1  A    between atoms: C_6  and  C_24
REMARK    2  A    between atoms: C_10  and  O_20
REMARK    3  A    between atoms: C_19  and  O_22
REMARK    4  A    between atoms: C_24  and  C_26
REMARK    5  A    between atoms: C_26  and  C_27
REMARK    6  A    between atoms: C_27  and  C_30
REMARK    7  A    between atoms: N_29  and  C_32
REMARK    8  A    between atoms: C_32  and  C_34
REMARK    9  A    between atoms: C_34  and  C_36
REMARK   10  A    between atoms: C_36  and  O_37
REMARK                            x       y       z     vdW  Elec       q    Type
REMARK                         _______ _______ _______ _____ _____    ______ ____
ROOT
ATOM      1  C   UNL     1     -33.428  19.984   0.754  0.00  0.00    +0.002 C 
ATOM      2  C   UNL     1     -33.736  21.313   0.033  0.00  0.00    +0.000 C 
ATOM      3  C   UNL     1     -32.539  19.042  -0.071  0.00  0.00    +0.027 C 
ATOM      4  C   UNL     1     -31.182  19.768  -0.365  0.00  0.00    +0.002 C 
ATOM      5  C   UNL     1     -30.208  18.865  -1.213  0.00  0.00    +0.000 C 
ATOM      6  C   UNL     1     -34.674  21.956   1.086  0.00  0.00    +0.000 C 
ATOM      7  C   UNL     1     -29.985  17.505  -0.469  0.00  0.00    +0.005 C 
ATOM      8  C   UNL     1     -32.405  22.047  -0.172  0.00  0.00    +0.000 C 
ATOM      9  C   UNL     1     -31.399  21.189  -0.959  0.00  0.00    +0.000 C 
ATOM     10  C   UNL     1     -32.326  17.682   0.621  0.00  0.00    +0.110 C 
ATOM     11  C   UNL     1     -34.802  19.492   1.201  0.00  0.00    +0.000 C 
ATOM     12  C   UNL     1     -35.573  20.782   1.539  0.00  0.00    +0.000 C 
ATOM     13  C   UNL     1     -31.313  16.803  -0.118  0.00  0.00    +0.029 C 
ATOM     14  C   UNL     1     -28.823  19.536  -1.452  0.00  0.00    +0.002 C 
ATOM     15  C   UNL     1     -34.458  21.147  -1.326  0.00  0.00    +0.000 C 
ATOM     16  C   UNL     1     -29.083  17.643   0.777  0.00  0.00    +0.029 C 
ATOM     17  C   UNL     1     -30.790  18.584  -2.624  0.00  0.00    +0.000 C 
ATOM     18  C   UNL     1     -27.975  19.677  -0.195  0.00  0.00    +0.029 C 
ATOM     19  C   UNL     1     -27.754  18.320   0.461  0.00  0.00    +0.111 C 
ENDROOT
BRANCH  10  20
ATOM     20  O   UNL     1     -31.919  17.871   1.972  0.00  0.00    -0.384 OA
ATOM     21  H   UNL     1     -32.287  18.704   2.307  0.00  0.00    +0.210 HD
ENDBRANCH  10  20
BRANCH  19  22
ATOM     22  O   UNL     1     -27.017  18.513   1.664  0.00  0.00    -0.384 OA
ATOM     23  H   UNL     1     -26.312  19.161   1.509  0.00  0.00    +0.210 HD
ENDBRANCH  19  22
BRANCH   6  24
ATOM     24  C   UNL     1     -35.468  23.174   0.639  0.00  0.00    +0.000 C 
ATOM     25  C   UNL     1     -34.678  24.454   0.935  0.00  0.00    +0.000 C 
BRANCH  24  26
ATOM     26  C   UNL     1     -36.854  23.261   1.313  0.00  0.00    +0.010 C 
BRANCH  26  27
ATOM     27  C   UNL     1     -37.051  24.539   2.129  0.00  0.00    +0.085 C 
BRANCH  27  30
ATOM     28  O   UNL     1     -36.866  23.286   4.193  0.00  0.00    -0.275 OA
ATOM     29  N   UNL     1     -36.185  25.508   4.152  0.00  0.00    -0.301 N 
ATOM     30  C   UNL     1     -36.704  24.347   3.596  0.00  0.00    +0.223 C 
ATOM     31  H   UNL     1     -36.099  26.304   3.579  0.00  0.00    +0.150 HD
BRANCH  29  32
ATOM     32  C   UNL     1     -35.764  25.603   5.530  0.00  0.00    +0.137 C 
BRANCH  32  34
ATOM     33  F   UNL     1     -33.992  26.530   6.729  0.00  0.00    -0.223 F 
ATOM     34  C   UNL     1     -34.256  25.756   5.636  0.00  0.00    +0.278 C 
BRANCH  34  36
ATOM     35  O   UNL     1     -32.916  25.850   3.628  0.00  0.00    -0.247 OA
ATOM     36  C   UNL     1     -33.687  26.406   4.400  0.00  0.00    +0.349 C 
BRANCH  36  37
ATOM     37  O   UNL     1     -34.111  27.683   4.238  0.00  0.00    -0.478 OA
ATOM     38  H   UNL     1     -33.501  28.350   3.984  0.00  0.00    +0.295 HD
ENDBRANCH  36  37
ENDBRANCH  34  36
ENDBRANCH  32  34
ENDBRANCH  29  32
ENDBRANCH  27  30
ENDBRANCH  26  27
ENDBRANCH  24  26
ENDBRANCH   6  24
TORSDOF 10
ENDMDL
MODEL 6
REMARK VINA RESULT:      -6.3      3.487     10.207
REMARK  Name = 21155445
REMARK  10 active torsions:
REMARK  status: ('A' for Active; 'I' for Inactive)
REMARK    1  A    between atoms: C_6  and  C_24
REMARK    2  A    between atoms: C_10  and  O_20
REMARK    3  A    between atoms: C_19  and  O_22
REMARK    4  A    between atoms: C_24  and  C_26
REMARK    5  A    between atoms: C_26  and  C_27
REMARK    6  A    between atoms: C_27  and  C_30
REMARK    7  A    between atoms: N_29  and  C_32
REMARK    8  A    between atoms: C_32  and  C_34
REMARK    9  A    between atoms: C_34  and  C_36
REMARK   10  A    between atoms: C_36  and  O_37
REMARK                            x       y       z     vdW  Elec       q    Type
REMARK                         _______ _______ _______ _____ _____    ______ ____
ROOT
ATOM      1  C   UNL     1     -32.990  25.934   3.470  0.00  0.00    +0.002 C 
ATOM      2  C   UNL     1     -34.160  25.807   4.469  0.00  0.00    +0.000 C 
ATOM      3  C   UNL     1     -32.430  27.361   3.375  0.00  0.00    +0.027 C 
ATOM      4  C   UNL     1     -31.916  27.790   4.792  0.00  0.00    +0.002 C 
ATOM      5  C   UNL     1     -31.324  29.250   4.780  0.00  0.00    +0.000 C 
ATOM      6  C   UNL     1     -34.504  24.311   4.260  0.00  0.00    +0.000 C 
ATOM      7  C   UNL     1     -30.190  29.339   3.704  0.00  0.00    +0.005 C 
ATOM      8  C   UNL     1     -33.618  26.152   5.862  0.00  0.00    +0.000 C 
ATOM      9  C   UNL     1     -32.987  27.554   5.895  0.00  0.00    +0.000 C 
ATOM     10  C   UNL     1     -31.333  27.489   2.301  0.00  0.00    +0.110 C 
ATOM     11  C   UNL     1     -33.527  25.269   2.205  0.00  0.00    +0.000 C 
ATOM     12  C   UNL     1     -34.417  24.127   2.728  0.00  0.00    +0.000 C 
ATOM     13  C   UNL     1     -30.662  28.864   2.314  0.00  0.00    +0.029 C 
ATOM     14  C   UNL     1     -30.737  29.670   6.159  0.00  0.00    +0.002 C 
ATOM     15  C   UNL     1     -35.376  26.708   4.143  0.00  0.00    +0.000 C 
ATOM     16  C   UNL     1     -28.898  28.612   4.131  0.00  0.00    +0.029 C 
ATOM     17  C   UNL     1     -32.422  30.298   4.452  0.00  0.00    +0.000 C 
ATOM     18  C   UNL     1     -29.477  28.911   6.557  0.00  0.00    +0.029 C 
ATOM     19  C   UNL     1     -28.395  29.070   5.496  0.00  0.00    +0.111 C 
ENDROOT
BRANCH  10  20
ATOM     20  O   UNL     1     -30.358  26.464   2.464  0.00  0.00    -0.384 OA
ATOM     21  H   UNL     1     -30.011  26.207   1.596  0.00  0.00    +0.210 HD
ENDBRANCH  10  20
BRANCH  19  22
ATOM     22  O   UNL     1     -27.268  28.289   5.879  0.00  0.00    -0.384 OA
ATOM     23  H   UNL     1     -27.471  27.810   6.698  0.00  0.00    +0.210 HD
ENDBRANCH  19  22
BRANCH   6  24
ATOM     24  C   UNL     1     -35.825  23.827   4.842  0.00  0.00    +0.000 C 
ATOM     25  C   UNL     1     -35.564  22.849   5.994  0.00  0.00    +0.000 C 
BRANCH  24  26
ATOM     26  C   UNL     1     -36.726  23.148   3.790  0.00  0.00    +0.010 C 
BRANCH  26  27
ATOM     27  C   UNL     1     -37.871  24.039   3.307  0.00  0.00    +0.085 C 
BRANCH  27  30
ATOM     28  O   UNL     1     -39.641  23.931   1.658  0.00  0.00    -0.275 OA
ATOM     29  N   UNL     1     -38.173  22.141   1.861  0.00  0.00    -0.301 N 
ATOM     30  C   UNL     1     -38.675  23.392   2.191  0.00  0.00    +0.223 C 
ATOM     31  H   UNL     1     -37.391  21.805   2.355  0.00  0.00    +0.150 HD
BRANCH  29  32
ATOM     32  C   UNL     1     -38.743  21.310   0.827  0.00  0.00    +0.137 C 
BRANCH  32  34
ATOM     33  F   UNL     1     -38.327  19.144   0.070  0.00  0.00    -0.223 F 
ATOM     34  C   UNL     1     -37.712  20.347   0.263  0.00  0.00    +0.278 C 
BRANCH  34  36
ATOM     35  O   UNL     1     -35.429  20.630   1.000  0.00  0.00    -0.247 OA
ATOM     36  C   UNL     1     -36.549  20.182   1.208  0.00  0.00    +0.349 C 
BRANCH  36  37
ATOM     37  O   UNL     1     -36.871  19.466   2.314  0.00  0.00    -0.478 OA
ATOM     38  H   UNL     1     -36.210  19.256   2.945  0.00  0.00    +0.295 HD
ENDBRANCH  36  37
ENDBRANCH  34  36
ENDBRANCH  32  34
ENDBRANCH  29  32
ENDBRANCH  27  30
ENDBRANCH  26  27
ENDBRANCH  24  26
ENDBRANCH   6  24
TORSDOF 10
ENDMDL
MODEL 7
REMARK VINA RESULT:      -6.2      3.447     10.363
REMARK  Name = 21155445
REMARK  10 active torsions:
REMARK  status: ('A' for Active; 'I' for Inactive)
REMARK    1  A    between atoms: C_6  and  C_24
REMARK    2  A    between atoms: C_10  and  O_20
REMARK    3  A    between atoms: C_19  and  O_22
REMARK    4  A    between atoms: C_24  and  C_26
REMARK    5  A    between atoms: C_26  and  C_27
REMARK    6  A    between atoms: C_27  and  C_30
REMARK    7  A    between atoms: N_29  and  C_32
REMARK    8  A    between atoms: C_32  and  C_34
REMARK    9  A    between atoms: C_34  and  C_36
REMARK   10  A    between atoms: C_36  and  O_37
REMARK                            x       y       z     vdW  Elec       q    Type
REMARK                         _______ _______ _______ _____ _____    ______ ____
ROOT
ATOM      1  C   UNL     1     -33.074  26.169   3.488  0.00  0.00    +0.002 C 
ATOM      2  C   UNL     1     -34.148  25.828   4.543  0.00  0.00    +0.000 C 
ATOM      3  C   UNL     1     -32.622  27.635   3.539  0.00  0.00    +0.027 C 
ATOM      4  C   UNL     1     -32.026  27.924   4.960  0.00  0.00    +0.002 C 
ATOM      5  C   UNL     1     -31.538  29.416   5.095  0.00  0.00    +0.000 C 
ATOM      6  C   UNL     1     -34.405  24.347   4.167  0.00  0.00    +0.000 C 
ATOM      7  C   UNL     1     -30.503  29.726   3.962  0.00  0.00    +0.005 C 
ATOM      8  C   UNL     1     -33.520  26.038   5.927  0.00  0.00    +0.000 C 
ATOM      9  C   UNL     1     -32.986  27.471   6.096  0.00  0.00    +0.000 C 
ATOM     10  C   UNL     1     -31.626  27.981   2.416  0.00  0.00    +0.110 C 
ATOM     11  C   UNL     1     -33.664  25.627   2.189  0.00  0.00    +0.000 C 
ATOM     12  C   UNL     1     -34.429  24.362   2.621  0.00  0.00    +0.000 C 
ATOM     13  C   UNL     1     -31.051  29.392   2.559  0.00  0.00    +0.029 C 
ATOM     14  C   UNL     1     -30.871  29.706   6.472  0.00  0.00    +0.002 C 
ATOM     15  C   UNL     1     -35.444  26.665   4.424  0.00  0.00    +0.000 C 
ATOM     16  C   UNL     1     -29.133  29.054   4.198  0.00  0.00    +0.029 C 
ATOM     17  C   UNL     1     -32.727  30.408   4.985  0.00  0.00    +0.000 C 
ATOM     18  C   UNL     1     -29.535  29.004   6.677  0.00  0.00    +0.029 C 
ATOM     19  C   UNL     1     -28.555  29.377   5.572  0.00  0.00    +0.111 C 
ENDROOT
BRANCH  10  20
ATOM     20  O   UNL     1     -30.573  27.023   2.375  0.00  0.00    -0.384 OA
ATOM     21  H   UNL     1     -30.805  26.315   1.754  0.00  0.00    +0.210 HD
ENDBRANCH  10  20
BRANCH  19  22
ATOM     22  O   UNL     1     -27.350  28.645   5.769  0.00  0.00    -0.384 OA
ATOM     23  H   UNL     1     -27.323  27.896   5.153  0.00  0.00    +0.210 HD
ENDBRANCH  19  22
BRANCH   6  24
ATOM     24  C   UNL     1     -35.638  23.694   4.773  0.00  0.00    +0.000 C 
ATOM     25  C   UNL     1     -35.255  22.927   6.044  0.00  0.00    +0.000 C 
BRANCH  24  26
ATOM     26  C   UNL     1     -36.347  22.736   3.794  0.00  0.00    +0.010 C 
BRANCH  26  27
ATOM     27  C   UNL     1     -35.645  21.385   3.652  0.00  0.00    +0.085 C 
BRANCH  27  30
ATOM     28  O   UNL     1     -35.278  19.930   1.752  0.00  0.00    -0.275 OA
ATOM     29  N   UNL     1     -37.362  20.918   2.035  0.00  0.00    -0.301 N 
ATOM     30  C   UNL     1     -36.043  20.657   2.379  0.00  0.00    +0.223 C 
ATOM     31  H   UNL     1     -37.887  21.519   2.611  0.00  0.00    +0.150 HD
BRANCH  29  32
ATOM     32  C   UNL     1     -38.002  20.348   0.872  0.00  0.00    +0.137 C 
BRANCH  32  34
ATOM     33  F   UNL     1     -38.261  22.374  -0.254  0.00  0.00    -0.223 F 
ATOM     34  C   UNL     1     -38.981  21.327   0.247  0.00  0.00    +0.278 C 
BRANCH  34  36
ATOM     35  O   UNL     1     -40.450  22.957   1.257  0.00  0.00    -0.247 OA
ATOM     36  C   UNL     1     -39.973  21.829   1.265  0.00  0.00    +0.349 C 
BRANCH  36  37
ATOM     37  O   UNL     1     -40.273  20.900   2.205  0.00  0.00    -0.478 OA
ATOM     38  H   UNL     1     -40.819  21.129   2.933  0.00  0.00    +0.295 HD
ENDBRANCH  36  37
ENDBRANCH  34  36
ENDBRANCH  32  34
ENDBRANCH  29  32
ENDBRANCH  27  30
ENDBRANCH  26  27
ENDBRANCH  24  26
ENDBRANCH   6  24
TORSDOF 10
ENDMDL
MODEL 8
REMARK VINA RESULT:      -6.2      4.214      7.199
REMARK  Name = 21155445
REMARK  10 active torsions:
REMARK  status: ('A' for Active; 'I' for Inactive)
REMARK    1  A    between atoms: C_6  and  C_24
REMARK    2  A    between atoms: C_10  and  O_20
REMARK    3  A    between atoms: C_19  and  O_22
REMARK    4  A    between atoms: C_24  and  C_26
REMARK    5  A    between atoms: C_26  and  C_27
REMARK    6  A    between atoms: C_27  and  C_30
REMARK    7  A    between atoms: N_29  and  C_32
REMARK    8  A    between atoms: C_32  and  C_34
REMARK    9  A    between atoms: C_34  and  C_36
REMARK   10  A    between atoms: C_36  and  O_37
REMARK                            x       y       z     vdW  Elec       q    Type
REMARK                         _______ _______ _______ _____ _____    ______ ____
ROOT
ATOM      1  C   UNL     1     -32.796  26.667   3.205  0.00  0.00    +0.002 C 
ATOM      2  C   UNL     1     -32.564  26.679   1.679  0.00  0.00    +0.000 C 
ATOM      3  C   UNL     1     -34.222  26.249   3.595  0.00  0.00    +0.027 C 
ATOM      4  C   UNL     1     -34.487  24.806   3.044  0.00  0.00    +0.002 C 
ATOM      5  C   UNL     1     -35.936  24.302   3.403  0.00  0.00    +0.000 C 
ATOM      6  C   UNL     1     -31.103  27.193   1.654  0.00  0.00    +0.000 C 
ATOM      7  C   UNL     1     -36.139  24.374   4.954  0.00  0.00    +0.005 C 
ATOM      8  C   UNL     1     -32.748  25.243   1.171  0.00  0.00    +0.000 C 
ATOM      9  C   UNL     1     -34.134  24.685   1.535  0.00  0.00    +0.000 C 
ATOM     10  C   UNL     1     -34.464  26.340   5.113  0.00  0.00    +0.110 C 
ATOM     11  C   UNL     1     -32.281  28.030   3.656  0.00  0.00    +0.000 C 
ATOM     12  C   UNL     1     -31.092  28.313   2.719  0.00  0.00    +0.000 C 
ATOM     13  C   UNL     1     -35.826  25.773   5.522  0.00  0.00    +0.029 C 
ATOM     14  C   UNL     1     -36.195  22.840   2.934  0.00  0.00    +0.002 C 
ATOM     15  C   UNL     1     -33.503  27.633   0.900  0.00  0.00    +0.000 C 
ATOM     16  C   UNL     1     -35.362  23.278   5.714  0.00  0.00    +0.029 C 
ATOM     17  C   UNL     1     -37.020  25.167   2.706  0.00  0.00    +0.000 C 
ATOM     18  C   UNL     1     -35.390  21.791   3.690  0.00  0.00    +0.029 C 
ATOM     19  C   UNL     1     -35.661  21.879   5.186  0.00  0.00    +0.111 C 
ENDROOT
BRANCH  10  20
ATOM     20  O   UNL     1     -33.422  25.677   5.822  0.00  0.00    -0.384 OA
ATOM     21  H   UNL     1     -33.128  24.904   5.315  0.00  0.00    +0.210 HD
ENDBRANCH  10  20
BRANCH  19  22
ATOM     22  O   UNL     1     -34.836  20.929   5.853  0.00  0.00    -0.384 OA
ATOM     23  H   UNL     1     -35.359  20.462   6.523  0.00  0.00    +0.210 HD
ENDBRANCH  19  22
BRANCH   6  24
ATOM     24  C   UNL     1     -30.564  27.651   0.306  0.00  0.00    +0.000 C 
ATOM     25  C   UNL     1     -29.381  26.770  -0.113  0.00  0.00    +0.000 C 
BRANCH  24  26
ATOM     26  C   UNL     1     -30.123  29.129   0.312  0.00  0.00    +0.010 C 
BRANCH  26  27
ATOM     27  C   UNL     1     -31.083  30.052  -0.438  0.00  0.00    +0.085 C 
BRANCH  27  30
ATOM     28  O   UNL     1     -30.690  32.281   0.422  0.00  0.00    -0.275 OA
ATOM     29  N   UNL     1     -32.659  31.181   0.984  0.00  0.00    -0.301 N 
ATOM     30  C   UNL     1     -31.426  31.300   0.358  0.00  0.00    +0.223 C 
ATOM     31  H   UNL     1     -33.167  30.347   0.865  0.00  0.00    +0.150 HD
BRANCH  29  32
ATOM     32  C   UNL     1     -33.233  32.226   1.800  0.00  0.00    +0.137 C 
BRANCH  32  34
ATOM     33  F   UNL     1     -33.248  31.078   3.830  0.00  0.00    -0.223 F 
ATOM     34  C   UNL     1     -34.087  31.646   2.915  0.00  0.00    +0.278 C 
BRANCH  34  36
ATOM     35  O   UNL     1     -35.517  30.627   1.256  0.00  0.00    -0.247 OA
ATOM     36  C   UNL     1     -35.043  30.608   2.384  0.00  0.00    +0.349 C 
BRANCH  36  37
ATOM     37  O   UNL     1     -35.338  29.652   3.299  0.00  0.00    -0.478 OA
ATOM     38  H   UNL     1     -34.722  29.445   3.976  0.00  0.00    +0.295 HD
ENDBRANCH  36  37
ENDBRANCH  34  36
ENDBRANCH  32  34
ENDBRANCH  29  32
ENDBRANCH  27  30
ENDBRANCH  26  27
ENDBRANCH  24  26
ENDBRANCH   6  24
TORSDOF 10
ENDMDL
MODEL 9
REMARK VINA RESULT:      -6.2      4.039      9.635
REMARK  Name = 21155445
REMARK  10 active torsions:
REMARK  status: ('A' for Active; 'I' for Inactive)
REMARK    1  A    between atoms: C_6  and  C_24
REMARK    2  A    between atoms: C_10  and  O_20
REMARK    3  A    between atoms: C_19  and  O_22
REMARK    4  A    between atoms: C_24  and  C_26
REMARK    5  A    between atoms: C_26  and  C_27
REMARK    6  A    between atoms: C_27  and  C_30
REMARK    7  A    between atoms: N_29  and  C_32
REMARK    8  A    between atoms: C_32  and  C_34
REMARK    9  A    between atoms: C_34  and  C_36
REMARK   10  A    between atoms: C_36  and  O_37
REMARK                            x       y       z     vdW  Elec       q    Type
REMARK                         _______ _______ _______ _____ _____    ______ ____
ROOT
ATOM      1  C   UNL     1     -34.408  22.190   0.884  0.00  0.00    +0.002 C 
ATOM      2  C   UNL     1     -34.799  20.803   1.437  0.00  0.00    +0.000 C 
ATOM      3  C   UNL     1     -35.414  23.291   1.248  0.00  0.00    +0.027 C 
ATOM      4  C   UNL     1     -35.500  23.391   2.810  0.00  0.00    +0.002 C 
ATOM      5  C   UNL     1     -36.518  24.503   3.268  0.00  0.00    +0.000 C 
ATOM      6  C   UNL     1     -33.643  19.962   0.840  0.00  0.00    +0.000 C 
ATOM      7  C   UNL     1     -36.113  25.871   2.625  0.00  0.00    +0.005 C 
ATOM      8  C   UNL     1     -34.797  20.899   2.968  0.00  0.00    +0.000 C 
ATOM      9  C   UNL     1     -35.745  22.003   3.469  0.00  0.00    +0.000 C 
ATOM     10  C   UNL     1     -35.061  24.645   0.603  0.00  0.00    +0.110 C 
ATOM     11  C   UNL     1     -34.118  21.918  -0.590  0.00  0.00    +0.000 C 
ATOM     12  C   UNL     1     -33.499  20.508  -0.599  0.00  0.00    +0.000 C 
ATOM     13  C   UNL     1     -35.966  25.778   1.092  0.00  0.00    +0.029 C 
ATOM     14  C   UNL     1     -36.563  24.673   4.816  0.00  0.00    +0.002 C 
ATOM     15  C   UNL     1     -36.173  20.287   0.946  0.00  0.00    +0.000 C 
ATOM     16  C   UNL     1     -34.853  26.488   3.268  0.00  0.00    +0.029 C 
ATOM     17  C   UNL     1     -37.968  24.147   2.841  0.00  0.00    +0.000 C 
ATOM     18  C   UNL     1     -35.292  25.260   5.415  0.00  0.00    +0.029 C 
ATOM     19  C   UNL     1     -34.972  26.609   4.784  0.00  0.00    +0.111 C 
ENDROOT
BRANCH  10  20
ATOM     20  O   UNL     1     -33.695  24.967   0.845  0.00  0.00    -0.384 OA
ATOM     21  H   UNL     1     -33.608  25.924   0.980  0.00  0.00    +0.210 HD
ENDBRANCH  10  20
BRANCH  19  22
ATOM     22  O   UNL     1     -33.742  27.082   5.325  0.00  0.00    -0.384 OA
ATOM     23  H   UNL     1     -33.850  28.002   5.612  0.00  0.00    +0.210 HD
ENDBRANCH  19  22
BRANCH   6  24
ATOM     24  C   UNL     1     -33.804  18.450   0.888  0.00  0.00    +0.000 C 
ATOM     25  C   UNL     1     -32.482  17.794   1.301  0.00  0.00    +0.000 C 
BRANCH  24  26
ATOM     26  C   UNL     1     -34.269  17.858  -0.459  0.00  0.00    +0.010 C 
BRANCH  26  27
ATOM     27  C   UNL     1     -34.136  16.337  -0.530  0.00  0.00    +0.085 C 
BRANCH  27  30
ATOM     28  O   UNL     1     -35.622  14.426  -0.597  0.00  0.00    -0.275 OA
ATOM     29  N   UNL     1     -36.496  16.523  -0.108  0.00  0.00    -0.301 N 
ATOM     30  C   UNL     1     -35.479  15.633  -0.425  0.00  0.00    +0.223 C 
ATOM     31  H   UNL     1     -36.268  17.474   0.008  0.00  0.00    +0.150 HD
BRANCH  29  32
ATOM     32  C   UNL     1     -37.873  16.121   0.061  0.00  0.00    +0.137 C 
BRANCH  32  34
ATOM     33  F   UNL     1     -38.236  15.908  -2.233  0.00  0.00    -0.223 F 
ATOM     34  C   UNL     1     -38.720  16.545  -1.126  0.00  0.00    +0.278 C 
BRANCH  34  36
ATOM     35  O   UNL     1     -37.677  18.635  -1.741  0.00  0.00    -0.247 OA
ATOM     36  C   UNL     1     -38.663  18.038  -1.330  0.00  0.00    +0.349 C 
BRANCH  36  37
ATOM     37  O   UNL     1     -39.822  18.656  -0.995  0.00  0.00    -0.478 OA
ATOM     38  H   UNL     1     -40.625  18.172  -0.982  0.00  0.00    +0.295 HD
ENDBRANCH  36  37
ENDBRANCH  34  36
ENDBRANCH  32  34
ENDBRANCH  29  32
ENDBRANCH  27  30
ENDBRANCH  26  27
ENDBRANCH  24  26
ENDBRANCH   6  24
TORSDOF 10
ENDMDL
