MODEL 1
REMARK VINA RESULT:      -6.0      0.000      0.000
REMARK  Name = 194814
REMARK  7 active torsions:
REMARK  status: ('A' for Active; 'I' for Inactive)
REMARK    1  A    between atoms: C_1  and  C_9
REMARK    2  A    between atoms: C_1  and  C_14
REMARK    3  A    between atoms: C_5  and  C_11
REMARK    4  A    between atoms: C_11  and  O_12
REMARK    5  A    between atoms: C_14  and  S_15
REMARK    6  A    between atoms: S_15  and  C_20
REMARK    7  A    between atoms: N_19  and  C_24
REMARK                            x       y       z     vdW  Elec       q    Type
REMARK                         _______ _______ _______ _____ _____    ______ ____
ROOT
ATOM      1  C   UNL     1     -38.288  22.900   2.211  0.00  0.00    +0.090 C 
ATOM      2  C   UNL     1     -39.228  21.723   1.987  0.00  0.00    +0.011 C 
ENDROOT
BRANCH   1   9
ATOM      3  O   UNL     1     -36.609  21.261   2.614  0.00  0.00    -0.275 OA
ATOM      4  N   UNL     1     -36.481  23.227   3.829  0.00  0.00    -0.271 N 
ATOM      5  C   UNL     1     -35.197  22.948   4.460  0.00  0.00    +0.174 C 
ATOM      6  C   UNL     1     -34.745  24.290   5.025  0.00  0.00    +0.033 C 
ATOM      7  C   UNL     1     -36.968  24.555   4.191  0.00  0.00    +0.094 C 
ATOM      8  C   UNL     1     -36.058  25.012   5.320  0.00  0.00    +0.024 C 
ATOM      9  C   UNL     1     -37.049  22.378   2.893  0.00  0.00    +0.226 C 
BRANCH   5  11
ATOM     10  O   UNL     1     -35.931  22.195   6.637  0.00  0.00    -0.248 OA
ATOM     11  C   UNL     1     -35.445  21.943   5.544  0.00  0.00    +0.332 C 
BRANCH  11  12
ATOM     12  O   UNL     1     -35.054  20.707   5.150  0.00  0.00    -0.479 OA
ATOM     13  H   UNL     1     -35.538  20.252   4.489  0.00  0.00    +0.295 HD
ENDBRANCH  11  12
ENDBRANCH   5  11
ENDBRANCH   1   9
BRANCH   1  14
ATOM     14  C   UNL     1     -37.875  23.592   0.918  0.00  0.00    +0.101 C 
BRANCH  14  15
ATOM     15  S   UNL     1     -38.761  25.165   0.690  0.00  0.00    +0.051 S 
ATOM     16  O   UNL     1     -37.876  26.249   1.221  0.00  0.00    -0.255 OA
BRANCH  15  20
ATOM     17  O   UNL     1     -41.723  23.807   0.544  0.00  0.00    -0.273 OA
ATOM     18  O   UNL     1     -41.872  27.679   3.063  0.00  0.00    -0.274 OA
ATOM     19  N   UNL     1     -42.124  25.812   1.673  0.00  0.00    -0.229 N 
ATOM     20  C   UNL     1     -40.028  24.830   1.934  0.00  0.00    +0.165 C 
ATOM     21  C   UNL     1     -40.163  25.983   2.921  0.00  0.00    +0.108 C 
ATOM     22  C   UNL     1     -41.386  24.711   1.295  0.00  0.00    +0.244 C 
ATOM     23  C   UNL     1     -41.477  26.628   2.574  0.00  0.00    +0.233 C 
BRANCH  19  24
ATOM     24  C   UNL     1     -43.459  26.069   1.166  0.00  0.00    +0.101 C 
ATOM     25  C   UNL     1     -44.521  25.545   2.111  0.00  0.00    +0.024 C 
ENDBRANCH  19  24
ENDBRANCH  15  20
ENDBRANCH  14  15
ENDBRANCH   1  14
TORSDOF 7
ENDMDL
MODEL 2
REMARK VINA RESULT:      -5.8      1.285      1.943
REMARK  Name = 194814
REMARK  7 active torsions:
REMARK  status: ('A' for Active; 'I' for Inactive)
REMARK    1  A    between atoms: C_1  and  C_9
REMARK    2  A    between atoms: C_1  and  C_14
REMARK    3  A    between atoms: C_5  and  C_11
REMARK    4  A    between atoms: C_11  and  O_12
REMARK    5  A    between atoms: C_14  and  S_15
REMARK    6  A    between atoms: S_15  and  C_20
REMARK    7  A    between atoms: N_19  and  C_24
REMARK                            x       y       z     vdW  Elec       q    Type
REMARK                         _______ _______ _______ _____ _____    ______ ____
ROOT
ATOM      1  C   UNL     1     -38.529  23.827   2.551  0.00  0.00    +0.090 C 
ATOM      2  C   UNL     1     -39.698  22.854   2.483  0.00  0.00    +0.011 C 
ENDROOT
BRANCH   1   9
ATOM      3  O   UNL     1     -37.080  21.939   2.521  0.00  0.00    -0.275 OA
ATOM      4  N   UNL     1     -36.515  23.681   3.936  0.00  0.00    -0.271 N 
ATOM      5  C   UNL     1     -35.223  23.148   4.348  0.00  0.00    +0.174 C 
ATOM      6  C   UNL     1     -34.510  24.326   5.003  0.00  0.00    +0.033 C 
ATOM      7  C   UNL     1     -36.750  24.999   4.518  0.00  0.00    +0.094 C 
ATOM      8  C   UNL     1     -35.656  25.168   5.559  0.00  0.00    +0.024 C 
ATOM      9  C   UNL     1     -37.311  23.054   2.990  0.00  0.00    +0.226 C 
BRANCH   5  11
ATOM     10  O   UNL     1     -35.872  22.203   6.476  0.00  0.00    -0.248 OA
ATOM     11  C   UNL     1     -35.490  22.045   5.325  0.00  0.00    +0.332 C 
BRANCH  11  12
ATOM     12  O   UNL     1     -35.249  20.836   4.762  0.00  0.00    -0.479 OA
ATOM     13  H   UNL     1     -34.454  20.380   4.957  0.00  0.00    +0.295 HD
ENDBRANCH  11  12
ENDBRANCH   5  11
ENDBRANCH   1   9
BRANCH   1  14
ATOM     14  C   UNL     1     -38.225  24.494   1.216  0.00  0.00    +0.101 C 
BRANCH  14  15
ATOM     15  S   UNL     1     -38.483  26.294   1.294  0.00  0.00    +0.051 S 
ATOM     16  O   UNL     1     -39.146  26.586   2.604  0.00  0.00    -0.255 OA
BRANCH  15  20
ATOM     17  O   UNL     1     -40.919  28.364   0.648  0.00  0.00    -0.273 OA
ATOM     18  O   UNL     1     -42.431  24.004   0.404  0.00  0.00    -0.274 OA
ATOM     19  N   UNL     1     -41.989  26.288   0.663  0.00  0.00    -0.229 N 
ATOM     20  C   UNL     1     -39.754  26.342   0.011  0.00  0.00    +0.165 C 
ATOM     21  C   UNL     1     -40.320  24.955  -0.269  0.00  0.00    +0.108 C 
ATOM     22  C   UNL     1     -40.937  27.155   0.461  0.00  0.00    +0.244 C 
ATOM     23  C   UNL     1     -41.706  24.986   0.313  0.00  0.00    +0.233 C 
BRANCH  19  24
ATOM     24  C   UNL     1     -43.270  26.722   1.188  0.00  0.00    +0.101 C 
ATOM     25  C   UNL     1     -43.322  26.594   2.697  0.00  0.00    +0.024 C 
ENDBRANCH  19  24
ENDBRANCH  15  20
ENDBRANCH  14  15
ENDBRANCH   1  14
TORSDOF 7
ENDMDL
MODEL 3
REMARK VINA RESULT:      -5.8      3.875      6.420
REMARK  Name = 194814
REMARK  7 active torsions:
REMARK  status: ('A' for Active; 'I' for Inactive)
REMARK    1  A    between atoms: C_1  and  C_9
REMARK    2  A    between atoms: C_1  and  C_14
REMARK    3  A    between atoms: C_5  and  C_11
REMARK    4  A    between atoms: C_11  and  O_12
REMARK    5  A    between atoms: C_14  and  S_15
REMARK    6  A    between atoms: S_15  and  C_20
REMARK    7  A    between atoms: N_19  and  C_24
REMARK                            x       y       z     vdW  Elec       q    Type
REMARK                         _______ _______ _______ _____ _____    ______ ____
ROOT
ATOM      1  C   UNL     1     -34.801  25.434   4.831  0.00  0.00    +0.090 C 
ATOM      2  C   UNL     1     -36.030  25.899   5.601  0.00  0.00    +0.011 C 
ENDROOT
BRANCH   1   9
ATOM      3  O   UNL     1     -33.202  26.493   6.241  0.00  0.00    -0.275 OA
ATOM      4  N   UNL     1     -33.280  27.178   4.032  0.00  0.00    -0.271 N 
ATOM      5  C   UNL     1     -32.114  28.050   4.087  0.00  0.00    +0.174 C 
ATOM      6  C   UNL     1     -31.765  28.321   2.628  0.00  0.00    +0.033 C 
ATOM      7  C   UNL     1     -33.825  27.113   2.678  0.00  0.00    +0.094 C 
ATOM      8  C   UNL     1     -33.111  28.217   1.916  0.00  0.00    +0.024 C 
ATOM      9  C   UNL     1     -33.686  26.409   5.111  0.00  0.00    +0.226 C 
BRANCH   5  11
ATOM     10  O   UNL     1     -33.116  30.240   4.288  0.00  0.00    -0.248 OA
ATOM     11  C   UNL     1     -32.529  29.300   4.802  0.00  0.00    +0.332 C 
BRANCH  11  12
ATOM     12  O   UNL     1     -32.162  29.251   6.105  0.00  0.00    -0.479 OA
ATOM     13  H   UNL     1     -31.559  29.881   6.446  0.00  0.00    +0.295 HD
ENDBRANCH  11  12
ENDBRANCH   5  11
ENDBRANCH   1   9
BRANCH   1  14
ATOM     14  C   UNL     1     -34.337  24.039   5.229  0.00  0.00    +0.101 C 
BRANCH  14  15
ATOM     15  S   UNL     1     -35.691  22.828   5.121  0.00  0.00    +0.051 S 
ATOM     16  O   UNL     1     -35.090  21.475   5.338  0.00  0.00    -0.255 OA
BRANCH  15  20
ATOM     17  O   UNL     1     -38.179  23.998   3.367  0.00  0.00    -0.273 OA
ATOM     18  O   UNL     1     -36.675  20.027   1.542  0.00  0.00    -0.274 OA
ATOM     19  N   UNL     1     -37.764  21.928   2.367  0.00  0.00    -0.229 N 
ATOM     20  C   UNL     1     -35.962  23.031   3.346  0.00  0.00    +0.165 C 
ATOM     21  C   UNL     1     -35.444  21.833   2.559  0.00  0.00    +0.108 C 
ATOM     22  C   UNL     1     -37.433  23.088   3.033  0.00  0.00    +0.244 C 
ATOM     23  C   UNL     1     -36.683  21.119   2.094  0.00  0.00    +0.233 C 
BRANCH  19  24
ATOM     24  C   UNL     1     -39.128  21.606   1.989  0.00  0.00    +0.101 C 
ATOM     25  C   UNL     1     -39.413  22.000   0.555  0.00  0.00    +0.024 C 
ENDBRANCH  19  24
ENDBRANCH  15  20
ENDBRANCH  14  15
ENDBRANCH   1  14
TORSDOF 7
ENDMDL
MODEL 4
REMARK VINA RESULT:      -5.7      3.809      7.336
REMARK  Name = 194814
REMARK  7 active torsions:
REMARK  status: ('A' for Active; 'I' for Inactive)
REMARK    1  A    between atoms: C_1  and  C_9
REMARK    2  A    between atoms: C_1  and  C_14
REMARK    3  A    between atoms: C_5  and  C_11
REMARK    4  A    between atoms: C_11  and  O_12
REMARK    5  A    between atoms: C_14  and  S_15
REMARK    6  A    between atoms: S_15  and  C_20
REMARK    7  A    between atoms: N_19  and  C_24
REMARK                            x       y       z     vdW  Elec       q    Type
REMARK                         _______ _______ _______ _____ _____    ______ ____
ROOT
ATOM      1  C   UNL     1     -35.287  23.224   4.261  0.00  0.00    +0.090 C 
ATOM      2  C   UNL     1     -35.583  22.285   5.423  0.00  0.00    +0.011 C 
ENDROOT
BRANCH   1   9
ATOM      3  O   UNL     1     -37.034  24.740   4.824  0.00  0.00    -0.275 OA
ATOM      4  N   UNL     1     -37.080  23.815   2.703  0.00  0.00    -0.271 N 
ATOM      5  C   UNL     1     -38.194  24.608   2.200  0.00  0.00    +0.174 C 
ATOM      6  C   UNL     1     -38.153  24.417   0.688  0.00  0.00    +0.033 C 
ATOM      7  C   UNL     1     -36.533  22.953   1.658  0.00  0.00    +0.094 C 
ATOM      8  C   UNL     1     -37.541  23.028   0.522  0.00  0.00    +0.024 C 
ATOM      9  C   UNL     1     -36.543  24.004   3.967  0.00  0.00    +0.226 C 
BRANCH   5  11
ATOM     10  O   UNL     1     -40.058  23.078   2.366  0.00  0.00    -0.248 OA
ATOM     11  C   UNL     1     -39.446  24.043   2.799  0.00  0.00    +0.332 C 
BRANCH  11  12
ATOM     12  O   UNL     1     -39.815  24.750   3.894  0.00  0.00    -0.479 OA
ATOM     13  H   UNL     1     -40.704  25.030   3.992  0.00  0.00    +0.295 HD
ENDBRANCH  11  12
ENDBRANCH   5  11
ENDBRANCH   1   9
BRANCH   1  14
ATOM     14  C   UNL     1     -34.164  24.210   4.559  0.00  0.00    +0.101 C 
BRANCH  14  15
ATOM     15  S   UNL     1     -33.962  25.419   3.213  0.00  0.00    +0.051 S 
ATOM     16  O   UNL     1     -32.518  25.402   2.819  0.00  0.00    -0.255 OA
BRANCH  15  20
ATOM     17  O   UNL     1     -33.527  28.613   2.721  0.00  0.00    -0.273 OA
ATOM     18  O   UNL     1     -31.826  27.393   6.841  0.00  0.00    -0.274 OA
ATOM     19  N   UNL     1     -32.411  28.240   4.738  0.00  0.00    -0.229 N 
ATOM     20  C   UNL     1     -34.233  26.875   4.248  0.00  0.00    +0.165 C 
ATOM     21  C   UNL     1     -33.800  26.628   5.688  0.00  0.00    +0.108 C 
ATOM     22  C   UNL     1     -33.381  28.026   3.784  0.00  0.00    +0.244 C 
ATOM     23  C   UNL     1     -32.546  27.442   5.853  0.00  0.00    +0.233 C 
BRANCH  19  24
ATOM     24  C   UNL     1     -31.356  29.222   4.574  0.00  0.00    +0.101 C 
ATOM     25  C   UNL     1     -31.712  30.535   5.241  0.00  0.00    +0.024 C 
ENDBRANCH  19  24
ENDBRANCH  15  20
ENDBRANCH  14  15
ENDBRANCH   1  14
TORSDOF 7
ENDMDL
MODEL 5
REMARK VINA RESULT:      -5.6      4.316      7.851
REMARK  Name = 194814
REMARK  7 active torsions:
REMARK  status: ('A' for Active; 'I' for Inactive)
REMARK    1  A    between atoms: C_1  and  C_9
REMARK    2  A    between atoms: C_1  and  C_14
REMARK    3  A    between atoms: C_5  and  C_11
REMARK    4  A    between atoms: C_11  and  O_12
REMARK    5  A    between atoms: C_14  and  S_15
REMARK    6  A    between atoms: S_15  and  C_20
REMARK    7  A    between atoms: N_19  and  C_24
REMARK                            x       y       z     vdW  Elec       q    Type
REMARK                         _______ _______ _______ _____ _____    ______ ____
ROOT
ATOM      1  C   UNL     1     -35.126  22.918   1.727  0.00  0.00    +0.090 C 
ATOM      2  C   UNL     1     -34.074  23.265   0.682  0.00  0.00    +0.011 C 
ENDROOT
BRANCH   1   9
ATOM      3  O   UNL     1     -36.558  24.783   1.352  0.00  0.00    -0.275 OA
ATOM      4  N   UNL     1     -35.522  24.645   3.417  0.00  0.00    -0.271 N 
ATOM      5  C   UNL     1     -36.216  25.772   4.027  0.00  0.00    +0.174 C 
ATOM      6  C   UNL     1     -35.948  25.628   5.520  0.00  0.00    +0.033 C 
ATOM      7  C   UNL     1     -34.641  23.986   4.378  0.00  0.00    +0.094 C 
ATOM      8  C   UNL     1     -34.594  24.926   5.572  0.00  0.00    +0.024 C 
ATOM      9  C   UNL     1     -35.809  24.199   2.136  0.00  0.00    +0.226 C 
BRANCH   5  11
ATOM     10  O   UNL     1     -34.558  27.522   3.850  0.00  0.00    -0.248 OA
ATOM     11  C   UNL     1     -35.606  27.022   3.469  0.00  0.00    +0.332 C 
BRANCH  11  12
ATOM     12  O   UNL     1     -36.378  27.532   2.479  0.00  0.00    -0.479 OA
ATOM     13  H   UNL     1     -37.046  27.004   2.088  0.00  0.00    +0.295 HD
ENDBRANCH  11  12
ENDBRANCH   5  11
ENDBRANCH   1   9
BRANCH   1  14
ATOM     14  C   UNL     1     -36.183  21.947   1.215  0.00  0.00    +0.101 C 
BRANCH  14  15
ATOM     15  S   UNL     1     -35.890  20.258   1.826  0.00  0.00    +0.051 S 
ATOM     16  O   UNL     1     -35.139  20.381   3.115  0.00  0.00    -0.255 OA
BRANCH  15  20
ATOM     17  O   UNL     1     -36.028  18.238  -0.730  0.00  0.00    -0.273 OA
ATOM     18  O   UNL     1     -32.061  17.632   1.562  0.00  0.00    -0.274 OA
ATOM     19  N   UNL     1     -34.060  17.584   0.345  0.00  0.00    -0.229 N 
ATOM     20  C   UNL     1     -34.702  19.814   0.538  0.00  0.00    +0.165 C 
ATOM     21  C   UNL     1     -33.297  19.650   1.103  0.00  0.00    +0.108 C 
ATOM     22  C   UNL     1     -35.035  18.471  -0.055  0.00  0.00    +0.244 C 
ATOM     23  C   UNL     1     -33.040  18.169   1.062  0.00  0.00    +0.233 C 
BRANCH  19  24
ATOM     24  C   UNL     1     -34.114  16.169   0.027  0.00  0.00    +0.101 C 
ATOM     25  C   UNL     1     -33.389  15.864  -1.268  0.00  0.00    +0.024 C 
ENDBRANCH  19  24
ENDBRANCH  15  20
ENDBRANCH  14  15
ENDBRANCH   1  14
TORSDOF 7
ENDMDL
MODEL 6
REMARK VINA RESULT:      -5.5      4.414      7.152
REMARK  Name = 194814
REMARK  7 active torsions:
REMARK  status: ('A' for Active; 'I' for Inactive)
REMARK    1  A    between atoms: C_1  and  C_9
REMARK    2  A    between atoms: C_1  and  C_14
REMARK    3  A    between atoms: C_5  and  C_11
REMARK    4  A    between atoms: C_11  and  O_12
REMARK    5  A    between atoms: C_14  and  S_15
REMARK    6  A    between atoms: S_15  and  C_20
REMARK    7  A    between atoms: N_19  and  C_24
REMARK                            x       y       z     vdW  Elec       q    Type
REMARK                         _______ _______ _______ _____ _____    ______ ____
ROOT
ATOM      1  C   UNL     1     -35.134  24.339   4.121  0.00  0.00    +0.090 C 
ATOM      2  C   UNL     1     -34.721  23.955   5.536  0.00  0.00    +0.011 C 
ENDROOT
BRANCH   1   9
ATOM      3  O   UNL     1     -36.799  22.638   4.135  0.00  0.00    -0.275 OA
ATOM      4  N   UNL     1     -35.425  22.755   2.277  0.00  0.00    -0.271 N 
ATOM      5  C   UNL     1     -36.124  21.748   1.489  0.00  0.00    +0.174 C 
ATOM      6  C   UNL     1     -35.597  21.933   0.071  0.00  0.00    +0.033 C 
ATOM      7  C   UNL     1     -34.331  23.353   1.516  0.00  0.00    +0.094 C 
ATOM      8  C   UNL     1     -34.186  22.474   0.284  0.00  0.00    +0.024 C 
ATOM      9  C   UNL     1     -35.872  23.169   3.522  0.00  0.00    +0.226 C 
BRANCH   5  11
ATOM     10  O   UNL     1     -34.647  19.897   1.972  0.00  0.00    -0.248 OA
ATOM     11  C   UNL     1     -35.753  20.410   2.052  0.00  0.00    +0.332 C 
BRANCH  11  12
ATOM     12  O   UNL     1     -36.817  19.835   2.664  0.00  0.00    -0.479 OA
ATOM     13  H   UNL     1     -37.682  20.155   2.496  0.00  0.00    +0.295 HD
ENDBRANCH  11  12
ENDBRANCH   5  11
ENDBRANCH   1   9
BRANCH   1  14
ATOM     14  C   UNL     1     -36.042  25.561   4.073  0.00  0.00    +0.101 C 
BRANCH  14  15
ATOM     15  S   UNL     1     -35.298  26.908   3.100  0.00  0.00    +0.051 S 
ATOM     16  O   UNL     1     -35.551  26.599   1.657  0.00  0.00    -0.255 OA
BRANCH  15  20
ATOM     17  O   UNL     1     -33.421  27.259   5.743  0.00  0.00    -0.273 OA
ATOM     18  O   UNL     1     -31.092  28.531   1.960  0.00  0.00    -0.274 OA
ATOM     19  N   UNL     1     -32.096  28.154   4.040  0.00  0.00    -0.229 N 
ATOM     20  C   UNL     1     -33.586  26.459   3.467  0.00  0.00    +0.165 C 
ATOM     21  C   UNL     1     -32.668  26.736   2.283  0.00  0.00    +0.108 C 
ATOM     22  C   UNL     1     -33.039  27.308   4.582  0.00  0.00    +0.244 C 
ATOM     23  C   UNL     1     -31.852  27.926   2.704  0.00  0.00    +0.233 C 
BRANCH  19  24
ATOM     24  C   UNL     1     -31.425  29.178   4.819  0.00  0.00    +0.101 C 
ATOM     25  C   UNL     1     -32.212  30.472   4.828  0.00  0.00    +0.024 C 
ENDBRANCH  19  24
ENDBRANCH  15  20
ENDBRANCH  14  15
ENDBRANCH   1  14
TORSDOF 7
ENDMDL
MODEL 7
REMARK VINA RESULT:      -5.4      2.967      4.885
REMARK  Name = 194814
REMARK  7 active torsions:
REMARK  status: ('A' for Active; 'I' for Inactive)
REMARK    1  A    between atoms: C_1  and  C_9
REMARK    2  A    between atoms: C_1  and  C_14
REMARK    3  A    between atoms: C_5  and  C_11
REMARK    4  A    between atoms: C_11  and  O_12
REMARK    5  A    between atoms: C_14  and  S_15
REMARK    6  A    between atoms: S_15  and  C_20
REMARK    7  A    between atoms: N_19  and  C_24
REMARK                            x       y       z     vdW  Elec       q    Type
REMARK                         _______ _______ _______ _____ _____    ______ ____
ROOT
ATOM      1  C   UNL     1     -38.475  24.089   2.540  0.00  0.00    +0.090 C 
ATOM      2  C   UNL     1     -39.675  23.164   2.390  0.00  0.00    +0.011 C 
ENDROOT
BRANCH   1   9
ATOM      3  O   UNL     1     -37.106  22.143   2.462  0.00  0.00    -0.275 OA
ATOM      4  N   UNL     1     -36.489  23.810   3.944  0.00  0.00    -0.271 N 
ATOM      5  C   UNL     1     -35.227  23.209   4.355  0.00  0.00    +0.174 C 
ATOM      6  C   UNL     1     -34.476  24.332   5.061  0.00  0.00    +0.033 C 
ATOM      7  C   UNL     1     -36.678  25.116   4.569  0.00  0.00    +0.094 C 
ATOM      8  C   UNL     1     -35.593  25.203   5.630  0.00  0.00    +0.024 C 
ATOM      9  C   UNL     1     -37.297  23.251   2.967  0.00  0.00    +0.226 C 
BRANCH   5  11
ATOM     10  O   UNL     1     -35.935  22.220   6.443  0.00  0.00    -0.248 OA
ATOM     11  C   UNL     1     -35.555  22.085   5.289  0.00  0.00    +0.332 C 
BRANCH  11  12
ATOM     12  O   UNL     1     -35.370  20.887   4.683  0.00  0.00    -0.479 OA
ATOM     13  H   UNL     1     -35.390  20.099   5.189  0.00  0.00    +0.295 HD
ENDBRANCH  11  12
ENDBRANCH   5  11
ENDBRANCH   1   9
BRANCH   1  14
ATOM     14  C   UNL     1     -38.112  24.813   1.249  0.00  0.00    +0.101 C 
BRANCH  14  15
ATOM     15  S   UNL     1     -37.825  26.587   1.537  0.00  0.00    +0.051 S 
ATOM     16  O   UNL     1     -38.982  27.323   0.938  0.00  0.00    -0.255 OA
BRANCH  15  20
ATOM     17  O   UNL     1     -34.780  25.420   1.580  0.00  0.00    -0.273 OA
ATOM     18  O   UNL     1     -34.755  29.881   0.372  0.00  0.00    -0.274 OA
ATOM     19  N   UNL     1     -34.460  27.695   1.155  0.00  0.00    -0.229 N 
ATOM     20  C   UNL     1     -36.434  26.724   0.391  0.00  0.00    +0.165 C 
ATOM     21  C   UNL     1     -36.317  28.130  -0.184  0.00  0.00    +0.108 C 
ATOM     22  C   UNL     1     -35.129  26.491   1.104  0.00  0.00    +0.244 C 
ATOM     23  C   UNL     1     -35.098  28.711   0.478  0.00  0.00    +0.233 C 
BRANCH  19  24
ATOM     24  C   UNL     1     -33.199  27.858   1.854  0.00  0.00    +0.101 C 
ATOM     25  C   UNL     1     -33.414  28.120   3.330  0.00  0.00    +0.024 C 
ENDBRANCH  19  24
ENDBRANCH  15  20
ENDBRANCH  14  15
ENDBRANCH   1  14
TORSDOF 7
ENDMDL
MODEL 8
REMARK VINA RESULT:      -5.4      1.551      2.447
REMARK  Name = 194814
REMARK  7 active torsions:
REMARK  status: ('A' for Active; 'I' for Inactive)
REMARK    1  A    between atoms: C_1  and  C_9
REMARK    2  A    between atoms: C_1  and  C_14
REMARK    3  A    between atoms: C_5  and  C_11
REMARK    4  A    between atoms: C_11  and  O_12
REMARK    5  A    between atoms: C_14  and  S_15
REMARK    6  A    between atoms: S_15  and  C_20
REMARK    7  A    between atoms: N_19  and  C_24
REMARK                            x       y       z     vdW  Elec       q    Type
REMARK                         _______ _______ _______ _____ _____    ______ ____
ROOT
ATOM      1  C   UNL     1     -36.542  25.626   2.461  0.00  0.00    +0.090 C 
ATOM      2  C   UNL     1     -35.598  26.633   3.104  0.00  0.00    +0.011 C 
ENDROOT
BRANCH   1   9
ATOM      3  O   UNL     1     -37.299  24.578   4.459  0.00  0.00    -0.275 OA
ATOM      4  N   UNL     1     -36.062  23.285   2.991  0.00  0.00    -0.271 N 
ATOM      5  C   UNL     1     -36.231  22.022   3.699  0.00  0.00    +0.174 C 
ATOM      6  C   UNL     1     -35.798  20.957   2.698  0.00  0.00    +0.033 C 
ATOM      7  C   UNL     1     -35.318  23.096   1.749  0.00  0.00    +0.094 C 
ATOM      8  C   UNL     1     -34.770  21.681   1.832  0.00  0.00    +0.024 C 
ATOM      9  C   UNL     1     -36.679  24.456   3.401  0.00  0.00    +0.226 C 
BRANCH   5  11
ATOM     10  O   UNL     1     -34.647  23.019   5.229  0.00  0.00    -0.248 OA
ATOM     11  C   UNL     1     -35.329  22.061   4.895  0.00  0.00    +0.332 C 
BRANCH  11  12
ATOM     12  O   UNL     1     -35.368  20.883   5.564  0.00  0.00    -0.479 OA
ATOM     13  H   UNL     1     -36.172  20.405   5.622  0.00  0.00    +0.295 HD
ENDBRANCH  11  12
ENDBRANCH   5  11
ENDBRANCH   1   9
BRANCH   1  14
ATOM     14  C   UNL     1     -37.929  26.194   2.187  0.00  0.00    +0.101 C 
BRANCH  14  15
ATOM     15  S   UNL     1     -38.869  25.138   1.042  0.00  0.00    +0.051 S 
ATOM     16  O   UNL     1     -39.399  26.026  -0.040  0.00  0.00    -0.255 OA
BRANCH  15  20
ATOM     17  O   UNL     1     -41.879  23.944   0.650  0.00  0.00    -0.273 OA
ATOM     18  O   UNL     1     -41.992  27.676   3.372  0.00  0.00    -0.274 OA
ATOM     19  N   UNL     1     -42.250  25.903   1.866  0.00  0.00    -0.229 N 
ATOM     20  C   UNL     1     -40.223  24.802   2.191  0.00  0.00    +0.165 C 
ATOM     21  C   UNL     1     -40.362  25.906   3.232  0.00  0.00    +0.108 C 
ATOM     22  C   UNL     1     -41.544  24.788   1.469  0.00  0.00    +0.244 C 
ATOM     23  C   UNL     1     -41.619  26.635   2.848  0.00  0.00    +0.233 C 
BRANCH  19  24
ATOM     24  C   UNL     1     -43.538  26.255   1.299  0.00  0.00    +0.101 C 
ATOM     25  C   UNL     1     -44.678  25.679   2.113  0.00  0.00    +0.024 C 
ENDBRANCH  19  24
ENDBRANCH  15  20
ENDBRANCH  14  15
ENDBRANCH   1  14
TORSDOF 7
ENDMDL
MODEL 9
REMARK VINA RESULT:      -5.4      4.622      7.128
REMARK  Name = 194814
REMARK  7 active torsions:
REMARK  status: ('A' for Active; 'I' for Inactive)
REMARK    1  A    between atoms: C_1  and  C_9
REMARK    2  A    between atoms: C_1  and  C_14
REMARK    3  A    between atoms: C_5  and  C_11
REMARK    4  A    between atoms: C_11  and  O_12
REMARK    5  A    between atoms: C_14  and  S_15
REMARK    6  A    between atoms: S_15  and  C_20
REMARK    7  A    between atoms: N_19  and  C_24
REMARK                            x       y       z     vdW  Elec       q    Type
REMARK                         _______ _______ _______ _____ _____    ______ ____
ROOT
ATOM      1  C   UNL     1     -34.900  25.974   4.550  0.00  0.00    +0.090 C 
ATOM      2  C   UNL     1     -35.984  25.889   5.617  0.00  0.00    +0.011 C 
ENDROOT
BRANCH   1   9
ATOM      3  O   UNL     1     -33.303  26.236   6.296  0.00  0.00    -0.275 OA
ATOM      4  N   UNL     1     -33.057  27.580   4.428  0.00  0.00    -0.271 N 
ATOM      5  C   UNL     1     -31.781  28.169   4.814  0.00  0.00    +0.174 C 
ATOM      6  C   UNL     1     -31.252  28.816   3.539  0.00  0.00    +0.033 C 
ATOM      7  C   UNL     1     -33.469  28.040   3.105  0.00  0.00    +0.094 C 
ATOM      8  C   UNL     1     -32.522  29.181   2.774  0.00  0.00    +0.024 C 
ATOM      9  C   UNL     1     -33.681  26.598   5.181  0.00  0.00    +0.226 C 
BRANCH   5  11
ATOM     10  O   UNL     1     -32.506  30.308   5.676  0.00  0.00    -0.248 OA
ATOM     11  C   UNL     1     -32.066  29.185   5.878  0.00  0.00    +0.332 C 
BRANCH  11  12
ATOM     12  O   UNL     1     -31.767  28.693   7.105  0.00  0.00    -0.479 OA
ATOM     13  H   UNL     1     -30.879  28.690   7.404  0.00  0.00    +0.295 HD
ENDBRANCH  11  12
ENDBRANCH   5  11
ENDBRANCH   1   9
BRANCH   1  14
ATOM     14  C   UNL     1     -34.511  24.616   3.981  0.00  0.00    +0.101 C 
BRANCH  14  15
ATOM     15  S   UNL     1     -35.876  23.419   4.115  0.00  0.00    +0.051 S 
ATOM     16  O   UNL     1     -35.275  22.110   4.520  0.00  0.00    -0.255 OA
BRANCH  15  20
ATOM     17  O   UNL     1     -37.253  21.164   2.203  0.00  0.00    -0.273 OA
ATOM     18  O   UNL     1     -33.372  22.746   0.255  0.00  0.00    -0.274 OA
ATOM     19  N   UNL     1     -35.246  21.627   1.101  0.00  0.00    -0.229 N 
ATOM     20  C   UNL     1     -36.214  23.345   2.341  0.00  0.00    +0.165 C 
ATOM     21  C   UNL     1     -35.058  23.910   1.526  0.00  0.00    +0.108 C 
ATOM     22  C   UNL     1     -36.344  21.917   1.883  0.00  0.00    +0.244 C 
ATOM     23  C   UNL     1     -34.422  22.709   0.883  0.00  0.00    +0.233 C 
BRANCH  19  24
ATOM     24  C   UNL     1     -34.999  20.304   0.561  0.00  0.00    +0.101 C 
ATOM     25  C   UNL     1     -34.104  19.490   1.473  0.00  0.00    +0.024 C 
ENDBRANCH  19  24
ENDBRANCH  15  20
ENDBRANCH  14  15
ENDBRANCH   1  14
TORSDOF 7
ENDMDL
