MODEL 1
REMARK VINA RESULT:      -4.9      0.000      0.000
REMARK  Name = 51794
REMARK  7 active torsions:
REMARK  status: ('A' for Active; 'I' for Inactive)
REMARK    1  A    between atoms: N_1  and  C_10
REMARK    2  A    between atoms: C_4  and  N_9
REMARK    3  A    between atoms: C_10  and  C_11
REMARK    4  A    between atoms: C_11  and  O_12
REMARK    5  A    between atoms: O_12  and  P_13
REMARK    6  A    between atoms: P_13  and  O_15
REMARK    7  A    between atoms: P_13  and  O_17
REMARK                            x       y       z     vdW  Elec       q    Type
REMARK                         _______ _______ _______ _____ _____    ______ ____
ROOT
ATOM      1  N   UNL     1     -34.612  24.945   3.248  0.00  0.00    -0.253 N 
ATOM      2  N   UNL     1     -33.176  26.052   4.505  0.00  0.00    -0.230 NA
ATOM      3  C   UNL     1     -33.468  25.677   3.280  0.00  0.00    +0.114 C 
ATOM      4  C   UNL     1     -35.090  24.839   4.514  0.00  0.00    +0.218 C 
ATOM      5  C   UNL     1     -34.183  25.532   5.279  0.00  0.00    +0.140 C 
ATOM      6  C   UNL     1     -32.684  25.987   2.067  0.00  0.00    +0.069 C 
ENDROOT
BRANCH   4   9
ATOM      7  O   UNL     1     -37.384  24.605   4.498  0.00  0.00    -0.125 OA
ATOM      8  O   UNL     1     -36.186  23.081   5.527  0.00  0.00    -0.125 OA
ATOM      9  N   UNL     1     -36.259  24.152   4.858  0.00  0.00    +0.074 N 
ENDBRANCH   4   9
BRANCH   1  10
ATOM     10  C   UNL     1     -35.221  24.374   2.048  0.00  0.00    +0.131 C 
BRANCH  10  11
ATOM     11  C   UNL     1     -34.787  22.936   1.801  0.00  0.00    +0.175 C 
BRANCH  11  12
ATOM     12  O   UNL     1     -35.857  22.057   2.100  0.00  0.00    -0.272 OA
BRANCH  12  13
ATOM     13  P   UNL     1     -35.508  20.563   2.619  0.00  0.00    +0.473 P 
ATOM     14  O   UNL     1     -34.327  19.920   1.953  0.00  0.00    -0.227 OA
BRANCH  13  15
ATOM     15  O   UNL     1     -36.907  19.766   2.468  0.00  0.00    -0.303 OA
ATOM     16  H   UNL     1     -37.420  20.148   1.740  0.00  0.00    +0.222 HD
ENDBRANCH  13  15
BRANCH  13  17
ATOM     17  O   UNL     1     -35.364  20.762   4.219  0.00  0.00    -0.303 OA
ATOM     18  H   UNL     1     -36.204  20.537   4.648  0.00  0.00    +0.222 HD
ENDBRANCH  13  17
ENDBRANCH  12  13
ENDBRANCH  11  12
ENDBRANCH  10  11
ENDBRANCH   1  10
TORSDOF 7
ENDMDL
MODEL 2
REMARK VINA RESULT:      -4.9      3.033      4.295
REMARK  Name = 51794
REMARK  7 active torsions:
REMARK  status: ('A' for Active; 'I' for Inactive)
REMARK    1  A    between atoms: N_1  and  C_10
REMARK    2  A    between atoms: C_4  and  N_9
REMARK    3  A    between atoms: C_10  and  C_11
REMARK    4  A    between atoms: C_11  and  O_12
REMARK    5  A    between atoms: O_12  and  P_13
REMARK    6  A    between atoms: P_13  and  O_15
REMARK    7  A    between atoms: P_13  and  O_17
REMARK                            x       y       z     vdW  Elec       q    Type
REMARK                         _______ _______ _______ _____ _____    ______ ____
ROOT
ATOM      1  N   UNL     1     -35.062  23.632   3.765  0.00  0.00    -0.253 N 
ATOM      2  N   UNL     1     -35.761  22.241   5.329  0.00  0.00    -0.230 NA
ATOM      3  C   UNL     1     -35.507  22.380   4.047  0.00  0.00    +0.114 C 
ATOM      4  C   UNL     1     -35.024  24.345   4.920  0.00  0.00    +0.218 C 
ATOM      5  C   UNL     1     -35.463  23.463   5.878  0.00  0.00    +0.140 C 
ATOM      6  C   UNL     1     -35.667  21.338   3.013  0.00  0.00    +0.069 C 
ENDROOT
BRANCH   4   9
ATOM      7  O   UNL     1     -33.382  25.952   5.107  0.00  0.00    -0.125 OA
ATOM      8  O   UNL     1     -35.474  26.606   4.988  0.00  0.00    -0.125 OA
ATOM      9  N   UNL     1     -34.613  25.679   5.008  0.00  0.00    +0.074 N 
ENDBRANCH   4   9
BRANCH   1  10
ATOM     10  C   UNL     1     -34.688  24.122   2.440  0.00  0.00    +0.131 C 
BRANCH  10  11
ATOM     11  C   UNL     1     -35.737  25.048   1.842  0.00  0.00    +0.175 C 
BRANCH  11  12
ATOM     12  O   UNL     1     -37.031  24.521   2.081  0.00  0.00    -0.272 OA
BRANCH  12  13
ATOM     13  P   UNL     1     -38.165  25.504   2.688  0.00  0.00    +0.473 P 
ATOM     14  O   UNL     1     -39.492  25.450   1.988  0.00  0.00    -0.227 OA
BRANCH  13  15
ATOM     15  O   UNL     1     -37.449  26.954   2.704  0.00  0.00    -0.303 OA
ATOM     16  H   UNL     1     -36.494  26.842   2.829  0.00  0.00    +0.222 HD
ENDBRANCH  13  15
BRANCH  13  17
ATOM     17  O   UNL     1     -38.202  25.090   4.252  0.00  0.00    -0.303 OA
ATOM     18  H   UNL     1     -37.912  24.170   4.349  0.00  0.00    +0.222 HD
ENDBRANCH  13  17
ENDBRANCH  12  13
ENDBRANCH  11  12
ENDBRANCH  10  11
ENDBRANCH   1  10
TORSDOF 7
ENDMDL
MODEL 3
REMARK VINA RESULT:      -4.7      1.693      2.192
REMARK  Name = 51794
REMARK  7 active torsions:
REMARK  status: ('A' for Active; 'I' for Inactive)
REMARK    1  A    between atoms: N_1  and  C_10
REMARK    2  A    between atoms: C_4  and  N_9
REMARK    3  A    between atoms: C_10  and  C_11
REMARK    4  A    between atoms: C_11  and  O_12
REMARK    5  A    between atoms: O_12  and  P_13
REMARK    6  A    between atoms: P_13  and  O_15
REMARK    7  A    between atoms: P_13  and  O_17
REMARK                            x       y       z     vdW  Elec       q    Type
REMARK                         _______ _______ _______ _____ _____    ______ ____
ROOT
ATOM      1  N   UNL     1     -35.944  23.758   3.770  0.00  0.00    -0.253 N 
ATOM      2  N   UNL     1     -34.318  25.224   4.045  0.00  0.00    -0.230 NA
ATOM      3  C   UNL     1     -35.402  24.934   3.360  0.00  0.00    +0.114 C 
ATOM      4  C   UNL     1     -35.177  23.257   4.772  0.00  0.00    +0.218 C 
ATOM      5  C   UNL     1     -34.172  24.182   4.926  0.00  0.00    +0.140 C 
ATOM      6  C   UNL     1     -35.990  25.750   2.279  0.00  0.00    +0.069 C 
ENDROOT
BRANCH   4   9
ATOM      7  O   UNL     1     -35.051  20.960   4.931  0.00  0.00    -0.125 OA
ATOM      8  O   UNL     1     -36.060  22.065   6.537  0.00  0.00    -0.125 OA
ATOM      9  N   UNL     1     -35.438  22.054   5.436  0.00  0.00    +0.074 N 
ENDBRANCH   4   9
BRANCH   1  10
ATOM     10  C   UNL     1     -37.152  23.143   3.222  0.00  0.00    +0.131 C 
BRANCH  10  11
ATOM     11  C   UNL     1     -36.924  22.534   1.846  0.00  0.00    +0.175 C 
BRANCH  11  12
ATOM     12  O   UNL     1     -35.734  21.764   1.856  0.00  0.00    -0.272 OA
BRANCH  12  13
ATOM     13  P   UNL     1     -35.846  20.167   1.619  0.00  0.00    +0.473 P 
ATOM     14  O   UNL     1     -36.088  19.752   0.197  0.00  0.00    -0.227 OA
BRANCH  13  15
ATOM     15  O   UNL     1     -36.975  19.699   2.679  0.00  0.00    -0.303 OA
ATOM     16  H   UNL     1     -37.234  20.454   3.229  0.00  0.00    +0.222 HD
ENDBRANCH  13  15
BRANCH  13  17
ATOM     17  O   UNL     1     -34.474  19.607   2.268  0.00  0.00    -0.303 OA
ATOM     18  H   UNL     1     -34.065  18.972   1.660  0.00  0.00    +0.222 HD
ENDBRANCH  13  17
ENDBRANCH  12  13
ENDBRANCH  11  12
ENDBRANCH  10  11
ENDBRANCH   1  10
TORSDOF 7
ENDMDL
MODEL 4
REMARK VINA RESULT:      -4.7      2.207      2.843
REMARK  Name = 51794
REMARK  7 active torsions:
REMARK  status: ('A' for Active; 'I' for Inactive)
REMARK    1  A    between atoms: N_1  and  C_10
REMARK    2  A    between atoms: C_4  and  N_9
REMARK    3  A    between atoms: C_10  and  C_11
REMARK    4  A    between atoms: C_11  and  O_12
REMARK    5  A    between atoms: O_12  and  P_13
REMARK    6  A    between atoms: P_13  and  O_15
REMARK    7  A    between atoms: P_13  and  O_17
REMARK                            x       y       z     vdW  Elec       q    Type
REMARK                         _______ _______ _______ _____ _____    ______ ____
ROOT
ATOM      1  N   UNL     1     -36.509  24.234   4.159  0.00  0.00    -0.253 N 
ATOM      2  N   UNL     1     -35.442  25.237   5.810  0.00  0.00    -0.230 NA
ATOM      3  C   UNL     1     -35.760  24.076   5.281  0.00  0.00    +0.114 C 
ATOM      4  C   UNL     1     -36.688  25.562   3.945  0.00  0.00    +0.218 C 
ATOM      5  C   UNL     1     -36.019  26.167   4.982  0.00  0.00    +0.140 C 
ATOM      6  C   UNL     1     -35.373  22.750   5.804  0.00  0.00    +0.069 C 
ENDROOT
BRANCH   4   9
ATOM      7  O   UNL     1     -36.818  26.383   1.794  0.00  0.00    -0.125 OA
ATOM      8  O   UNL     1     -38.658  26.286   2.988  0.00  0.00    -0.125 OA
ATOM      9  N   UNL     1     -37.412  26.095   2.873  0.00  0.00    +0.074 N 
ENDBRANCH   4   9
BRANCH   1  10
ATOM     10  C   UNL     1     -37.027  23.151   3.326  0.00  0.00    +0.131 C 
BRANCH  10  11
ATOM     11  C   UNL     1     -36.143  22.868   2.120  0.00  0.00    +0.175 C 
BRANCH  11  12
ATOM     12  O   UNL     1     -35.305  21.757   2.392  0.00  0.00    -0.272 OA
BRANCH  12  13
ATOM     13  P   UNL     1     -35.638  20.345   1.675  0.00  0.00    +0.473 P 
ATOM     14  O   UNL     1     -35.979  20.439   0.216  0.00  0.00    -0.227 OA
BRANCH  13  15
ATOM     15  O   UNL     1     -36.786  19.698   2.613  0.00  0.00    -0.303 OA
ATOM     16  H   UNL     1     -36.677  18.735   2.641  0.00  0.00    +0.222 HD
ENDBRANCH  13  15
BRANCH  13  17
ATOM     17  O   UNL     1     -34.333  19.450   2.014  0.00  0.00    -0.303 OA
ATOM     18  H   UNL     1     -34.130  18.877   1.258  0.00  0.00    +0.222 HD
ENDBRANCH  13  17
ENDBRANCH  12  13
ENDBRANCH  11  12
ENDBRANCH  10  11
ENDBRANCH   1  10
TORSDOF 7
ENDMDL
MODEL 5
REMARK VINA RESULT:      -4.6      3.498      5.235
REMARK  Name = 51794
REMARK  7 active torsions:
REMARK  status: ('A' for Active; 'I' for Inactive)
REMARK    1  A    between atoms: N_1  and  C_10
REMARK    2  A    between atoms: C_4  and  N_9
REMARK    3  A    between atoms: C_10  and  C_11
REMARK    4  A    between atoms: C_11  and  O_12
REMARK    5  A    between atoms: O_12  and  P_13
REMARK    6  A    between atoms: P_13  and  O_15
REMARK    7  A    between atoms: P_13  and  O_17
REMARK                            x       y       z     vdW  Elec       q    Type
REMARK                         _______ _______ _______ _____ _____    ______ ____
ROOT
ATOM      1  N   UNL     1     -35.849  23.296   4.389  0.00  0.00    -0.253 N 
ATOM      2  N   UNL     1     -35.449  21.177   3.920  0.00  0.00    -0.230 NA
ATOM      3  C   UNL     1     -35.455  22.087   4.868  0.00  0.00    +0.114 C 
ATOM      4  C   UNL     1     -36.114  23.167   3.064  0.00  0.00    +0.218 C 
ATOM      5  C   UNL     1     -35.858  21.844   2.793  0.00  0.00    +0.140 C 
ATOM      6  C   UNL     1     -35.091  21.869   6.283  0.00  0.00    +0.069 C 
ENDROOT
BRANCH   4   9
ATOM      7  O   UNL     1     -35.794  24.641   1.320  0.00  0.00    -0.125 OA
ATOM      8  O   UNL     1     -37.688  24.729   2.427  0.00  0.00    -0.125 OA
ATOM      9  N   UNL     1     -36.547  24.214   2.243  0.00  0.00    +0.074 N 
ENDBRANCH   4   9
BRANCH   1  10
ATOM     10  C   UNL     1     -35.969  24.522   5.174  0.00  0.00    +0.131 C 
BRANCH  10  11
ATOM     11  C   UNL     1     -34.731  25.402   5.074  0.00  0.00    +0.175 C 
BRANCH  11  12
ATOM     12  O   UNL     1     -35.118  26.747   4.849  0.00  0.00    -0.272 OA
BRANCH  12  13
ATOM     13  P   UNL     1     -34.729  27.435   3.435  0.00  0.00    +0.473 P 
ATOM     14  O   UNL     1     -34.051  28.769   3.545  0.00  0.00    -0.227 OA
BRANCH  13  15
ATOM     15  O   UNL     1     -36.121  27.431   2.611  0.00  0.00    -0.303 OA
ATOM     16  H   UNL     1     -35.934  27.424   1.660  0.00  0.00    +0.222 HD
ENDBRANCH  13  15
BRANCH  13  17
ATOM     17  O   UNL     1     -33.859  26.285   2.700  0.00  0.00    -0.303 OA
ATOM     18  H   UNL     1     -34.423  25.515   2.529  0.00  0.00    +0.222 HD
ENDBRANCH  13  17
ENDBRANCH  12  13
ENDBRANCH  11  12
ENDBRANCH  10  11
ENDBRANCH   1  10
TORSDOF 7
ENDMDL
MODEL 6
REMARK VINA RESULT:      -4.6      3.606      4.744
REMARK  Name = 51794
REMARK  7 active torsions:
REMARK  status: ('A' for Active; 'I' for Inactive)
REMARK    1  A    between atoms: N_1  and  C_10
REMARK    2  A    between atoms: C_4  and  N_9
REMARK    3  A    between atoms: C_10  and  C_11
REMARK    4  A    between atoms: C_11  and  O_12
REMARK    5  A    between atoms: O_12  and  P_13
REMARK    6  A    between atoms: P_13  and  O_15
REMARK    7  A    between atoms: P_13  and  O_17
REMARK                            x       y       z     vdW  Elec       q    Type
REMARK                         _______ _______ _______ _____ _____    ______ ____
ROOT
ATOM      1  N   UNL     1     -35.480  23.042   3.992  0.00  0.00    -0.253 N 
ATOM      2  N   UNL     1     -35.229  21.273   5.286  0.00  0.00    -0.230 NA
ATOM      3  C   UNL     1     -35.397  21.688   4.050  0.00  0.00    +0.114 C 
ATOM      4  C   UNL     1     -35.360  23.535   5.251  0.00  0.00    +0.218 C 
ATOM      5  C   UNL     1     -35.206  22.420   6.039  0.00  0.00    +0.140 C 
ATOM      6  C   UNL     1     -35.488  20.830   2.852  0.00  0.00    +0.069 C 
ENDROOT
BRANCH   4   9
ATOM      7  O   UNL     1     -36.482  25.539   5.455  0.00  0.00    -0.125 OA
ATOM      8  O   UNL     1     -34.349  25.479   5.971  0.00  0.00    -0.125 OA
ATOM      9  N   UNL     1     -35.398  24.897   5.570  0.00  0.00    +0.074 N 
ENDBRANCH   4   9
BRANCH   1  10
ATOM     10  C   UNL     1     -35.665  23.830   2.774  0.00  0.00    +0.131 C 
BRANCH  10  11
ATOM     11  C   UNL     1     -34.411  24.599   2.382  0.00  0.00    +0.175 C 
BRANCH  11  12
ATOM     12  O   UNL     1     -34.754  25.932   2.047  0.00  0.00    -0.272 OA
BRANCH  12  13
ATOM     13  P   UNL     1     -33.977  27.141   2.794  0.00  0.00    +0.473 P 
ATOM     14  O   UNL     1     -33.426  28.199   1.884  0.00  0.00    -0.227 OA
BRANCH  13  15
ATOM     15  O   UNL     1     -32.885  26.383   3.716  0.00  0.00    -0.303 OA
ATOM     16  H   UNL     1     -32.875  25.439   3.496  0.00  0.00    +0.222 HD
ENDBRANCH  13  15
BRANCH  13  17
ATOM     17  O   UNL     1     -35.069  27.664   3.867  0.00  0.00    -0.303 OA
ATOM     18  H   UNL     1     -34.760  28.495   4.262  0.00  0.00    +0.222 HD
ENDBRANCH  13  17
ENDBRANCH  12  13
ENDBRANCH  11  12
ENDBRANCH  10  11
ENDBRANCH   1  10
TORSDOF 7
ENDMDL
MODEL 7
REMARK VINA RESULT:      -4.5      2.790      4.283
REMARK  Name = 51794
REMARK  7 active torsions:
REMARK  status: ('A' for Active; 'I' for Inactive)
REMARK    1  A    between atoms: N_1  and  C_10
REMARK    2  A    between atoms: C_4  and  N_9
REMARK    3  A    between atoms: C_10  and  C_11
REMARK    4  A    between atoms: C_11  and  O_12
REMARK    5  A    between atoms: O_12  and  P_13
REMARK    6  A    between atoms: P_13  and  O_15
REMARK    7  A    between atoms: P_13  and  O_17
REMARK                            x       y       z     vdW  Elec       q    Type
REMARK                         _______ _______ _______ _____ _____    ______ ____
ROOT
ATOM      1  N   UNL     1     -35.172  23.493   3.897  0.00  0.00    -0.253 N 
ATOM      2  N   UNL     1     -34.389  24.628   5.620  0.00  0.00    -0.230 NA
ATOM      3  C   UNL     1     -34.995  23.524   5.244  0.00  0.00    +0.114 C 
ATOM      4  C   UNL     1     -34.655  24.632   3.369  0.00  0.00    +0.218 C 
ATOM      5  C   UNL     1     -34.176  25.323   4.456  0.00  0.00    +0.140 C 
ATOM      6  C   UNL     1     -35.441  22.433   6.133  0.00  0.00    +0.069 C 
ENDROOT
BRANCH   4   9
ATOM      7  O   UNL     1     -33.770  24.455   1.247  0.00  0.00    -0.125 OA
ATOM      8  O   UNL     1     -35.556  25.700   1.534  0.00  0.00    -0.125 OA
ATOM      9  N   UNL     1     -34.661  24.940   2.005  0.00  0.00    +0.074 N 
ENDBRANCH   4   9
BRANCH   1  10
ATOM     10  C   UNL     1     -35.809  22.411   3.149  0.00  0.00    +0.131 C 
BRANCH  10  11
ATOM     11  C   UNL     1     -37.227  22.756   2.718  0.00  0.00    +0.175 C 
BRANCH  11  12
ATOM     12  O   UNL     1     -37.811  23.640   3.660  0.00  0.00    -0.272 OA
BRANCH  12  13
ATOM     13  P   UNL     1     -38.642  24.915   3.109  0.00  0.00    +0.473 P 
ATOM     14  O   UNL     1     -38.926  24.899   1.636  0.00  0.00    -0.227 OA
BRANCH  13  15
ATOM     15  O   UNL     1     -37.791  26.186   3.637  0.00  0.00    -0.303 OA
ATOM     16  H   UNL     1     -36.849  26.038   3.463  0.00  0.00    +0.222 HD
ENDBRANCH  13  15
BRANCH  13  17
ATOM     17  O   UNL     1     -39.954  24.928   4.057  0.00  0.00    -0.303 OA
ATOM     18  H   UNL     1     -40.745  24.789   3.513  0.00  0.00    +0.222 HD
ENDBRANCH  13  17
ENDBRANCH  12  13
ENDBRANCH  11  12
ENDBRANCH  10  11
ENDBRANCH   1  10
TORSDOF 7
ENDMDL
MODEL 8
REMARK VINA RESULT:      -4.5      2.421      3.992
REMARK  Name = 51794
REMARK  7 active torsions:
REMARK  status: ('A' for Active; 'I' for Inactive)
REMARK    1  A    between atoms: N_1  and  C_10
REMARK    2  A    between atoms: C_4  and  N_9
REMARK    3  A    between atoms: C_10  and  C_11
REMARK    4  A    between atoms: C_11  and  O_12
REMARK    5  A    between atoms: O_12  and  P_13
REMARK    6  A    between atoms: P_13  and  O_15
REMARK    7  A    between atoms: P_13  and  O_17
REMARK                            x       y       z     vdW  Elec       q    Type
REMARK                         _______ _______ _______ _____ _____    ______ ____
ROOT
ATOM      1  N   UNL     1     -35.428  23.602   3.192  0.00  0.00    -0.253 N 
ATOM      2  N   UNL     1     -33.973  25.188   3.679  0.00  0.00    -0.230 NA
ATOM      3  C   UNL     1     -34.795  24.725   2.763  0.00  0.00    +0.114 C 
ATOM      4  C   UNL     1     -34.999  23.319   4.448  0.00  0.00    +0.218 C 
ATOM      5  C   UNL     1     -34.095  24.315   4.731  0.00  0.00    +0.140 C 
ATOM      6  C   UNL     1     -35.032  25.316   1.431  0.00  0.00    +0.069 C 
ENDROOT
BRANCH   4   9
ATOM      7  O   UNL     1     -35.137  21.053   4.848  0.00  0.00    -0.125 OA
ATOM      8  O   UNL     1     -36.143  22.421   6.238  0.00  0.00    -0.125 OA
ATOM      9  N   UNL     1     -35.442  22.228   5.204  0.00  0.00    +0.074 N 
ENDBRANCH   4   9
BRANCH   1  10
ATOM     10  C   UNL     1     -36.408  22.835   2.425  0.00  0.00    +0.131 C 
BRANCH  10  11
ATOM     11  C   UNL     1     -37.842  23.194   2.786  0.00  0.00    +0.175 C 
BRANCH  11  12
ATOM     12  O   UNL     1     -38.232  24.363   2.086  0.00  0.00    -0.272 OA
BRANCH  12  13
ATOM     13  P   UNL     1     -38.884  25.585   2.925  0.00  0.00    +0.473 P 
ATOM     14  O   UNL     1     -39.539  26.647   2.092  0.00  0.00    -0.227 OA
BRANCH  13  15
ATOM     15  O   UNL     1     -37.672  26.093   3.868  0.00  0.00    -0.303 OA
ATOM     16  H   UNL     1     -37.947  26.055   4.797  0.00  0.00    +0.222 HD
ENDBRANCH  13  15
BRANCH  13  17
ATOM     17  O   UNL     1     -39.868  24.826   3.961  0.00  0.00    -0.303 OA
ATOM     18  H   UNL     1     -40.574  24.381   3.468  0.00  0.00    +0.222 HD
ENDBRANCH  13  17
ENDBRANCH  12  13
ENDBRANCH  11  12
ENDBRANCH  10  11
ENDBRANCH   1  10
TORSDOF 7
ENDMDL
MODEL 9
REMARK VINA RESULT:      -4.5      2.833      3.877
REMARK  Name = 51794
REMARK  7 active torsions:
REMARK  status: ('A' for Active; 'I' for Inactive)
REMARK    1  A    between atoms: N_1  and  C_10
REMARK    2  A    between atoms: C_4  and  N_9
REMARK    3  A    between atoms: C_10  and  C_11
REMARK    4  A    between atoms: C_11  and  O_12
REMARK    5  A    between atoms: O_12  and  P_13
REMARK    6  A    between atoms: P_13  and  O_15
REMARK    7  A    between atoms: P_13  and  O_17
REMARK                            x       y       z     vdW  Elec       q    Type
REMARK                         _______ _______ _______ _____ _____    ______ ____
ROOT
ATOM      1  N   UNL     1     -35.494  22.857   3.876  0.00  0.00    -0.253 N 
ATOM      2  N   UNL     1     -35.126  21.096   5.153  0.00  0.00    -0.230 NA
ATOM      3  C   UNL     1     -35.417  21.502   3.938  0.00  0.00    +0.114 C 
ATOM      4  C   UNL     1     -35.239  23.359   5.111  0.00  0.00    +0.218 C 
ATOM      5  C   UNL     1     -35.014  22.248   5.889  0.00  0.00    +0.140 C 
ATOM      6  C   UNL     1     -35.640  20.635   2.763  0.00  0.00    +0.069 C 
ENDROOT
BRANCH   4   9
ATOM      7  O   UNL     1     -34.142  25.367   5.394  0.00  0.00    -0.125 OA
ATOM      8  O   UNL     1     -36.312  25.307   5.721  0.00  0.00    -0.125 OA
ATOM      9  N   UNL     1     -35.231  24.723   5.419  0.00  0.00    +0.074 N 
ENDBRANCH   4   9
BRANCH   1  10
ATOM     10  C   UNL     1     -35.797  23.636   2.677  0.00  0.00    +0.131 C 
BRANCH  10  11
ATOM     11  C   UNL     1     -37.250  24.086   2.625  0.00  0.00    +0.175 C 
BRANCH  11  12
ATOM     12  O   UNL     1     -38.096  23.012   2.996  0.00  0.00    -0.272 OA
BRANCH  12  13
ATOM     13  P   UNL     1     -39.156  22.452   1.908  0.00  0.00    +0.473 P 
ATOM     14  O   UNL     1     -40.442  23.221   1.822  0.00  0.00    -0.227 OA
BRANCH  13  15
ATOM     15  O   UNL     1     -39.309  20.888   2.289  0.00  0.00    -0.303 OA
ATOM     16  H   UNL     1     -40.178  20.568   2.002  0.00  0.00    +0.222 HD
ENDBRANCH  13  15
BRANCH  13  17
ATOM     17  O   UNL     1     -38.289  22.419   0.542  0.00  0.00    -0.303 OA
ATOM     18  H   UNL     1     -37.396  22.091   0.736  0.00  0.00    +0.222 HD
ENDBRANCH  13  17
ENDBRANCH  12  13
ENDBRANCH  11  12
ENDBRANCH  10  11
ENDBRANCH   1  10
TORSDOF 7
ENDMDL
