MODEL 1
REMARK VINA RESULT:      -5.8      0.000      0.000
REMARK  Name = 194687
REMARK  4 active torsions:
REMARK  status: ('A' for Active; 'I' for Inactive)
REMARK    1  A    between atoms: C_1  and  C_13
REMARK    2  A    between atoms: C_1  and  C_19
REMARK    3  A    between atoms: C_2  and  C_3
REMARK    4  A    between atoms: C_6  and  N_11
REMARK                            x       y       z     vdW  Elec       q    Type
REMARK                         _______ _______ _______ _____ _____    ______ ____
ROOT
ATOM      1  C   UNL     1     -32.650  27.388   5.358  0.00  0.00    +0.088 C 
ATOM      2  C   UNL     1     -33.433  26.517   6.000  0.00  0.00    +0.008 C 
ENDROOT
BRANCH   2   3
ATOM      3  C   UNL     1     -34.442  25.710   5.333  0.00  0.00    +0.000 C 
ATOM      4  C   UNL     1     -34.098  24.475   4.785  0.00  0.00    +0.002 C 
ATOM      5  C   UNL     1     -35.756  26.172   5.242  0.00  0.00    +0.002 C 
ATOM      6  C   UNL     1     -36.380  24.163   4.056  0.00  0.00    +0.143 C 
ATOM      7  C   UNL     1     -35.067  23.701   4.146  0.00  0.00    +0.024 C 
ATOM      8  C   UNL     1     -36.724  25.398   4.604  0.00  0.00    +0.024 C 
BRANCH   6  11
ATOM      9  O   UNL     1     -38.539  23.813   3.335  0.00  0.00    -0.126 OA
ATOM     10  O   UNL     1     -37.030  22.268   2.921  0.00  0.00    -0.126 OA
ATOM     11  N   UNL     1     -37.366  23.375   3.405  0.00  0.00    +0.058 N 
ENDBRANCH   6  11
ENDBRANCH   2   3
BRANCH   1  13
ATOM     12  O   UNL     1     -30.357  27.820   6.026  0.00  0.00    -0.450 OA
ATOM     13  C   UNL     1     -31.656  28.181   6.019  0.00  0.00    +0.150 C 
ATOM     14  C   UNL     1     -31.863  29.347   6.697  0.00  0.00    +0.041 C 
ATOM     15  C   UNL     1     -30.588  29.745   7.164  0.00  0.00    +0.044 C 
ATOM     16  C   UNL     1     -29.705  28.783   6.729  0.00  0.00    +0.180 C 
ENDBRANCH   1  13
BRANCH   1  19
ATOM     17  O   UNL     1     -32.321  26.750   3.067  0.00  0.00    -0.270 OA
ATOM     18  N   UNL     1     -33.748  28.485   3.479  0.00  0.00    -0.325 N 
ATOM     19  C   UNL     1     -32.875  27.496   3.873  0.00  0.00    +0.246 C 
ATOM     20  H   UNL     1     -33.945  28.616   2.524  0.00  0.00    +0.145 HD
ATOM     21  H   UNL     1     -34.175  29.061   4.154  0.00  0.00    +0.145 HD
ENDBRANCH   1  19
TORSDOF 4
ENDMDL
MODEL 2
REMARK VINA RESULT:      -5.6      1.940      2.709
REMARK  Name = 194687
REMARK  4 active torsions:
REMARK  status: ('A' for Active; 'I' for Inactive)
REMARK    1  A    between atoms: C_1  and  C_13
REMARK    2  A    between atoms: C_1  and  C_19
REMARK    3  A    between atoms: C_2  and  C_3
REMARK    4  A    between atoms: C_6  and  N_11
REMARK                            x       y       z     vdW  Elec       q    Type
REMARK                         _______ _______ _______ _____ _____    ______ ____
ROOT
ATOM      1  C   UNL     1     -34.029  26.356   4.722  0.00  0.00    +0.088 C 
ATOM      2  C   UNL     1     -33.643  25.092   4.520  0.00  0.00    +0.008 C 
ENDROOT
BRANCH   2   3
ATOM      3  C   UNL     1     -34.504  24.081   3.928  0.00  0.00    +0.000 C 
ATOM      4  C   UNL     1     -34.645  24.010   2.543  0.00  0.00    +0.002 C 
ATOM      5  C   UNL     1     -35.188  23.181   4.746  0.00  0.00    +0.002 C 
ATOM      6  C   UNL     1     -36.154  22.139   2.793  0.00  0.00    +0.143 C 
ATOM      7  C   UNL     1     -35.470  23.039   1.975  0.00  0.00    +0.024 C 
ATOM      8  C   UNL     1     -36.013  22.211   4.179  0.00  0.00    +0.024 C 
BRANCH   6  11
ATOM      9  O   UNL     1     -36.520  20.011   1.993  0.00  0.00    -0.126 OA
ATOM     10  O   UNL     1     -38.182  21.452   1.947  0.00  0.00    -0.126 OA
ATOM     11  N   UNL     1     -36.994  21.151   2.215  0.00  0.00    +0.058 N 
ENDBRANCH   6  11
ENDBRANCH   2   3
BRANCH   1  13
ATOM     12  O   UNL     1     -32.843  28.472   4.638  0.00  0.00    -0.450 OA
ATOM     13  C   UNL     1     -33.177  27.349   5.306  0.00  0.00    +0.150 C 
ATOM     14  C   UNL     1     -32.612  27.310   6.548  0.00  0.00    +0.041 C 
ATOM     15  C   UNL     1     -31.866  28.507   6.662  0.00  0.00    +0.044 C 
ATOM     16  C   UNL     1     -32.039  29.179   5.474  0.00  0.00    +0.180 C 
ENDBRANCH   1  13
BRANCH   1  19
ATOM     17  O   UNL     1     -35.705  27.081   3.164  0.00  0.00    -0.270 OA
ATOM     18  N   UNL     1     -36.400  26.504   5.262  0.00  0.00    -0.325 N 
ATOM     19  C   UNL     1     -35.435  26.684   4.297  0.00  0.00    +0.246 C 
ATOM     20  H   UNL     1     -37.343  26.698   5.058  0.00  0.00    +0.145 HD
ATOM     21  H   UNL     1     -36.146  26.182   6.157  0.00  0.00    +0.145 HD
ENDBRANCH   1  19
TORSDOF 4
ENDMDL
MODEL 3
REMARK VINA RESULT:      -5.6      2.574      3.649
REMARK  Name = 194687
REMARK  4 active torsions:
REMARK  status: ('A' for Active; 'I' for Inactive)
REMARK    1  A    between atoms: C_1  and  C_13
REMARK    2  A    between atoms: C_1  and  C_19
REMARK    3  A    between atoms: C_2  and  C_3
REMARK    4  A    between atoms: C_6  and  N_11
REMARK                            x       y       z     vdW  Elec       q    Type
REMARK                         _______ _______ _______ _____ _____    ______ ____
ROOT
ATOM      1  C   UNL     1     -34.124  28.039   3.413  0.00  0.00    +0.088 C 
ATOM      2  C   UNL     1     -35.202  27.261   3.273  0.00  0.00    +0.008 C 
ENDROOT
BRANCH   2   3
ATOM      3  C   UNL     1     -35.282  25.910   3.804  0.00  0.00    +0.000 C 
ATOM      4  C   UNL     1     -35.693  25.701   5.120  0.00  0.00    +0.002 C 
ATOM      5  C   UNL     1     -34.951  24.821   2.996  0.00  0.00    +0.002 C 
ATOM      6  C   UNL     1     -35.440  23.317   4.820  0.00  0.00    +0.143 C 
ATOM      7  C   UNL     1     -35.771  24.404   5.629  0.00  0.00    +0.024 C 
ATOM      8  C   UNL     1     -35.030  23.525   3.504  0.00  0.00    +0.024 C 
BRANCH   6  11
ATOM      9  O   UNL     1     -35.205  21.037   4.596  0.00  0.00    -0.126 OA
ATOM     10  O   UNL     1     -35.902  21.836   6.522  0.00  0.00    -0.126 OA
ATOM     11  N   UNL     1     -35.520  21.996   5.339  0.00  0.00    +0.058 N 
ENDBRANCH   6  11
ENDBRANCH   2   3
BRANCH   1  13
ATOM     12  O   UNL     1     -33.972  30.444   3.700  0.00  0.00    -0.450 OA
ATOM     13  C   UNL     1     -34.049  29.371   2.888  0.00  0.00    +0.150 C 
ATOM     14  C   UNL     1     -34.043  29.728   1.571  0.00  0.00    +0.041 C 
ATOM     15  C   UNL     1     -33.955  31.140   1.563  0.00  0.00    +0.044 C 
ATOM     16  C   UNL     1     -33.913  31.528   2.882  0.00  0.00    +0.180 C 
ENDBRANCH   1  13
BRANCH   1  19
ATOM     17  O   UNL     1     -32.180  26.649   3.634  0.00  0.00    -0.270 OA
ATOM     18  N   UNL     1     -32.860  27.806   5.483  0.00  0.00    -0.325 N 
ATOM     19  C   UNL     1     -32.971  27.428   4.164  0.00  0.00    +0.246 C 
ATOM     20  H   UNL     1     -32.130  27.448   6.038  0.00  0.00    +0.145 HD
ATOM     21  H   UNL     1     -33.510  28.435   5.871  0.00  0.00    +0.145 HD
ENDBRANCH   1  19
TORSDOF 4
ENDMDL
MODEL 4
REMARK VINA RESULT:      -5.5      2.620      7.479
REMARK  Name = 194687
REMARK  4 active torsions:
REMARK  status: ('A' for Active; 'I' for Inactive)
REMARK    1  A    between atoms: C_1  and  C_13
REMARK    2  A    between atoms: C_1  and  C_19
REMARK    3  A    between atoms: C_2  and  C_3
REMARK    4  A    between atoms: C_6  and  N_11
REMARK                            x       y       z     vdW  Elec       q    Type
REMARK                         _______ _______ _______ _____ _____    ______ ____
ROOT
ATOM      1  C   UNL     1     -37.227  23.587   2.676  0.00  0.00    +0.088 C 
ATOM      2  C   UNL     1     -35.975  23.381   3.095  0.00  0.00    +0.008 C 
ENDROOT
BRANCH   2   3
ATOM      3  C   UNL     1     -35.184  24.398   3.770  0.00  0.00    +0.000 C 
ATOM      4  C   UNL     1     -34.280  25.174   3.046  0.00  0.00    +0.002 C 
ATOM      5  C   UNL     1     -35.331  24.598   5.144  0.00  0.00    +0.002 C 
ATOM      6  C   UNL     1     -33.670  26.349   5.066  0.00  0.00    +0.143 C 
ATOM      7  C   UNL     1     -33.523  26.150   3.694  0.00  0.00    +0.024 C 
ATOM      8  C   UNL     1     -34.574  25.573   5.791  0.00  0.00    +0.024 C 
BRANCH   6  11
ATOM      9  O   UNL     1     -32.825  28.486   5.215  0.00  0.00    -0.126 OA
ATOM     10  O   UNL     1     -32.320  27.044   6.797  0.00  0.00    -0.126 OA
ATOM     11  N   UNL     1     -32.899  27.343   5.726  0.00  0.00    +0.058 N 
ENDBRANCH   6  11
ENDBRANCH   2   3
BRANCH   1  13
ATOM     12  O   UNL     1     -39.333  22.476   2.205  0.00  0.00    -0.450 OA
ATOM     13  C   UNL     1     -38.003  22.582   2.010  0.00  0.00    +0.150 C 
ATOM     14  C   UNL     1     -37.540  21.642   1.136  0.00  0.00    +0.041 C 
ATOM     15  C   UNL     1     -38.676  20.890   0.754  0.00  0.00    +0.044 C 
ATOM     16  C   UNL     1     -39.742  21.436   1.431  0.00  0.00    +0.180 C 
ENDBRANCH   1  13
BRANCH   1  19
ATOM     17  O   UNL     1     -37.502  25.932   2.247  0.00  0.00    -0.270 OA
ATOM     18  N   UNL     1     -38.647  25.046   4.015  0.00  0.00    -0.325 N 
ATOM     19  C   UNL     1     -37.788  24.958   2.942  0.00  0.00    +0.246 C 
ATOM     20  H   UNL     1     -39.053  25.911   4.250  0.00  0.00    +0.145 HD
ATOM     21  H   UNL     1     -38.853  24.243   4.546  0.00  0.00    +0.145 HD
ENDBRANCH   1  19
TORSDOF 4
ENDMDL
MODEL 5
REMARK VINA RESULT:      -5.4      2.773      6.415
REMARK  Name = 194687
REMARK  4 active torsions:
REMARK  status: ('A' for Active; 'I' for Inactive)
REMARK    1  A    between atoms: C_1  and  C_13
REMARK    2  A    between atoms: C_1  and  C_19
REMARK    3  A    between atoms: C_2  and  C_3
REMARK    4  A    between atoms: C_6  and  N_11
REMARK                            x       y       z     vdW  Elec       q    Type
REMARK                         _______ _______ _______ _____ _____    ______ ____
ROOT
ATOM      1  C   UNL     1     -34.695  24.952   4.485  0.00  0.00    +0.088 C 
ATOM      2  C   UNL     1     -34.162  25.433   3.358  0.00  0.00    +0.008 C 
ENDROOT
BRANCH   2   3
ATOM      3  C   UNL     1     -33.899  26.847   3.142  0.00  0.00    +0.000 C 
ATOM      4  C   UNL     1     -32.636  27.371   3.413  0.00  0.00    +0.002 C 
ATOM      5  C   UNL     1     -34.911  27.679   2.660  0.00  0.00    +0.002 C 
ATOM      6  C   UNL     1     -33.396  29.558   2.723  0.00  0.00    +0.143 C 
ATOM      7  C   UNL     1     -32.384  28.727   3.204  0.00  0.00    +0.024 C 
ATOM      8  C   UNL     1     -34.659  29.034   2.451  0.00  0.00    +0.024 C 
BRANCH   6  11
ATOM      9  O   UNL     1     -32.100  31.271   1.892  0.00  0.00    -0.126 OA
ATOM     10  O   UNL     1     -33.961  31.779   2.947  0.00  0.00    -0.126 OA
ATOM     11  N   UNL     1     -33.139  30.939   2.510  0.00  0.00    +0.058 N 
ENDBRANCH   6  11
ENDBRANCH   2   3
BRANCH   1  13
ATOM     12  O   UNL     1     -35.230  22.730   3.666  0.00  0.00    -0.450 OA
ATOM     13  C   UNL     1     -34.953  23.557   4.694  0.00  0.00    +0.150 C 
ATOM     14  C   UNL     1     -34.955  22.900   5.890  0.00  0.00    +0.041 C 
ATOM     15  C   UNL     1     -35.257  21.553   5.581  0.00  0.00    +0.044 C 
ATOM     16  C   UNL     1     -35.416  21.501   4.215  0.00  0.00    +0.180 C 
ENDBRANCH   1  13
BRANCH   1  19
ATOM     17  O   UNL     1     -34.171  26.415   6.314  0.00  0.00    -0.270 OA
ATOM     18  N   UNL     1     -36.334  26.385   5.580  0.00  0.00    -0.325 N 
ATOM     19  C   UNL     1     -35.020  25.974   5.541  0.00  0.00    +0.246 C 
ATOM     20  H   UNL     1     -36.622  27.052   6.244  0.00  0.00    +0.145 HD
ATOM     21  H   UNL     1     -36.985  26.011   4.943  0.00  0.00    +0.145 HD
ENDBRANCH   1  19
TORSDOF 4
ENDMDL
MODEL 6
REMARK VINA RESULT:      -5.4      4.059      8.348
REMARK  Name = 194687
REMARK  4 active torsions:
REMARK  status: ('A' for Active; 'I' for Inactive)
REMARK    1  A    between atoms: C_1  and  C_13
REMARK    2  A    between atoms: C_1  and  C_19
REMARK    3  A    between atoms: C_2  and  C_3
REMARK    4  A    between atoms: C_6  and  N_11
REMARK                            x       y       z     vdW  Elec       q    Type
REMARK                         _______ _______ _______ _____ _____    ______ ____
ROOT
ATOM      1  C   UNL     1     -36.294  20.727   1.496  0.00  0.00    +0.088 C 
ATOM      2  C   UNL     1     -35.237  21.081   2.234  0.00  0.00    +0.008 C 
ENDROOT
BRANCH   2   3
ATOM      3  C   UNL     1     -35.211  22.270   3.069  0.00  0.00    +0.000 C 
ATOM      4  C   UNL     1     -35.612  22.195   4.403  0.00  0.00    +0.002 C 
ATOM      5  C   UNL     1     -34.782  23.487   2.538  0.00  0.00    +0.002 C 
ATOM      6  C   UNL     1     -35.157  24.552   4.673  0.00  0.00    +0.143 C 
ATOM      7  C   UNL     1     -35.586  23.336   5.205  0.00  0.00    +0.024 C 
ATOM      8  C   UNL     1     -34.755  24.627   3.339  0.00  0.00    +0.024 C 
BRANCH   6  11
ATOM      9  O   UNL     1     -36.190  26.364   5.648  0.00  0.00    -0.126 OA
ATOM     10  O   UNL     1     -34.047  26.048   6.026  0.00  0.00    -0.126 OA
ATOM     11  N   UNL     1     -35.130  25.714   5.490  0.00  0.00    +0.058 N 
ENDBRANCH   6  11
ENDBRANCH   2   3
BRANCH   1  13
ATOM     12  O   UNL     1     -37.476  18.998   0.270  0.00  0.00    -0.450 OA
ATOM     13  C   UNL     1     -36.316  19.554   0.673  0.00  0.00    +0.150 C 
ATOM     14  C   UNL     1     -35.234  18.867   0.205  0.00  0.00    +0.041 C 
ATOM     15  C   UNL     1     -35.764  17.797  -0.553  0.00  0.00    +0.044 C 
ATOM     16  C   UNL     1     -37.132  17.921  -0.483  0.00  0.00    +0.180 C 
ENDBRANCH   1  13
BRANCH   1  19
ATOM     17  O   UNL     1     -37.537  22.707   0.952  0.00  0.00    -0.270 OA
ATOM     18  N   UNL     1     -38.506  21.220   2.391  0.00  0.00    -0.325 N 
ATOM     19  C   UNL     1     -37.482  21.648   1.576  0.00  0.00    +0.246 C 
ATOM     20  H   UNL     1     -39.317  21.770   2.493  0.00  0.00    +0.145 HD
ATOM     21  H   UNL     1     -38.427  20.365   2.872  0.00  0.00    +0.145 HD
ENDBRANCH   1  19
TORSDOF 4
ENDMDL
MODEL 7
REMARK VINA RESULT:      -5.3      5.435      7.406
REMARK  Name = 194687
REMARK  4 active torsions:
REMARK  status: ('A' for Active; 'I' for Inactive)
REMARK    1  A    between atoms: C_1  and  C_13
REMARK    2  A    between atoms: C_1  and  C_19
REMARK    3  A    between atoms: C_2  and  C_3
REMARK    4  A    between atoms: C_6  and  N_11
REMARK                            x       y       z     vdW  Elec       q    Type
REMARK                         _______ _______ _______ _____ _____    ______ ____
ROOT
ATOM      1  C   UNL     1     -34.623  20.952   1.566  0.00  0.00    +0.088 C 
ATOM      2  C   UNL     1     -34.892  22.181   1.115  0.00  0.00    +0.008 C 
ENDROOT
BRANCH   2   3
ATOM      3  C   UNL     1     -35.993  22.989   1.614  0.00  0.00    +0.000 C 
ATOM      4  C   UNL     1     -35.815  23.790   2.742  0.00  0.00    +0.002 C 
ATOM      5  C   UNL     1     -37.228  22.964   0.964  0.00  0.00    +0.002 C 
ATOM      6  C   UNL     1     -38.105  24.541   2.569  0.00  0.00    +0.143 C 
ATOM      7  C   UNL     1     -36.872  24.566   3.220  0.00  0.00    +0.024 C 
ATOM      8  C   UNL     1     -38.283  23.740   1.442  0.00  0.00    +0.024 C 
BRANCH   6  11
ATOM      9  O   UNL     1     -39.249  26.535   2.711  0.00  0.00    -0.126 OA
ATOM     10  O   UNL     1     -40.026  24.798   3.813  0.00  0.00    -0.126 OA
ATOM     11  N   UNL     1     -39.181  25.331   3.056  0.00  0.00    +0.058 N 
ENDBRANCH   6  11
ENDBRANCH   2   3
BRANCH   1  13
ATOM     12  O   UNL     1     -32.598  20.681   0.256  0.00  0.00    -0.450 OA
ATOM     13  C   UNL     1     -33.537  20.159   1.071  0.00  0.00    +0.150 C 
ATOM     14  C   UNL     1     -33.305  18.840   1.335  0.00  0.00    +0.041 C 
ATOM     15  C   UNL     1     -32.124  18.515   0.626  0.00  0.00    +0.044 C 
ATOM     16  C   UNL     1     -31.732  19.668  -0.013  0.00  0.00    +0.180 C 
ENDBRANCH   1  13
BRANCH   1  19
ATOM     17  O   UNL     1     -35.302  20.579   3.838  0.00  0.00    -0.270 OA
ATOM     18  N   UNL     1     -36.675  19.795   2.189  0.00  0.00    -0.325 N 
ATOM     19  C   UNL     1     -35.542  20.435   2.640  0.00  0.00    +0.246 C 
ATOM     20  H   UNL     1     -37.324  19.430   2.833  0.00  0.00    +0.145 HD
ATOM     21  H   UNL     1     -36.835  19.702   1.222  0.00  0.00    +0.145 HD
ENDBRANCH   1  19
TORSDOF 4
ENDMDL
MODEL 8
REMARK VINA RESULT:      -5.3     11.931     13.982
REMARK  Name = 194687
REMARK  4 active torsions:
REMARK  status: ('A' for Active; 'I' for Inactive)
REMARK    1  A    between atoms: C_1  and  C_13
REMARK    2  A    between atoms: C_1  and  C_19
REMARK    3  A    between atoms: C_2  and  C_3
REMARK    4  A    between atoms: C_6  and  N_11
REMARK                            x       y       z     vdW  Elec       q    Type
REMARK                         _______ _______ _______ _____ _____    ______ ____
ROOT
ATOM      1  C   UNL     1     -46.773  33.466   6.207  0.00  0.00    +0.088 C 
ATOM      2  C   UNL     1     -46.518  32.286   6.780  0.00  0.00    +0.008 C 
ENDROOT
BRANCH   2   3
ATOM      3  C   UNL     1     -45.627  31.294   6.199  0.00  0.00    +0.000 C 
ATOM      4  C   UNL     1     -44.315  31.182   6.658  0.00  0.00    +0.002 C 
ATOM      5  C   UNL     1     -46.086  30.454   5.184  0.00  0.00    +0.002 C 
ATOM      6  C   UNL     1     -43.920  29.389   5.086  0.00  0.00    +0.143 C 
ATOM      7  C   UNL     1     -43.460  30.229   6.101  0.00  0.00    +0.024 C 
ATOM      8  C   UNL     1     -45.232  29.502   4.628  0.00  0.00    +0.024 C 
BRANCH   6  11
ATOM      9  O   UNL     1     -43.549  27.392   4.001  0.00  0.00    -0.126 OA
ATOM     10  O   UNL     1     -41.814  28.625   4.556  0.00  0.00    -0.126 OA
ATOM     11  N   UNL     1     -43.050  28.419   4.520  0.00  0.00    +0.058 N 
ENDBRANCH   6  11
ENDBRANCH   2   3
BRANCH   1  13
ATOM     12  O   UNL     1     -47.885  35.623   6.178  0.00  0.00    -0.450 OA
ATOM     13  C   UNL     1     -47.652  34.440   6.783  0.00  0.00    +0.150 C 
ATOM     14  C   UNL     1     -48.340  34.324   7.955  0.00  0.00    +0.041 C 
ATOM     15  C   UNL     1     -49.062  35.534   8.091  0.00  0.00    +0.044 C 
ATOM     16  C   UNL     1     -48.752  36.290   6.984  0.00  0.00    +0.180 C 
ENDBRANCH   1  13
BRANCH   1  19
ATOM     17  O   UNL     1     -44.864  33.907   4.821  0.00  0.00    -0.270 OA
ATOM     18  N   UNL     1     -46.891  33.718   3.786  0.00  0.00    -0.325 N 
ATOM     19  C   UNL     1     -46.077  33.718   4.896  0.00  0.00    +0.246 C 
ATOM     20  H   UNL     1     -46.507  33.876   2.894  0.00  0.00    +0.145 HD
ATOM     21  H   UNL     1     -47.858  33.560   3.886  0.00  0.00    +0.145 HD
ENDBRANCH   1  19
TORSDOF 4
ENDMDL
MODEL 9
REMARK VINA RESULT:      -5.3      6.190      7.598
REMARK  Name = 194687
REMARK  4 active torsions:
REMARK  status: ('A' for Active; 'I' for Inactive)
REMARK    1  A    between atoms: C_1  and  C_13
REMARK    2  A    between atoms: C_1  and  C_19
REMARK    3  A    between atoms: C_2  and  C_3
REMARK    4  A    between atoms: C_6  and  N_11
REMARK                            x       y       z     vdW  Elec       q    Type
REMARK                         _______ _______ _______ _____ _____    ______ ____
ROOT
ATOM      1  C   UNL     1     -33.910  20.362   0.990  0.00  0.00    +0.088 C 
ATOM      2  C   UNL     1     -34.774  20.217   1.999  0.00  0.00    +0.008 C 
ENDROOT
BRANCH   2   3
ATOM      3  C   UNL     1     -35.953  21.051   2.165  0.00  0.00    +0.000 C 
ATOM      4  C   UNL     1     -37.157  20.683   1.565  0.00  0.00    +0.002 C 
ATOM      5  C   UNL     1     -35.881  22.219   2.925  0.00  0.00    +0.002 C 
ATOM      6  C   UNL     1     -38.216  22.650   2.485  0.00  0.00    +0.143 C 
ATOM      7  C   UNL     1     -38.289  21.483   1.725  0.00  0.00    +0.024 C 
ATOM      8  C   UNL     1     -37.012  23.018   3.085  0.00  0.00    +0.024 C 
BRANCH   6  11
ATOM      9  O   UNL     1     -39.338  24.391   3.491  0.00  0.00    -0.126 OA
ATOM     10  O   UNL     1     -40.378  23.228   1.941  0.00  0.00    -0.126 OA
ATOM     11  N   UNL     1     -39.369  23.464   2.648  0.00  0.00    +0.058 N 
ENDBRANCH   6  11
ENDBRANCH   2   3
BRANCH   1  13
ATOM     12  O   UNL     1     -31.661  19.976   0.165  0.00  0.00    -0.450 OA
ATOM     13  C   UNL     1     -32.749  19.538   0.831  0.00  0.00    +0.150 C 
ATOM     14  C   UNL     1     -32.581  18.268   1.299  0.00  0.00    +0.041 C 
ATOM     15  C   UNL     1     -31.281  17.883   0.893  0.00  0.00    +0.044 C 
ATOM     16  C   UNL     1     -30.762  18.957   0.207  0.00  0.00    +0.180 C 
ENDBRANCH   1  13
BRANCH   1  19
ATOM     17  O   UNL     1     -35.032  21.313  -0.907  0.00  0.00    -0.270 OA
ATOM     18  N   UNL     1     -33.561  22.648   0.221  0.00  0.00    -0.325 N 
ATOM     19  C   UNL     1     -34.228  21.462   0.012  0.00  0.00    +0.246 C 
ATOM     20  H   UNL     1     -33.718  23.413  -0.378  0.00  0.00    +0.145 HD
ATOM     21  H   UNL     1     -32.926  22.730   0.969  0.00  0.00    +0.145 HD
ENDBRANCH   1  19
TORSDOF 4
ENDMDL
