MODEL 1
REMARK VINA RESULT:      -6.4      0.000      0.000
REMARK  Name = 54697562
REMARK  10 active torsions:
REMARK  status: ('A' for Active; 'I' for Inactive)
REMARK    1  A    between atoms: C_3  and  C_9
REMARK    2  A    between atoms: C_4  and  C_20
REMARK    3  A    between atoms: C_5  and  O_17
REMARK    4  A    between atoms: C_14  and  O_15
REMARK    5  A    between atoms: C_20  and  C_22
REMARK    6  A    between atoms: C_21  and  C_24
REMARK    7  A    between atoms: C_23  and  C_26
REMARK    8  A    between atoms: C_26  and  C_27
REMARK    9  A    between atoms: C_26  and  C_29
REMARK   10  A    between atoms: C_29  and  O_30
REMARK                            x       y       z     vdW  Elec       q    Type
REMARK                         _______ _______ _______ _____ _____    ______ ____
ROOT
ATOM      1  O   UNL     1     -34.727  29.538   1.978  0.00  0.00    -0.270 OA
ATOM      2  N   UNL     1     -35.938  27.790   2.838  0.00  0.00    -0.279 N 
ATOM      3  C   UNL     1     -34.895  25.783   3.526  0.00  0.00    +0.049 C 
ATOM      4  C   UNL     1     -33.507  27.594   2.622  0.00  0.00    +0.126 C 
ATOM      5  C   UNL     1     -33.605  26.350   3.140  0.00  0.00    +0.142 C 
ATOM      6  C   UNL     1     -36.003  26.525   3.359  0.00  0.00    +0.067 C 
ATOM      7  C   UNL     1     -34.764  28.402   2.446  0.00  0.00    +0.256 C 
ATOM      8  H   UNL     1     -36.779  28.292   2.738  0.00  0.00    +0.155 HD
ENDROOT
BRANCH   3   9
ATOM      9  C   UNL     1     -35.071  24.430   4.089  0.00  0.00    +0.004 C 
ATOM     10  C   UNL     1     -35.015  24.237   5.468  0.00  0.00    +0.003 C 
ATOM     11  C   UNL     1     -35.293  23.346   3.240  0.00  0.00    +0.003 C 
ATOM     12  C   UNL     1     -35.181  22.958   6.000  0.00  0.00    +0.037 C 
ATOM     13  C   UNL     1     -35.459  22.068   3.772  0.00  0.00    +0.037 C 
ATOM     14  C   UNL     1     -35.402  21.873   5.152  0.00  0.00    +0.134 C 
BRANCH  14  15
ATOM     15  O   UNL     1     -35.562  20.625   5.671  0.00  0.00    -0.506 OA
ATOM     16  H   UNL     1     -36.308  20.432   6.204  0.00  0.00    +0.292 HD
ENDBRANCH  14  15
ENDBRANCH   3   9
BRANCH   5  17
ATOM     17  O   UNL     1     -32.546  25.495   3.367  0.00  0.00    -0.505 OA
ATOM     18  H   UNL     1     -31.917  25.340   2.690  0.00  0.00    +0.292 HD
ENDBRANCH   5  17
BRANCH   4  20
ATOM     19  O   UNL     1     -31.937  28.376   1.054  0.00  0.00    -0.286 OA
ATOM     20  C   UNL     1     -32.212  28.173   2.229  0.00  0.00    +0.203 C 
BRANCH  20  22
ATOM     21  C   UNL     1     -31.791  29.031   4.481  0.00  0.00    -0.001 C 
ATOM     22  C   UNL     1     -31.302  28.478   3.361  0.00  0.00    +0.042 C 
BRANCH  21  24
ATOM     23  C   UNL     1     -29.668  29.122   5.697  0.00  0.00    -0.028 C 
ATOM     24  C   UNL     1     -30.996  29.354   5.663  0.00  0.00    -0.026 C 
ATOM     25  C   UNL     1     -31.800  29.993   6.761  0.00  0.00    +0.031 C 
BRANCH  23  26
ATOM     26  C   UNL     1     -28.695  29.402   6.825  0.00  0.00    +0.051 C 
BRANCH  26  27
ATOM     27  C   UNL     1     -27.587  30.369   6.360  0.00  0.00    +0.007 C 
ATOM     28  C   UNL     1     -26.958  31.159   7.501  0.00  0.00    +0.000 C 
ENDBRANCH  26  27
BRANCH  26  29
ATOM     29  C   UNL     1     -28.066  28.087   7.311  0.00  0.00    +0.141 C 
BRANCH  29  30
ATOM     30  O   UNL     1     -28.968  27.000   7.125  0.00  0.00    -0.382 OA
ATOM     31  H   UNL     1     -28.599  26.201   7.534  0.00  0.00    +0.210 HD
ENDBRANCH  29  30
ENDBRANCH  26  29
ENDBRANCH  23  26
ENDBRANCH  21  24
ENDBRANCH  20  22
ENDBRANCH   4  20
TORSDOF 10
ENDMDL
MODEL 2
REMARK VINA RESULT:      -6.3      5.545      8.825
REMARK  Name = 54697562
REMARK  10 active torsions:
REMARK  status: ('A' for Active; 'I' for Inactive)
REMARK    1  A    between atoms: C_3  and  C_9
REMARK    2  A    between atoms: C_4  and  C_20
REMARK    3  A    between atoms: C_5  and  O_17
REMARK    4  A    between atoms: C_14  and  O_15
REMARK    5  A    between atoms: C_20  and  C_22
REMARK    6  A    between atoms: C_21  and  C_24
REMARK    7  A    between atoms: C_23  and  C_26
REMARK    8  A    between atoms: C_26  and  C_27
REMARK    9  A    between atoms: C_26  and  C_29
REMARK   10  A    between atoms: C_29  and  O_30
REMARK                            x       y       z     vdW  Elec       q    Type
REMARK                         _______ _______ _______ _____ _____    ______ ____
ROOT
ATOM      1  O   UNL     1     -38.240  22.440  -1.685  0.00  0.00    -0.270 OA
ATOM      2  N   UNL     1     -36.399  21.144  -2.126  0.00  0.00    -0.279 N 
ATOM      3  C   UNL     1     -35.796  19.337  -0.726  0.00  0.00    +0.049 C 
ATOM      4  C   UNL     1     -37.785  20.660  -0.166  0.00  0.00    +0.126 C 
ATOM      5  C   UNL     1     -36.949  19.637   0.119  0.00  0.00    +0.142 C 
ATOM      6  C   UNL     1     -35.571  20.101  -1.808  0.00  0.00    +0.067 C 
ATOM      7  C   UNL     1     -37.509  21.499  -1.385  0.00  0.00    +0.256 C 
ATOM      8  H   UNL     1     -36.192  21.671  -2.931  0.00  0.00    +0.155 HD
ENDROOT
BRANCH   3   9
ATOM      9  C   UNL     1     -34.841  18.242  -0.467  0.00  0.00    +0.004 C 
ATOM     10  C   UNL     1     -35.018  17.003  -1.081  0.00  0.00    +0.003 C 
ATOM     11  C   UNL     1     -33.763  18.447   0.394  0.00  0.00    +0.003 C 
ATOM     12  C   UNL     1     -34.116  15.968  -0.835  0.00  0.00    +0.037 C 
ATOM     13  C   UNL     1     -32.861  17.411   0.640  0.00  0.00    +0.037 C 
ATOM     14  C   UNL     1     -33.038  16.171   0.025  0.00  0.00    +0.134 C 
BRANCH  14  15
ATOM     15  O   UNL     1     -32.159  15.161   0.267  0.00  0.00    -0.506 OA
ATOM     16  H   UNL     1     -31.241  15.299   0.139  0.00  0.00    +0.292 HD
ENDBRANCH  14  15
ENDBRANCH   3   9
BRANCH   5  17
ATOM     17  O   UNL     1     -37.076  18.780   1.191  0.00  0.00    -0.505 OA
ATOM     18  H   UNL     1     -36.409  18.144   1.364  0.00  0.00    +0.292 HD
ENDBRANCH   5  17
BRANCH   4  20
ATOM     19  O   UNL     1     -40.083  20.655   0.340  0.00  0.00    -0.286 OA
ATOM     20  C   UNL     1     -38.950  20.971   0.679  0.00  0.00    +0.203 C 
BRANCH  20  22
ATOM     21  C   UNL     1     -37.463  22.338   2.059  0.00  0.00    -0.001 C 
ATOM     22  C   UNL     1     -38.626  21.680   1.942  0.00  0.00    +0.042 C 
BRANCH  21  24
ATOM     23  C   UNL     1     -36.123  22.596   4.092  0.00  0.00    -0.028 C 
ATOM     24  C   UNL     1     -37.048  23.087   3.243  0.00  0.00    -0.026 C 
ATOM     25  C   UNL     1     -37.717  24.428   3.359  0.00  0.00    +0.031 C 
BRANCH  23  26
ATOM     26  C   UNL     1     -35.571  23.235   5.351  0.00  0.00    +0.051 C 
BRANCH  26  27
ATOM     27  C   UNL     1     -34.396  24.174   5.014  0.00  0.00    +0.007 C 
ATOM     28  C   UNL     1     -34.569  25.581   5.575  0.00  0.00    +0.000 C 
ENDBRANCH  26  27
BRANCH  26  29
ATOM     29  C   UNL     1     -35.102  22.145   6.327  0.00  0.00    +0.141 C 
BRANCH  29  30
ATOM     30  O   UNL     1     -35.422  20.850   5.828  0.00  0.00    -0.382 OA
ATOM     31  H   UNL     1     -36.042  20.934   5.086  0.00  0.00    +0.210 HD
ENDBRANCH  29  30
ENDBRANCH  26  29
ENDBRANCH  23  26
ENDBRANCH  21  24
ENDBRANCH  20  22
ENDBRANCH   4  20
TORSDOF 10
ENDMDL
MODEL 3
REMARK VINA RESULT:      -6.3      2.271      8.405
REMARK  Name = 54697562
REMARK  10 active torsions:
REMARK  status: ('A' for Active; 'I' for Inactive)
REMARK    1  A    between atoms: C_3  and  C_9
REMARK    2  A    between atoms: C_4  and  C_20
REMARK    3  A    between atoms: C_5  and  O_17
REMARK    4  A    between atoms: C_14  and  O_15
REMARK    5  A    between atoms: C_20  and  C_22
REMARK    6  A    between atoms: C_21  and  C_24
REMARK    7  A    between atoms: C_23  and  C_26
REMARK    8  A    between atoms: C_26  and  C_27
REMARK    9  A    between atoms: C_26  and  C_29
REMARK   10  A    between atoms: C_29  and  O_30
REMARK                            x       y       z     vdW  Elec       q    Type
REMARK                         _______ _______ _______ _____ _____    ______ ____
ROOT
ATOM      1  O   UNL     1     -35.470  27.212   2.800  0.00  0.00    -0.270 OA
ATOM      2  N   UNL     1     -33.505  28.393   2.896  0.00  0.00    -0.279 N 
ATOM      3  C   UNL     1     -32.027  28.187   4.729  0.00  0.00    +0.049 C 
ATOM      4  C   UNL     1     -34.103  26.877   4.724  0.00  0.00    +0.126 C 
ATOM      5  C   UNL     1     -32.948  27.226   5.333  0.00  0.00    +0.142 C 
ATOM      6  C   UNL     1     -32.345  28.727   3.541  0.00  0.00    +0.067 C 
ATOM      7  C   UNL     1     -34.432  27.498   3.393  0.00  0.00    +0.256 C 
ATOM      8  H   UNL     1     -33.689  28.816   2.026  0.00  0.00    +0.155 HD
ENDROOT
BRANCH   3   9
ATOM      9  C   UNL     1     -30.758  28.617   5.346  0.00  0.00    +0.004 C 
ATOM     10  C   UNL     1     -30.772  29.356   6.528  0.00  0.00    +0.003 C 
ATOM     11  C   UNL     1     -29.544  28.286   4.745  0.00  0.00    +0.003 C 
ATOM     12  C   UNL     1     -29.572  29.764   7.111  0.00  0.00    +0.037 C 
ATOM     13  C   UNL     1     -28.344  28.694   5.327  0.00  0.00    +0.037 C 
ATOM     14  C   UNL     1     -28.358  29.434   6.510  0.00  0.00    +0.134 C 
BRANCH  14  15
ATOM     15  O   UNL     1     -27.187  29.833   7.077  0.00  0.00    -0.506 OA
ATOM     16  H   UNL     1     -27.178  30.554   7.675  0.00  0.00    +0.292 HD
ENDBRANCH  14  15
ENDBRANCH   3   9
BRANCH   5  17
ATOM     17  O   UNL     1     -32.508  26.739   6.546  0.00  0.00    -0.505 OA
ATOM     18  H   UNL     1     -32.657  25.842   6.772  0.00  0.00    +0.292 HD
ENDBRANCH   5  17
BRANCH   4  20
ATOM     19  O   UNL     1     -35.983  26.282   6.007  0.00  0.00    -0.286 OA
ATOM     20  C   UNL     1     -35.037  25.911   5.324  0.00  0.00    +0.203 C 
BRANCH  20  22
ATOM     21  C   UNL     1     -35.696  23.680   4.565  0.00  0.00    -0.001 C 
ATOM     22  C   UNL     1     -34.731  24.489   5.029  0.00  0.00    +0.042 C 
BRANCH  21  24
ATOM     23  C   UNL     1     -35.593  21.847   2.945  0.00  0.00    -0.028 C 
ATOM     24  C   UNL     1     -35.505  22.273   4.221  0.00  0.00    -0.026 C 
ATOM     25  C   UNL     1     -35.165  21.416   5.408  0.00  0.00    +0.031 C 
BRANCH  23  26
ATOM     26  C   UNL     1     -35.416  20.439   2.412  0.00  0.00    +0.051 C 
BRANCH  26  27
ATOM     27  C   UNL     1     -34.204  20.368   1.461  0.00  0.00    +0.007 C 
ATOM     28  C   UNL     1     -33.517  19.008   1.460  0.00  0.00    +0.000 C 
ENDBRANCH  26  27
BRANCH  26  29
ATOM     29  C   UNL     1     -36.686  19.998   1.669  0.00  0.00    +0.141 C 
BRANCH  29  30
ATOM     30  O   UNL     1     -37.835  20.643   2.210  0.00  0.00    -0.382 OA
ATOM     31  H   UNL     1     -37.596  21.537   2.504  0.00  0.00    +0.210 HD
ENDBRANCH  29  30
ENDBRANCH  26  29
ENDBRANCH  23  26
ENDBRANCH  21  24
ENDBRANCH  20  22
ENDBRANCH   4  20
TORSDOF 10
ENDMDL
MODEL 4
REMARK VINA RESULT:      -6.2      4.092      8.820
REMARK  Name = 54697562
REMARK  10 active torsions:
REMARK  status: ('A' for Active; 'I' for Inactive)
REMARK    1  A    between atoms: C_3  and  C_9
REMARK    2  A    between atoms: C_4  and  C_20
REMARK    3  A    between atoms: C_5  and  O_17
REMARK    4  A    between atoms: C_14  and  O_15
REMARK    5  A    between atoms: C_20  and  C_22
REMARK    6  A    between atoms: C_21  and  C_24
REMARK    7  A    between atoms: C_23  and  C_26
REMARK    8  A    between atoms: C_26  and  C_27
REMARK    9  A    between atoms: C_26  and  C_29
REMARK   10  A    between atoms: C_29  and  O_30
REMARK                            x       y       z     vdW  Elec       q    Type
REMARK                         _______ _______ _______ _____ _____    ______ ____
ROOT
ATOM      1  O   UNL     1     -34.449  27.523   0.368  0.00  0.00    -0.270 OA
ATOM      2  N   UNL     1     -35.401  29.484  -0.347  0.00  0.00    -0.279 N 
ATOM      3  C   UNL     1     -36.059  31.167   1.178  0.00  0.00    +0.049 C 
ATOM      4  C   UNL     1     -35.048  29.106   2.047  0.00  0.00    +0.126 C 
ATOM      5  C   UNL     1     -35.588  30.324   2.274  0.00  0.00    +0.142 C 
ATOM      6  C   UNL     1     -35.946  30.712  -0.081  0.00  0.00    +0.067 C 
ATOM      7  C   UNL     1     -34.933  28.623   0.626  0.00  0.00    +0.256 C 
ATOM      8  H   UNL     1     -35.339  29.199  -1.287  0.00  0.00    +0.155 HD
ENDROOT
BRANCH   3   9
ATOM      9  C   UNL     1     -36.666  32.500   1.359  0.00  0.00    +0.004 C 
ATOM     10  C   UNL     1     -35.914  33.647   1.110  0.00  0.00    +0.003 C 
ATOM     11  C   UNL     1     -37.991  32.611   1.779  0.00  0.00    +0.003 C 
ATOM     12  C   UNL     1     -36.487  34.907   1.282  0.00  0.00    +0.037 C 
ATOM     13  C   UNL     1     -38.564  33.871   1.951  0.00  0.00    +0.037 C 
ATOM     14  C   UNL     1     -37.812  35.020   1.703  0.00  0.00    +0.134 C 
BRANCH  14  15
ATOM     15  O   UNL     1     -38.371  36.249   1.872  0.00  0.00    -0.506 OA
ATOM     16  H   UNL     1     -38.822  36.660   1.161  0.00  0.00    +0.292 HD
ENDBRANCH  14  15
ENDBRANCH   3   9
BRANCH   5  17
ATOM     17  O   UNL     1     -35.752  30.904   3.515  0.00  0.00    -0.505 OA
ATOM     18  H   UNL     1     -36.609  30.980   3.887  0.00  0.00    +0.292 HD
ENDBRANCH   5  17
BRANCH   4  20
ATOM     19  O   UNL     1     -33.525  28.493   3.733  0.00  0.00    -0.286 OA
ATOM     20  C   UNL     1     -34.571  28.250   3.145  0.00  0.00    +0.203 C 
BRANCH  20  22
ATOM     21  C   UNL     1     -34.978  25.848   3.376  0.00  0.00    -0.001 C 
ATOM     22  C   UNL     1     -35.455  27.099   3.459  0.00  0.00    +0.042 C 
BRANCH  21  24
ATOM     23  C   UNL     1     -35.190  23.419   3.601  0.00  0.00    -0.028 C 
ATOM     24  C   UNL     1     -35.747  24.645   3.682  0.00  0.00    -0.026 C 
ATOM     25  C   UNL     1     -37.154  24.939   4.123  0.00  0.00    +0.031 C 
BRANCH  23  26
ATOM     26  C   UNL     1     -35.832  22.076   3.889  0.00  0.00    +0.051 C 
BRANCH  26  27
ATOM     27  C   UNL     1     -35.162  21.404   5.104  0.00  0.00    +0.007 C 
ATOM     28  C   UNL     1     -35.383  22.160   6.408  0.00  0.00    +0.000 C 
ENDBRANCH  26  27
BRANCH  26  29
ATOM     29  C   UNL     1     -35.710  21.165   2.658  0.00  0.00    +0.141 C 
BRANCH  29  30
ATOM     30  O   UNL     1     -36.482  19.981   2.830  0.00  0.00    -0.382 OA
ATOM     31  H   UNL     1     -37.149  20.127   3.519  0.00  0.00    +0.210 HD
ENDBRANCH  29  30
ENDBRANCH  26  29
ENDBRANCH  23  26
ENDBRANCH  21  24
ENDBRANCH  20  22
ENDBRANCH   4  20
TORSDOF 10
ENDMDL
MODEL 5
REMARK VINA RESULT:      -6.2      6.055     10.044
REMARK  Name = 54697562
REMARK  10 active torsions:
REMARK  status: ('A' for Active; 'I' for Inactive)
REMARK    1  A    between atoms: C_3  and  C_9
REMARK    2  A    between atoms: C_4  and  C_20
REMARK    3  A    between atoms: C_5  and  O_17
REMARK    4  A    between atoms: C_14  and  O_15
REMARK    5  A    between atoms: C_20  and  C_22
REMARK    6  A    between atoms: C_21  and  C_24
REMARK    7  A    between atoms: C_23  and  C_26
REMARK    8  A    between atoms: C_26  and  C_27
REMARK    9  A    between atoms: C_26  and  C_29
REMARK   10  A    between atoms: C_29  and  O_30
REMARK                            x       y       z     vdW  Elec       q    Type
REMARK                         _______ _______ _______ _____ _____    ______ ____
ROOT
ATOM      1  O   UNL     1     -40.425  22.598   1.804  0.00  0.00    -0.270 OA
ATOM      2  N   UNL     1     -38.340  22.559   2.760  0.00  0.00    -0.279 N 
ATOM      3  C   UNL     1     -37.257  24.546   3.445  0.00  0.00    +0.049 C 
ATOM      4  C   UNL     1     -39.489  24.698   2.435  0.00  0.00    +0.126 C 
ATOM      5  C   UNL     1     -38.417  25.308   2.987  0.00  0.00    +0.142 C 
ATOM      6  C   UNL     1     -37.269  23.209   3.312  0.00  0.00    +0.067 C 
ATOM      7  C   UNL     1     -39.474  23.198   2.299  0.00  0.00    +0.256 C 
ATOM      8  H   UNL     1     -38.299  21.579   2.687  0.00  0.00    +0.155 HD
ENDROOT
BRANCH   3   9
ATOM      9  C   UNL     1     -36.053  25.151   4.047  0.00  0.00    +0.004 C 
ATOM     10  C   UNL     1     -35.982  25.337   5.427  0.00  0.00    +0.003 C 
ATOM     11  C   UNL     1     -34.988  25.538   3.235  0.00  0.00    +0.003 C 
ATOM     12  C   UNL     1     -34.845  25.910   5.996  0.00  0.00    +0.037 C 
ATOM     13  C   UNL     1     -33.850  26.111   3.804  0.00  0.00    +0.037 C 
ATOM     14  C   UNL     1     -33.779  26.297   5.185  0.00  0.00    +0.134 C 
BRANCH  14  15
ATOM     15  O   UNL     1     -32.669  26.858   5.739  0.00  0.00    -0.506 OA
ATOM     16  H   UNL     1     -31.919  26.327   5.923  0.00  0.00    +0.292 HD
ENDBRANCH  14  15
ENDBRANCH   3   9
BRANCH   5  17
ATOM     17  O   UNL     1     -38.287  26.666   3.184  0.00  0.00    -0.505 OA
ATOM     18  H   UNL     1     -37.450  27.076   3.088  0.00  0.00    +0.292 HD
ENDBRANCH   5  17
BRANCH   4  20
ATOM     19  O   UNL     1     -40.834  25.691   0.780  0.00  0.00    -0.286 OA
ATOM     20  C   UNL     1     -40.661  25.456   1.969  0.00  0.00    +0.203 C 
BRANCH  20  22
ATOM     21  C   UNL     1     -42.376  26.958   2.858  0.00  0.00    -0.001 C 
ATOM     22  C   UNL     1     -41.583  25.893   3.047  0.00  0.00    +0.042 C 
BRANCH  21  24
ATOM     23  C   UNL     1     -43.199  28.692   4.377  0.00  0.00    -0.028 C 
ATOM     24  C   UNL     1     -43.334  27.464   3.837  0.00  0.00    -0.026 C 
ATOM     25  C   UNL     1     -44.460  26.507   4.112  0.00  0.00    +0.031 C 
BRANCH  23  26
ATOM     26  C   UNL     1     -44.097  29.376   5.390  0.00  0.00    +0.051 C 
BRANCH  26  27
ATOM     27  C   UNL     1     -45.342  29.967   4.699  0.00  0.00    +0.007 C 
ATOM     28  C   UNL     1     -46.648  29.337   5.170  0.00  0.00    +0.000 C 
ENDBRANCH  26  27
BRANCH  26  29
ATOM     29  C   UNL     1     -43.321  30.492   6.106  0.00  0.00    +0.141 C 
BRANCH  29  30
ATOM     30  O   UNL     1     -43.359  30.305   7.517  0.00  0.00    -0.382 OA
ATOM     31  H   UNL     1     -42.498  29.980   7.823  0.00  0.00    +0.210 HD
ENDBRANCH  29  30
ENDBRANCH  26  29
ENDBRANCH  23  26
ENDBRANCH  21  24
ENDBRANCH  20  22
ENDBRANCH   4  20
TORSDOF 10
ENDMDL
MODEL 6
REMARK VINA RESULT:      -6.1      6.428      9.417
REMARK  Name = 54697562
REMARK  10 active torsions:
REMARK  status: ('A' for Active; 'I' for Inactive)
REMARK    1  A    between atoms: C_3  and  C_9
REMARK    2  A    between atoms: C_4  and  C_20
REMARK    3  A    between atoms: C_5  and  O_17
REMARK    4  A    between atoms: C_14  and  O_15
REMARK    5  A    between atoms: C_20  and  C_22
REMARK    6  A    between atoms: C_21  and  C_24
REMARK    7  A    between atoms: C_23  and  C_26
REMARK    8  A    between atoms: C_26  and  C_27
REMARK    9  A    between atoms: C_26  and  C_29
REMARK   10  A    between atoms: C_29  and  O_30
REMARK                            x       y       z     vdW  Elec       q    Type
REMARK                         _______ _______ _______ _____ _____    ______ ____
ROOT
ATOM      1  O   UNL     1     -35.246  24.685   1.792  0.00  0.00    -0.270 OA
ATOM      2  N   UNL     1     -34.114  23.037   0.666  0.00  0.00    -0.279 N 
ATOM      3  C   UNL     1     -34.479  20.748   1.130  0.00  0.00    +0.049 C 
ATOM      4  C   UNL     1     -35.744  22.431   2.390  0.00  0.00    +0.126 C 
ATOM      5  C   UNL     1     -35.461  21.134   2.140  0.00  0.00    +0.142 C 
ATOM      6  C   UNL     1     -33.849  21.713   0.439  0.00  0.00    +0.067 C 
ATOM      7  C   UNL     1     -35.024  23.491   1.600  0.00  0.00    +0.256 C 
ATOM      8  H   UNL     1     -33.627  23.705   0.131  0.00  0.00    +0.155 HD
ENDROOT
BRANCH   3   9
ATOM      9  C   UNL     1     -34.118  19.352   0.815  0.00  0.00    +0.004 C 
ATOM     10  C   UNL     1     -34.965  18.574   0.027  0.00  0.00    +0.003 C 
ATOM     11  C   UNL     1     -32.931  18.811   1.307  0.00  0.00    +0.003 C 
ATOM     12  C   UNL     1     -34.625  17.254  -0.270  0.00  0.00    +0.037 C 
ATOM     13  C   UNL     1     -32.590  17.491   1.010  0.00  0.00    +0.037 C 
ATOM     14  C   UNL     1     -33.438  16.713   0.222  0.00  0.00    +0.134 C 
BRANCH  14  15
ATOM     15  O   UNL     1     -33.106  15.425  -0.067  0.00  0.00    -0.506 OA
ATOM     16  H   UNL     1     -33.666  14.724   0.207  0.00  0.00    +0.292 HD
ENDBRANCH  14  15
ENDBRANCH   3   9
BRANCH   5  17
ATOM     17  O   UNL     1     -36.042  20.055   2.773  0.00  0.00    -0.505 OA
ATOM     18  H   UNL     1     -35.503  19.398   3.169  0.00  0.00    +0.292 HD
ENDBRANCH   5  17
BRANCH   4  20
ATOM     19  O   UNL     1     -36.431  22.900   4.591  0.00  0.00    -0.286 OA
ATOM     20  C   UNL     1     -36.732  22.830   3.406  0.00  0.00    +0.203 C 
BRANCH  20  22
ATOM     21  C   UNL     1     -38.600  24.359   3.012  0.00  0.00    -0.001 C 
ATOM     22  C   UNL     1     -38.083  23.130   2.871  0.00  0.00    +0.042 C 
BRANCH  21  24
ATOM     23  C   UNL     1     -40.546  25.846   3.019  0.00  0.00    -0.028 C 
ATOM     24  C   UNL     1     -39.907  24.773   2.509  0.00  0.00    -0.026 C 
ATOM     25  C   UNL     1     -40.400  23.921   1.373  0.00  0.00    +0.031 C 
BRANCH  23  26
ATOM     26  C   UNL     1     -41.890  26.418   2.613  0.00  0.00    +0.051 C 
BRANCH  26  27
ATOM     27  C   UNL     1     -41.743  27.323   1.373  0.00  0.00    +0.007 C 
ATOM     28  C   UNL     1     -42.701  26.959   0.246  0.00  0.00    +0.000 C 
ENDBRANCH  26  27
BRANCH  26  29
ATOM     29  C   UNL     1     -42.486  27.224   3.777  0.00  0.00    +0.141 C 
BRANCH  29  30
ATOM     30  O   UNL     1     -41.463  27.924   4.480  0.00  0.00    -0.382 OA
ATOM     31  H   UNL     1     -41.518  28.870   4.273  0.00  0.00    +0.210 HD
ENDBRANCH  29  30
ENDBRANCH  26  29
ENDBRANCH  23  26
ENDBRANCH  21  24
ENDBRANCH  20  22
ENDBRANCH   4  20
TORSDOF 10
ENDMDL
MODEL 7
REMARK VINA RESULT:      -6.1      6.134     10.577
REMARK  Name = 54697562
REMARK  10 active torsions:
REMARK  status: ('A' for Active; 'I' for Inactive)
REMARK    1  A    between atoms: C_3  and  C_9
REMARK    2  A    between atoms: C_4  and  C_20
REMARK    3  A    between atoms: C_5  and  O_17
REMARK    4  A    between atoms: C_14  and  O_15
REMARK    5  A    between atoms: C_20  and  C_22
REMARK    6  A    between atoms: C_21  and  C_24
REMARK    7  A    between atoms: C_23  and  C_26
REMARK    8  A    between atoms: C_26  and  C_27
REMARK    9  A    between atoms: C_26  and  C_29
REMARK   10  A    between atoms: C_29  and  O_30
REMARK                            x       y       z     vdW  Elec       q    Type
REMARK                         _______ _______ _______ _____ _____    ______ ____
ROOT
ATOM      1  O   UNL     1     -40.225  22.412   1.774  0.00  0.00    -0.270 OA
ATOM      2  N   UNL     1     -38.191  22.453   2.835  0.00  0.00    -0.279 N 
ATOM      3  C   UNL     1     -37.113  24.489   3.365  0.00  0.00    +0.049 C 
ATOM      4  C   UNL     1     -39.288  24.557   2.231  0.00  0.00    +0.126 C 
ATOM      5  C   UNL     1     -38.235  25.210   2.770  0.00  0.00    +0.142 C 
ATOM      6  C   UNL     1     -37.139  23.146   3.371  0.00  0.00    +0.067 C 
ATOM      7  C   UNL     1     -39.290  23.052   2.253  0.00  0.00    +0.256 C 
ATOM      8  H   UNL     1     -38.162  21.469   2.867  0.00  0.00    +0.155 HD
ENDROOT
BRANCH   3   9
ATOM      9  C   UNL     1     -35.931  25.141   3.961  0.00  0.00    +0.004 C 
ATOM     10  C   UNL     1     -34.855  25.507   3.153  0.00  0.00    +0.003 C 
ATOM     11  C   UNL     1     -35.890  25.390   5.332  0.00  0.00    +0.003 C 
ATOM     12  C   UNL     1     -33.737  26.122   3.717  0.00  0.00    +0.037 C 
ATOM     13  C   UNL     1     -34.772  26.006   5.896  0.00  0.00    +0.037 C 
ATOM     14  C   UNL     1     -33.695  26.371   5.088  0.00  0.00    +0.134 C 
BRANCH  14  15
ATOM     15  O   UNL     1     -32.605  26.971   5.639  0.00  0.00    -0.506 OA
ATOM     16  H   UNL     1     -32.034  27.486   5.103  0.00  0.00    +0.292 HD
ENDBRANCH  14  15
ENDBRANCH   3   9
BRANCH   5  17
ATOM     17  O   UNL     1     -38.095  26.581   2.831  0.00  0.00    -0.505 OA
ATOM     18  H   UNL     1     -38.778  27.137   2.511  0.00  0.00    +0.292 HD
ENDBRANCH   5  17
BRANCH   4  20
ATOM     19  O   UNL     1     -40.440  25.552   0.436  0.00  0.00    -0.286 OA
ATOM     20  C   UNL     1     -40.424  25.275   1.629  0.00  0.00    +0.203 C 
BRANCH  20  22
ATOM     21  C   UNL     1     -41.919  26.890   2.697  0.00  0.00    -0.001 C 
ATOM     22  C   UNL     1     -41.512  25.617   2.578  0.00  0.00    +0.042 C 
BRANCH  21  24
ATOM     23  C   UNL     1     -44.169  26.683   3.639  0.00  0.00    -0.028 C 
ATOM     24  C   UNL     1     -42.992  27.339   3.580  0.00  0.00    -0.026 C 
ATOM     25  C   UNL     1     -42.614  28.535   4.409  0.00  0.00    +0.031 C 
BRANCH  23  26
ATOM     26  C   UNL     1     -45.377  27.000   4.499  0.00  0.00    +0.051 C 
BRANCH  26  27
ATOM     27  C   UNL     1     -46.269  25.753   4.663  0.00  0.00    +0.007 C 
ATOM     28  C   UNL     1     -46.214  24.812   3.466  0.00  0.00    +0.000 C 
ENDBRANCH  26  27
BRANCH  26  29
ATOM     29  C   UNL     1     -46.188  28.138   3.861  0.00  0.00    +0.141 C 
BRANCH  29  30
ATOM     30  O   UNL     1     -46.088  29.326   4.641  0.00  0.00    -0.382 OA
ATOM     31  H   UNL     1     -45.400  29.213   5.315  0.00  0.00    +0.210 HD
ENDBRANCH  29  30
ENDBRANCH  26  29
ENDBRANCH  23  26
ENDBRANCH  21  24
ENDBRANCH  20  22
ENDBRANCH   4  20
TORSDOF 10
ENDMDL
MODEL 8
REMARK VINA RESULT:      -6.1      5.933      9.717
REMARK  Name = 54697562
REMARK  10 active torsions:
REMARK  status: ('A' for Active; 'I' for Inactive)
REMARK    1  A    between atoms: C_3  and  C_9
REMARK    2  A    between atoms: C_4  and  C_20
REMARK    3  A    between atoms: C_5  and  O_17
REMARK    4  A    between atoms: C_14  and  O_15
REMARK    5  A    between atoms: C_20  and  C_22
REMARK    6  A    between atoms: C_21  and  C_24
REMARK    7  A    between atoms: C_23  and  C_26
REMARK    8  A    between atoms: C_26  and  C_27
REMARK    9  A    between atoms: C_26  and  C_29
REMARK   10  A    between atoms: C_29  and  O_30
REMARK                            x       y       z     vdW  Elec       q    Type
REMARK                         _______ _______ _______ _____ _____    ______ ____
ROOT
ATOM      1  O   UNL     1     -39.246  27.800   0.692  0.00  0.00    -0.270 OA
ATOM      2  N   UNL     1     -37.331  26.891   1.570  0.00  0.00    -0.279 N 
ATOM      3  C   UNL     1     -37.397  25.006   2.995  0.00  0.00    +0.049 C 
ATOM      4  C   UNL     1     -39.504  25.899   2.108  0.00  0.00    +0.126 C 
ATOM      5  C   UNL     1     -38.852  24.988   2.864  0.00  0.00    +0.142 C 
ATOM      6  C   UNL     1     -36.702  25.954   2.345  0.00  0.00    +0.067 C 
ATOM      7  C   UNL     1     -38.699  26.949   1.391  0.00  0.00    +0.256 C 
ATOM      8  H   UNL     1     -36.775  27.562   1.113  0.00  0.00    +0.155 HD
ENDROOT
BRANCH   3   9
ATOM      9  C   UNL     1     -36.627  24.047   3.810  0.00  0.00    +0.004 C 
ATOM     10  C   UNL     1     -36.177  24.414   5.078  0.00  0.00    +0.003 C 
ATOM     11  C   UNL     1     -36.347  22.775   3.312  0.00  0.00    +0.003 C 
ATOM     12  C   UNL     1     -35.448  23.508   5.849  0.00  0.00    +0.037 C 
ATOM     13  C   UNL     1     -35.618  21.869   4.082  0.00  0.00    +0.037 C 
ATOM     14  C   UNL     1     -35.168  22.236   5.351  0.00  0.00    +0.134 C 
BRANCH  14  15
ATOM     15  O   UNL     1     -34.455  21.352   6.101  0.00  0.00    -0.506 OA
ATOM     16  H   UNL     1     -33.531  21.465   6.205  0.00  0.00    +0.292 HD
ENDBRANCH  14  15
ENDBRANCH   3   9
BRANCH   5  17
ATOM     17  O   UNL     1     -39.449  23.966   3.571  0.00  0.00    -0.505 OA
ATOM     18  H   UNL     1     -39.496  24.008   4.507  0.00  0.00    +0.292 HD
ENDBRANCH   5  17
BRANCH   4  20
ATOM     19  O   UNL     1     -41.521  25.228   1.100  0.00  0.00    -0.286 OA
ATOM     20  C   UNL     1     -40.970  25.890   1.970  0.00  0.00    +0.203 C 
BRANCH  20  22
ATOM     21  C   UNL     1     -43.028  26.681   3.030  0.00  0.00    -0.001 C 
ATOM     22  C   UNL     1     -41.689  26.732   2.957  0.00  0.00    +0.042 C 
BRANCH  21  24
ATOM     23  C   UNL     1     -43.625  28.764   4.168  0.00  0.00    -0.028 C 
ATOM     24  C   UNL     1     -43.838  27.447   3.974  0.00  0.00    -0.026 C 
ATOM     25  C   UNL     1     -44.916  26.629   4.628  0.00  0.00    +0.031 C 
BRANCH  23  26
ATOM     26  C   UNL     1     -44.370  29.709   5.092  0.00  0.00    +0.051 C 
BRANCH  26  27
ATOM     27  C   UNL     1     -44.929  30.911   4.304  0.00  0.00    +0.007 C 
ATOM     28  C   UNL     1     -45.239  30.585   2.848  0.00  0.00    +0.000 C 
ENDBRANCH  26  27
BRANCH  26  29
ATOM     29  C   UNL     1     -43.429  30.205   6.199  0.00  0.00    +0.141 C 
BRANCH  29  30
ATOM     30  O   UNL     1     -43.313  31.625   6.162  0.00  0.00    -0.382 OA
ATOM     31  H   UNL     1     -42.518  31.871   5.664  0.00  0.00    +0.210 HD
ENDBRANCH  29  30
ENDBRANCH  26  29
ENDBRANCH  23  26
ENDBRANCH  21  24
ENDBRANCH  20  22
ENDBRANCH   4  20
TORSDOF 10
ENDMDL
MODEL 9
REMARK VINA RESULT:      -6.1      3.148      8.558
REMARK  Name = 54697562
REMARK  10 active torsions:
REMARK  status: ('A' for Active; 'I' for Inactive)
REMARK    1  A    between atoms: C_3  and  C_9
REMARK    2  A    between atoms: C_4  and  C_20
REMARK    3  A    between atoms: C_5  and  O_17
REMARK    4  A    between atoms: C_14  and  O_15
REMARK    5  A    between atoms: C_20  and  C_22
REMARK    6  A    between atoms: C_21  and  C_24
REMARK    7  A    between atoms: C_23  and  C_26
REMARK    8  A    between atoms: C_26  and  C_27
REMARK    9  A    between atoms: C_26  and  C_29
REMARK   10  A    between atoms: C_29  and  O_30
REMARK                            x       y       z     vdW  Elec       q    Type
REMARK                         _______ _______ _______ _____ _____    ______ ____
ROOT
ATOM      1  O   UNL     1     -37.886  24.075   3.753  0.00  0.00    -0.270 OA
ATOM      2  N   UNL     1     -36.713  26.044   3.647  0.00  0.00    -0.279 N 
ATOM      3  C   UNL     1     -34.488  26.201   4.428  0.00  0.00    +0.049 C 
ATOM      4  C   UNL     1     -35.652  24.046   4.585  0.00  0.00    +0.126 C 
ATOM      5  C   UNL     1     -34.541  24.787   4.793  0.00  0.00    +0.142 C 
ATOM      6  C   UNL     1     -35.572  26.766   3.873  0.00  0.00    +0.067 C 
ATOM      7  C   UNL     1     -36.852  24.707   3.961  0.00  0.00    +0.256 C 
ATOM      8  H   UNL     1     -37.479  26.505   3.236  0.00  0.00    +0.155 HD
ENDROOT
BRANCH   3   9
ATOM      9  C   UNL     1     -33.310  27.066   4.636  0.00  0.00    +0.004 C 
ATOM     10  C   UNL     1     -32.919  27.411   5.929  0.00  0.00    +0.003 C 
ATOM     11  C   UNL     1     -32.591  27.539   3.540  0.00  0.00    +0.003 C 
ATOM     12  C   UNL     1     -31.807  28.230   6.126  0.00  0.00    +0.037 C 
ATOM     13  C   UNL     1     -31.479  28.358   3.737  0.00  0.00    +0.037 C 
ATOM     14  C   UNL     1     -31.087  28.704   5.030  0.00  0.00    +0.134 C 
BRANCH  14  15
ATOM     15  O   UNL     1     -30.003  29.504   5.222  0.00  0.00    -0.506 OA
ATOM     16  H   UNL     1     -30.004  30.136   5.914  0.00  0.00    +0.292 HD
ENDBRANCH  14  15
ENDBRANCH   3   9
BRANCH   5  17
ATOM     17  O   UNL     1     -33.366  24.323   5.345  0.00  0.00    -0.505 OA
ATOM     18  H   UNL     1     -32.706  23.948   4.796  0.00  0.00    +0.292 HD
ENDBRANCH   5  17
BRANCH   4  20
ATOM     19  O   UNL     1     -36.194  22.260   6.017  0.00  0.00    -0.286 OA
ATOM     20  C   UNL     1     -35.716  22.621   4.950  0.00  0.00    +0.203 C 
BRANCH  20  22
ATOM     21  C   UNL     1     -35.958  21.227   2.954  0.00  0.00    -0.001 C 
ATOM     22  C   UNL     1     -35.165  21.696   3.929  0.00  0.00    +0.042 C 
BRANCH  21  24
ATOM     23  C   UNL     1     -34.232  19.943   1.785  0.00  0.00    -0.028 C 
ATOM     24  C   UNL     1     -35.520  20.331   1.887  0.00  0.00    -0.026 C 
ATOM     25  C   UNL     1     -36.642  19.882   0.994  0.00  0.00    +0.031 C 
BRANCH  23  26
ATOM     26  C   UNL     1     -33.610  19.017   0.757  0.00  0.00    +0.051 C 
BRANCH  26  27
ATOM     27  C   UNL     1     -32.601  18.063   1.426  0.00  0.00    +0.007 C 
ATOM     28  C   UNL     1     -31.224  18.089   0.775  0.00  0.00    +0.000 C 
ENDBRANCH  26  27
BRANCH  26  29
ATOM     29  C   UNL     1     -32.903  19.843  -0.328  0.00  0.00    +0.141 C 
BRANCH  29  30
ATOM     30  O   UNL     1     -33.853  20.546  -1.125  0.00  0.00    -0.382 OA
ATOM     31  H   UNL     1     -33.522  20.618  -2.033  0.00  0.00    +0.210 HD
ENDBRANCH  29  30
ENDBRANCH  26  29
ENDBRANCH  23  26
ENDBRANCH  21  24
ENDBRANCH  20  22
ENDBRANCH   4  20
TORSDOF 10
ENDMDL
