MODEL 1
REMARK VINA RESULT:      -6.3      0.000      0.000
REMARK  Name = 5281435
REMARK  9 active torsions:
REMARK  status: ('A' for Active; 'I' for Inactive)
REMARK    1  A    between atoms: C_4  and  O_17
REMARK    2  A    between atoms: C_11  and  C_28
REMARK    3  A    between atoms: O_17  and  C_19
REMARK    4  A    between atoms: C_19  and  C_20
REMARK    5  A    between atoms: C_20  and  C_22
REMARK    6  A    between atoms: C_22  and  O_23
REMARK    7  A    between atoms: C_22  and  C_25
REMARK    8  A    between atoms: C_25  and  O_26
REMARK    9  A    between atoms: C_28  and  O_29
REMARK                            x       y       z     vdW  Elec       q    Type
REMARK                         _______ _______ _______ _____ _____    ______ ____
ROOT
ATOM      1  O   UNL     1     -38.909  20.087   0.085  0.00  0.00    -0.449 OA
ATOM      2  O   UNL     1     -40.859  21.161   0.655  0.00  0.00    -0.245 OA
ATOM      3  C   UNL     1     -37.455  20.895   1.777  0.00  0.00    +0.109 C 
ATOM      4  C   UNL     1     -36.168  21.662   2.197  0.00  0.00    +0.177 C 
ATOM      5  C   UNL     1     -37.513  20.311   0.349  0.00  0.00    +0.177 C 
ATOM      6  C   UNL     1     -34.884  20.837   2.479  0.00  0.00    +0.044 C 
ATOM      7  C   UNL     1     -38.736  21.690   1.697  0.00  0.00    +0.060 C 
ATOM      8  C   UNL     1     -36.807  19.002   0.179  0.00  0.00    +0.047 C 
ATOM      9  C   UNL     1     -34.163  20.234   1.297  0.00  0.00    +0.004 C 
ATOM     10  C   UNL     1     -39.659  20.990   0.774  0.00  0.00    +0.337 C 
ATOM     11  C   UNL     1     -35.997  18.653  -0.843  0.00  0.00    +0.033 C 
ATOM     12  C   UNL     1     -34.991  17.534  -0.626  0.00  0.00    +0.003 C 
ATOM     13  C   UNL     1     -33.683  18.084  -0.001  0.00  0.00    +0.000 C 
ATOM     14  C   UNL     1     -34.004  18.894   1.233  0.00  0.00    +0.000 C 
ATOM     15  C   UNL     1     -39.119  22.854   2.228  0.00  0.00    +0.002 C 
ATOM     16  C   UNL     1     -33.732  21.206   0.234  0.00  0.00    +0.000 C 
ENDROOT
BRANCH   4  17
ATOM     17  O   UNL     1     -36.424  22.324   3.451  0.00  0.00    -0.449 OA
BRANCH  17  19
ATOM     18  O   UNL     1     -35.370  24.272   2.837  0.00  0.00    -0.245 OA
ATOM     19  C   UNL     1     -35.694  23.444   3.679  0.00  0.00    +0.339 C 
BRANCH  19  20
ATOM     20  C   UNL     1     -35.293  23.544   5.115  0.00  0.00    +0.082 C 
ATOM     21  C   UNL     1     -35.361  22.472   5.922  0.00  0.00    +0.005 C 
BRANCH  20  22
ATOM     22  C   UNL     1     -34.828  24.883   5.640  0.00  0.00    +0.168 C 
BRANCH  22  23
ATOM     23  O   UNL     1     -33.701  25.322   4.880  0.00  0.00    -0.377 OA
ATOM     24  H   UNL     1     -33.031  25.688   5.477  0.00  0.00    +0.211 HD
ENDBRANCH  22  23
BRANCH  22  25
ATOM     25  C   UNL     1     -35.923  25.948   5.587  0.00  0.00    +0.171 C 
BRANCH  25  26
ATOM     26  O   UNL     1     -35.590  26.894   4.575  0.00  0.00    -0.379 OA
ATOM     27  H   UNL     1     -36.121  27.697   4.696  0.00  0.00    +0.211 HD
ENDBRANCH  25  26
ENDBRANCH  22  25
ENDBRANCH  20  22
ENDBRANCH  19  20
ENDBRANCH  17  19
ENDBRANCH   4  17
BRANCH  11  28
ATOM     28  C   UNL     1     -35.877  19.390  -2.146  0.00  0.00    +0.137 C 
BRANCH  28  29
ATOM     29  O   UNL     1     -36.998  19.105  -2.960  0.00  0.00    -0.382 OA
ATOM     30  H   UNL     1     -37.578  19.881  -2.995  0.00  0.00    +0.210 HD
ENDBRANCH  28  29
ENDBRANCH  11  28
TORSDOF 9
ENDMDL
MODEL 2
REMARK VINA RESULT:      -5.8      1.557      1.947
REMARK  Name = 5281435
REMARK  9 active torsions:
REMARK  status: ('A' for Active; 'I' for Inactive)
REMARK    1  A    between atoms: C_4  and  O_17
REMARK    2  A    between atoms: C_11  and  C_28
REMARK    3  A    between atoms: O_17  and  C_19
REMARK    4  A    between atoms: C_19  and  C_20
REMARK    5  A    between atoms: C_20  and  C_22
REMARK    6  A    between atoms: C_22  and  O_23
REMARK    7  A    between atoms: C_22  and  C_25
REMARK    8  A    between atoms: C_25  and  O_26
REMARK    9  A    between atoms: C_28  and  O_29
REMARK                            x       y       z     vdW  Elec       q    Type
REMARK                         _______ _______ _______ _____ _____    ______ ____
ROOT
ATOM      1  O   UNL     1     -39.160  20.262   0.056  0.00  0.00    -0.449 OA
ATOM      2  O   UNL     1     -41.264  21.130   0.372  0.00  0.00    -0.245 OA
ATOM      3  C   UNL     1     -37.993  21.284   1.852  0.00  0.00    +0.109 C 
ATOM      4  C   UNL     1     -36.848  22.204   2.368  0.00  0.00    +0.177 C 
ATOM      5  C   UNL     1     -37.832  20.650   0.453  0.00  0.00    +0.177 C 
ATOM      6  C   UNL     1     -35.521  21.537   2.819  0.00  0.00    +0.044 C 
ATOM      7  C   UNL     1     -39.336  21.927   1.604  0.00  0.00    +0.060 C 
ATOM      8  C   UNL     1     -36.976  19.422   0.417  0.00  0.00    +0.047 C 
ATOM      9  C   UNL     1     -34.616  20.980   1.746  0.00  0.00    +0.004 C 
ATOM     10  C   UNL     1     -40.073  21.098   0.623  0.00  0.00    +0.337 C 
ATOM     11  C   UNL     1     -36.027  19.132  -0.499  0.00  0.00    +0.033 C 
ATOM     12  C   UNL     1     -34.935  18.141  -0.128  0.00  0.00    +0.003 C 
ATOM     13  C   UNL     1     -33.770  18.855   0.604  0.00  0.00    +0.000 C 
ATOM     14  C   UNL     1     -34.308  19.664   1.760  0.00  0.00    +0.000 C 
ATOM     15  C   UNL     1     -39.897  23.059   2.039  0.00  0.00    +0.002 C 
ATOM     16  C   UNL     1     -34.180  21.957   0.692  0.00  0.00    +0.000 C 
ENDROOT
BRANCH   4  17
ATOM     17  O   UNL     1     -37.308  22.874   3.557  0.00  0.00    -0.449 OA
BRANCH  17  19
ATOM     18  O   UNL     1     -35.963  23.480   5.320  0.00  0.00    -0.245 OA
ATOM     19  C   UNL     1     -36.387  23.649   4.183  0.00  0.00    +0.339 C 
BRANCH  19  20
ATOM     20  C   UNL     1     -35.956  24.784   3.313  0.00  0.00    +0.082 C 
ATOM     21  C   UNL     1     -34.656  24.984   3.041  0.00  0.00    +0.005 C 
BRANCH  20  22
ATOM     22  C   UNL     1     -37.016  25.712   2.763  0.00  0.00    +0.168 C 
BRANCH  22  23
ATOM     23  O   UNL     1     -37.969  25.998   3.787  0.00  0.00    -0.377 OA
ATOM     24  H   UNL     1     -37.739  25.506   4.590  0.00  0.00    +0.211 HD
ENDBRANCH  22  23
BRANCH  22  25
ATOM     25  C   UNL     1     -36.434  27.021   2.231  0.00  0.00    +0.171 C 
BRANCH  25  26
ATOM     26  O   UNL     1     -37.486  27.784   1.647  0.00  0.00    -0.379 OA
ATOM     27  H   UNL     1     -37.564  27.559   0.706  0.00  0.00    +0.211 HD
ENDBRANCH  25  26
ENDBRANCH  22  25
ENDBRANCH  20  22
ENDBRANCH  19  20
ENDBRANCH  17  19
ENDBRANCH   4  17
BRANCH  11  28
ATOM     28  C   UNL     1     -35.846  19.834  -1.814  0.00  0.00    +0.137 C 
BRANCH  28  29
ATOM     29  O   UNL     1     -34.982  19.080  -2.642  0.00  0.00    -0.382 OA
ATOM     30  H   UNL     1     -34.226  19.627  -2.904  0.00  0.00    +0.210 HD
ENDBRANCH  28  29
ENDBRANCH  11  28
TORSDOF 9
ENDMDL
MODEL 3
REMARK VINA RESULT:      -5.8      1.660      2.240
REMARK  Name = 5281435
REMARK  9 active torsions:
REMARK  status: ('A' for Active; 'I' for Inactive)
REMARK    1  A    between atoms: C_4  and  O_17
REMARK    2  A    between atoms: C_11  and  C_28
REMARK    3  A    between atoms: O_17  and  C_19
REMARK    4  A    between atoms: C_19  and  C_20
REMARK    5  A    between atoms: C_20  and  C_22
REMARK    6  A    between atoms: C_22  and  O_23
REMARK    7  A    between atoms: C_22  and  C_25
REMARK    8  A    between atoms: C_25  and  O_26
REMARK    9  A    between atoms: C_28  and  O_29
REMARK                            x       y       z     vdW  Elec       q    Type
REMARK                         _______ _______ _______ _____ _____    ______ ____
ROOT
ATOM      1  O   UNL     1     -37.514  18.165  -1.031  0.00  0.00    -0.449 OA
ATOM      2  O   UNL     1     -39.705  18.844  -1.174  0.00  0.00    -0.245 OA
ATOM      3  C   UNL     1     -36.748  19.541   0.745  0.00  0.00    +0.109 C 
ATOM      4  C   UNL     1     -35.783  20.637   1.282  0.00  0.00    +0.177 C 
ATOM      5  C   UNL     1     -36.307  18.741  -0.500  0.00  0.00    +0.177 C 
ATOM      6  C   UNL     1     -34.499  20.181   2.026  0.00  0.00    +0.044 C 
ATOM      7  C   UNL     1     -38.079  20.000   0.200  0.00  0.00    +0.060 C 
ATOM      8  C   UNL     1     -35.359  17.616  -0.218  0.00  0.00    +0.047 C 
ATOM      9  C   UNL     1     -33.386  19.579   1.201  0.00  0.00    +0.004 C 
ATOM     10  C   UNL     1     -38.573  18.971  -0.743  0.00  0.00    +0.337 C 
ATOM     11  C   UNL     1     -34.252  17.303  -0.924  0.00  0.00    +0.033 C 
ATOM     12  C   UNL     1     -33.160  16.492  -0.245  0.00  0.00    +0.003 C 
ATOM     13  C   UNL     1     -32.193  17.417   0.538  0.00  0.00    +0.000 C 
ATOM     14  C   UNL     1     -32.979  18.317   1.462  0.00  0.00    +0.000 C 
ATOM     15  C   UNL     1     -38.794  21.116   0.368  0.00  0.00    +0.002 C 
ATOM     16  C   UNL     1     -32.862  20.442   0.088  0.00  0.00    +0.000 C 
ENDROOT
BRANCH   4  17
ATOM     17  O   UNL     1     -36.486  21.413   2.272  0.00  0.00    -0.449 OA
BRANCH  17  19
ATOM     18  O   UNL     1     -35.986  23.435   1.302  0.00  0.00    -0.245 OA
ATOM     19  C   UNL     1     -36.199  22.739   2.286  0.00  0.00    +0.339 C 
BRANCH  19  20
ATOM     20  C   UNL     1     -36.143  23.264   3.684  0.00  0.00    +0.082 C 
ATOM     21  C   UNL     1     -35.700  22.491   4.689  0.00  0.00    +0.005 C 
BRANCH  20  22
ATOM     22  C   UNL     1     -36.615  24.677   3.940  0.00  0.00    +0.168 C 
BRANCH  22  23
ATOM     23  O   UNL     1     -38.014  24.663   4.226  0.00  0.00    -0.377 OA
ATOM     24  H   UNL     1     -38.295  25.546   4.507  0.00  0.00    +0.211 HD
ENDBRANCH  22  23
BRANCH  22  25
ATOM     25  C   UNL     1     -35.867  25.347   5.094  0.00  0.00    +0.171 C 
BRANCH  25  26
ATOM     26  O   UNL     1     -36.535  26.561   5.425  0.00  0.00    -0.379 OA
ATOM     27  H   UNL     1     -37.354  26.359   5.904  0.00  0.00    +0.211 HD
ENDBRANCH  25  26
ENDBRANCH  22  25
ENDBRANCH  20  22
ENDBRANCH  19  20
ENDBRANCH  17  19
ENDBRANCH   4  17
BRANCH  11  28
ATOM     28  C   UNL     1     -33.913  17.833  -2.288  0.00  0.00    +0.137 C 
BRANCH  28  29
ATOM     29  O   UNL     1     -33.000  16.960  -2.925  0.00  0.00    -0.382 OA
ATOM     30  H   UNL     1     -32.267  16.763  -2.322  0.00  0.00    +0.210 HD
ENDBRANCH  28  29
ENDBRANCH  11  28
TORSDOF 9
ENDMDL
MODEL 4
REMARK VINA RESULT:      -5.7      3.612      8.085
REMARK  Name = 5281435
REMARK  9 active torsions:
REMARK  status: ('A' for Active; 'I' for Inactive)
REMARK    1  A    between atoms: C_4  and  O_17
REMARK    2  A    between atoms: C_11  and  C_28
REMARK    3  A    between atoms: O_17  and  C_19
REMARK    4  A    between atoms: C_19  and  C_20
REMARK    5  A    between atoms: C_20  and  C_22
REMARK    6  A    between atoms: C_22  and  O_23
REMARK    7  A    between atoms: C_22  and  C_25
REMARK    8  A    between atoms: C_25  and  O_26
REMARK    9  A    between atoms: C_28  and  O_29
REMARK                            x       y       z     vdW  Elec       q    Type
REMARK                         _______ _______ _______ _____ _____    ______ ____
ROOT
ATOM      1  O   UNL     1     -33.316  27.785   4.743  0.00  0.00    -0.449 OA
ATOM      2  O   UNL     1     -32.746  26.656   6.661  0.00  0.00    -0.245 OA
ATOM      3  C   UNL     1     -35.283  26.613   4.116  0.00  0.00    +0.109 C 
ATOM      4  C   UNL     1     -36.069  25.750   3.087  0.00  0.00    +0.177 C 
ATOM      5  C   UNL     1     -34.120  27.482   3.588  0.00  0.00    +0.177 C 
ATOM      6  C   UNL     1     -37.043  26.473   2.118  0.00  0.00    +0.044 C 
ATOM      7  C   UNL     1     -34.493  25.879   5.172  0.00  0.00    +0.060 C 
ATOM      8  C   UNL     1     -34.538  28.784   2.978  0.00  0.00    +0.047 C 
ATOM      9  C   UNL     1     -36.444  27.292   1.001  0.00  0.00    +0.004 C 
ATOM     10  C   UNL     1     -33.414  26.774   5.649  0.00  0.00    +0.337 C 
ATOM     11  C   UNL     1     -34.069  29.321   1.832  0.00  0.00    +0.033 C 
ATOM     12  C   UNL     1     -34.921  30.349   1.106  0.00  0.00    +0.003 C 
ATOM     13  C   UNL     1     -35.938  29.655   0.164  0.00  0.00    +0.000 C 
ATOM     14  C   UNL     1     -36.719  28.613   0.930  0.00  0.00    +0.000 C 
ATOM     15  C   UNL     1     -34.562  24.638   5.661  0.00  0.00    +0.002 C 
ATOM     16  C   UNL     1     -35.513  26.554   0.081  0.00  0.00    +0.000 C 
ENDROOT
BRANCH   4  17
ATOM     17  O   UNL     1     -36.925  24.848   3.814  0.00  0.00    -0.449 OA
BRANCH  17  19
ATOM     18  O   UNL     1     -38.652  23.597   2.957  0.00  0.00    -0.245 OA
ATOM     19  C   UNL     1     -37.458  23.835   3.086  0.00  0.00    +0.339 C 
BRANCH  19  20
ATOM     20  C   UNL     1     -36.388  22.998   2.462  0.00  0.00    +0.082 C 
ATOM     21  C   UNL     1     -36.129  23.087   1.147  0.00  0.00    +0.005 C 
BRANCH  20  22
ATOM     22  C   UNL     1     -35.620  22.039   3.343  0.00  0.00    +0.168 C 
BRANCH  22  23
ATOM     23  O   UNL     1     -36.286  21.917   4.600  0.00  0.00    -0.377 OA
ATOM     24  H   UNL     1     -37.106  22.435   4.583  0.00  0.00    +0.211 HD
ENDBRANCH  22  23
BRANCH  22  25
ATOM     25  C   UNL     1     -35.469  20.654   2.712  0.00  0.00    +0.171 C 
BRANCH  25  26
ATOM     26  O   UNL     1     -36.703  19.956   2.845  0.00  0.00    -0.379 OA
ATOM     27  H   UNL     1     -37.371  20.368   2.274  0.00  0.00    +0.211 HD
ENDBRANCH  25  26
ENDBRANCH  22  25
ENDBRANCH  20  22
ENDBRANCH  19  20
ENDBRANCH  17  19
ENDBRANCH   4  17
BRANCH  11  28
ATOM     28  C   UNL     1     -32.837  28.868   1.102  0.00  0.00    +0.137 C 
BRANCH  28  29
ATOM     29  O   UNL     1     -31.699  29.511   1.644  0.00  0.00    -0.382 OA
ATOM     30  H   UNL     1     -31.128  28.854   2.070  0.00  0.00    +0.210 HD
ENDBRANCH  28  29
ENDBRANCH  11  28
TORSDOF 9
ENDMDL
MODEL 5
REMARK VINA RESULT:      -5.6      2.875      5.347
REMARK  Name = 5281435
REMARK  9 active torsions:
REMARK  status: ('A' for Active; 'I' for Inactive)
REMARK    1  A    between atoms: C_4  and  O_17
REMARK    2  A    between atoms: C_11  and  C_28
REMARK    3  A    between atoms: O_17  and  C_19
REMARK    4  A    between atoms: C_19  and  C_20
REMARK    5  A    between atoms: C_20  and  C_22
REMARK    6  A    between atoms: C_22  and  O_23
REMARK    7  A    between atoms: C_22  and  C_25
REMARK    8  A    between atoms: C_25  and  O_26
REMARK    9  A    between atoms: C_28  and  O_29
REMARK                            x       y       z     vdW  Elec       q    Type
REMARK                         _______ _______ _______ _____ _____    ______ ____
ROOT
ATOM      1  O   UNL     1     -36.241  22.096   4.652  0.00  0.00    -0.449 OA
ATOM      2  O   UNL     1     -35.257  22.384   6.708  0.00  0.00    -0.245 OA
ATOM      3  C   UNL     1     -35.148  23.792   3.404  0.00  0.00    +0.109 C 
ATOM      4  C   UNL     1     -35.211  25.091   2.548  0.00  0.00    +0.177 C 
ATOM      5  C   UNL     1     -36.422  22.923   3.489  0.00  0.00    +0.177 C 
ATOM      6  C   UNL     1     -35.221  24.948   1.002  0.00  0.00    +0.044 C 
ATOM      7  C   UNL     1     -34.943  23.955   4.890  0.00  0.00    +0.060 C 
ATOM      8  C   UNL     1     -36.638  22.013   2.320  0.00  0.00    +0.047 C 
ATOM      9  C   UNL     1     -36.484  24.436   0.353  0.00  0.00    +0.004 C 
ATOM     10  C   UNL     1     -35.472  22.748   5.566  0.00  0.00    +0.337 C 
ATOM     11  C   UNL     1     -37.804  21.799   1.674  0.00  0.00    +0.033 C 
ATOM     12  C   UNL     1     -37.762  21.269   0.250  0.00  0.00    +0.003 C 
ATOM     13  C   UNL     1     -37.611  22.432  -0.765  0.00  0.00    +0.000 C 
ATOM     14  C   UNL     1     -36.438  23.301  -0.379  0.00  0.00    +0.000 C 
ATOM     15  C   UNL     1     -34.460  24.951   5.638  0.00  0.00    +0.002 C 
ATOM     16  C   UNL     1     -37.730  25.225   0.643  0.00  0.00    +0.000 C 
ENDROOT
BRANCH   4  17
ATOM     17  O   UNL     1     -34.021  25.860   2.806  0.00  0.00    -0.449 OA
BRANCH  17  19
ATOM     18  O   UNL     1     -35.191  27.690   3.558  0.00  0.00    -0.245 OA
ATOM     19  C   UNL     1     -34.217  27.187   3.012  0.00  0.00    +0.339 C 
BRANCH  19  20
ATOM     20  C   UNL     1     -33.088  27.992   2.457  0.00  0.00    +0.082 C 
ATOM     21  C   UNL     1     -33.221  28.647   1.292  0.00  0.00    +0.005 C 
BRANCH  20  22
ATOM     22  C   UNL     1     -31.788  28.036   3.229  0.00  0.00    +0.168 C 
BRANCH  22  23
ATOM     23  O   UNL     1     -31.984  27.448   4.516  0.00  0.00    -0.377 OA
ATOM     24  H   UNL     1     -31.919  26.483   4.443  0.00  0.00    +0.211 HD
ENDBRANCH  22  23
BRANCH  22  25
ATOM     25  C   UNL     1     -30.651  27.313   2.508  0.00  0.00    +0.171 C 
BRANCH  25  26
ATOM     26  O   UNL     1     -30.938  25.918   2.487  0.00  0.00    -0.379 OA
ATOM     27  H   UNL     1     -30.376  25.481   1.827  0.00  0.00    +0.211 HD
ENDBRANCH  25  26
ENDBRANCH  22  25
ENDBRANCH  20  22
ENDBRANCH  19  20
ENDBRANCH  17  19
ENDBRANCH   4  17
BRANCH  11  28
ATOM     28  C   UNL     1     -39.161  22.199   2.178  0.00  0.00    +0.137 C 
BRANCH  28  29
ATOM     29  O   UNL     1     -40.033  21.086   2.133  0.00  0.00    -0.382 OA
ATOM     30  H   UNL     1     -40.652  21.129   2.878  0.00  0.00    +0.210 HD
ENDBRANCH  28  29
ENDBRANCH  11  28
TORSDOF 9
ENDMDL
MODEL 6
REMARK VINA RESULT:      -5.6      3.707      6.836
REMARK  Name = 5281435
REMARK  9 active torsions:
REMARK  status: ('A' for Active; 'I' for Inactive)
REMARK    1  A    between atoms: C_4  and  O_17
REMARK    2  A    between atoms: C_11  and  C_28
REMARK    3  A    between atoms: O_17  and  C_19
REMARK    4  A    between atoms: C_19  and  C_20
REMARK    5  A    between atoms: C_20  and  C_22
REMARK    6  A    between atoms: C_22  and  O_23
REMARK    7  A    between atoms: C_22  and  C_25
REMARK    8  A    between atoms: C_25  and  O_26
REMARK    9  A    between atoms: C_28  and  O_29
REMARK                            x       y       z     vdW  Elec       q    Type
REMARK                         _______ _______ _______ _____ _____    ______ ____
ROOT
ATOM      1  O   UNL     1     -33.316  24.439   0.659  0.00  0.00    -0.449 OA
ATOM      2  O   UNL     1     -31.261  25.105  -0.124  0.00  0.00    -0.245 OA
ATOM      3  C   UNL     1     -33.716  26.103   2.303  0.00  0.00    +0.109 C 
ATOM      4  C   UNL     1     -33.985  26.500   3.784  0.00  0.00    +0.177 C 
ATOM      5  C   UNL     1     -34.061  24.662   1.869  0.00  0.00    +0.177 C 
ATOM      6  C   UNL     1     -35.457  26.715   4.228  0.00  0.00    +0.044 C 
ATOM      7  C   UNL     1     -32.279  26.089   1.843  0.00  0.00    +0.060 C 
ATOM      8  C   UNL     1     -35.507  24.432   1.555  0.00  0.00    +0.047 C 
ATOM      9  C   UNL     1     -36.331  25.493   4.376  0.00  0.00    +0.004 C 
ATOM     10  C   UNL     1     -32.174  25.179   0.679  0.00  0.00    +0.337 C 
ATOM     11  C   UNL     1     -36.253  23.374   1.938  0.00  0.00    +0.033 C 
ATOM     12  C   UNL     1     -37.765  23.525   1.980  0.00  0.00    +0.003 C 
ATOM     13  C   UNL     1     -38.221  24.120   3.337  0.00  0.00    +0.000 C 
ATOM     14  C   UNL     1     -37.451  25.386   3.627  0.00  0.00    +0.000 C 
ATOM     15  C   UNL     1     -31.167  26.665   2.311  0.00  0.00    +0.002 C 
ATOM     16  C   UNL     1     -35.825  24.444   5.326  0.00  0.00    +0.000 C 
ENDROOT
BRANCH   4  17
ATOM     17  O   UNL     1     -33.370  27.780   4.028  0.00  0.00    -0.449 OA
BRANCH  17  19
ATOM     18  O   UNL     1     -32.571  27.010   6.040  0.00  0.00    -0.245 OA
ATOM     19  C   UNL     1     -32.657  27.875   5.178  0.00  0.00    +0.339 C 
BRANCH  19  20
ATOM     20  C   UNL     1     -31.989  29.207   5.290  0.00  0.00    +0.082 C 
ATOM     21  C   UNL     1     -32.298  30.202   4.443  0.00  0.00    +0.005 C 
BRANCH  20  22
ATOM     22  C   UNL     1     -30.945  29.399   6.367  0.00  0.00    +0.168 C 
BRANCH  22  23
ATOM     23  O   UNL     1     -31.498  29.027   7.630  0.00  0.00    -0.377 OA
ATOM     24  H   UNL     1     -30.868  29.243   8.335  0.00  0.00    +0.211 HD
ENDBRANCH  22  23
BRANCH  22  25
ATOM     25  C   UNL     1     -29.677  28.586   6.108  0.00  0.00    +0.171 C 
BRANCH  25  26
ATOM     26  O   UNL     1     -29.711  27.416   6.921  0.00  0.00    -0.379 OA
ATOM     27  H   UNL     1     -30.163  27.616   7.756  0.00  0.00    +0.211 HD
ENDBRANCH  25  26
ENDBRANCH  22  25
ENDBRANCH  20  22
ENDBRANCH  19  20
ENDBRANCH  17  19
ENDBRANCH   4  17
BRANCH  11  28
ATOM     28  C   UNL     1     -35.714  22.088   2.497  0.00  0.00    +0.137 C 
BRANCH  28  29
ATOM     29  O   UNL     1     -36.760  21.143   2.611  0.00  0.00    -0.382 OA
ATOM     30  H   UNL     1     -36.596  20.403   2.007  0.00  0.00    +0.210 HD
ENDBRANCH  28  29
ENDBRANCH  11  28
TORSDOF 9
ENDMDL
MODEL 7
REMARK VINA RESULT:      -5.5      2.575      4.382
REMARK  Name = 5281435
REMARK  9 active torsions:
REMARK  status: ('A' for Active; 'I' for Inactive)
REMARK    1  A    between atoms: C_4  and  O_17
REMARK    2  A    between atoms: C_11  and  C_28
REMARK    3  A    between atoms: O_17  and  C_19
REMARK    4  A    between atoms: C_19  and  C_20
REMARK    5  A    between atoms: C_20  and  C_22
REMARK    6  A    between atoms: C_22  and  O_23
REMARK    7  A    between atoms: C_22  and  C_25
REMARK    8  A    between atoms: C_25  and  O_26
REMARK    9  A    between atoms: C_28  and  O_29
REMARK                            x       y       z     vdW  Elec       q    Type
REMARK                         _______ _______ _______ _____ _____    ______ ____
ROOT
ATOM      1  O   UNL     1     -35.592  21.258   4.614  0.00  0.00    -0.449 OA
ATOM      2  O   UNL     1     -35.889  22.077   6.740  0.00  0.00    -0.245 OA
ATOM      3  C   UNL     1     -34.847  23.213   3.494  0.00  0.00    +0.109 C 
ATOM      4  C   UNL     1     -35.030  24.281   2.376  0.00  0.00    +0.177 C 
ATOM      5  C   UNL     1     -35.532  21.843   3.300  0.00  0.00    +0.177 C 
ATOM      6  C   UNL     1     -34.263  24.082   1.042  0.00  0.00    +0.044 C 
ATOM      7  C   UNL     1     -35.442  23.521   4.847  0.00  0.00    +0.060 C 
ATOM      8  C   UNL     1     -34.787  20.890   2.418  0.00  0.00    +0.047 C 
ATOM      9  C   UNL     1     -34.745  22.996   0.110  0.00  0.00    +0.004 C 
ATOM     10  C   UNL     1     -35.677  22.241   5.552  0.00  0.00    +0.337 C 
ATOM     11  C   UNL     1     -35.316  20.111   1.450  0.00  0.00    +0.033 C 
ATOM     12  C   UNL     1     -34.405  19.605   0.343  0.00  0.00    +0.003 C 
ATOM     13  C   UNL     1     -34.292  20.649  -0.797  0.00  0.00    +0.000 C 
ATOM     14  C   UNL     1     -33.905  21.992  -0.226  0.00  0.00    +0.000 C 
ATOM     15  C   UNL     1     -35.817  24.659   5.438  0.00  0.00    +0.002 C 
ATOM     16  C   UNL     1     -36.181  23.099  -0.320  0.00  0.00    +0.000 C 
ENDROOT
BRANCH   4  17
ATOM     17  O   UNL     1     -34.530  25.540   2.867  0.00  0.00    -0.449 OA
BRANCH  17  19
ATOM     18  O   UNL     1     -36.384  26.738   2.229  0.00  0.00    -0.245 OA
ATOM     19  C   UNL     1     -35.177  26.642   2.413  0.00  0.00    +0.339 C 
BRANCH  19  20
ATOM     20  C   UNL     1     -34.219  27.752   2.128  0.00  0.00    +0.082 C 
ATOM     21  C   UNL     1     -34.126  28.278   0.896  0.00  0.00    +0.005 C 
BRANCH  20  22
ATOM     22  C   UNL     1     -33.344  28.254   3.255  0.00  0.00    +0.168 C 
BRANCH  22  23
ATOM     23  O   UNL     1     -33.818  27.721   4.492  0.00  0.00    -0.377 OA
ATOM     24  H   UNL     1     -33.883  26.757   4.425  0.00  0.00    +0.211 HD
ENDBRANCH  22  23
BRANCH  22  25
ATOM     25  C   UNL     1     -31.874  27.879   3.070  0.00  0.00    +0.171 C 
BRANCH  25  26
ATOM     26  O   UNL     1     -31.764  26.459   3.057  0.00  0.00    -0.379 OA
ATOM     27  H   UNL     1     -32.580  26.075   2.700  0.00  0.00    +0.211 HD
ENDBRANCH  25  26
ENDBRANCH  22  25
ENDBRANCH  20  22
ENDBRANCH  19  20
ENDBRANCH  17  19
ENDBRANCH   4  17
BRANCH  11  28
ATOM     28  C   UNL     1     -36.780  19.830   1.266  0.00  0.00    +0.137 C 
BRANCH  28  29
ATOM     29  O   UNL     1     -36.956  18.501   0.813  0.00  0.00    -0.382 OA
ATOM     30  H   UNL     1     -37.750  18.123   1.220  0.00  0.00    +0.210 HD
ENDBRANCH  28  29
ENDBRANCH  11  28
TORSDOF 9
ENDMDL
MODEL 8
REMARK VINA RESULT:      -5.5      1.697      2.328
REMARK  Name = 5281435
REMARK  9 active torsions:
REMARK  status: ('A' for Active; 'I' for Inactive)
REMARK    1  A    between atoms: C_4  and  O_17
REMARK    2  A    between atoms: C_11  and  C_28
REMARK    3  A    between atoms: O_17  and  C_19
REMARK    4  A    between atoms: C_19  and  C_20
REMARK    5  A    between atoms: C_20  and  C_22
REMARK    6  A    between atoms: C_22  and  O_23
REMARK    7  A    between atoms: C_22  and  C_25
REMARK    8  A    between atoms: C_25  and  O_26
REMARK    9  A    between atoms: C_28  and  O_29
REMARK                            x       y       z     vdW  Elec       q    Type
REMARK                         _______ _______ _______ _____ _____    ______ ____
ROOT
ATOM      1  O   UNL     1     -40.445  22.608   0.639  0.00  0.00    -0.449 OA
ATOM      2  O   UNL     1     -41.337  24.397   1.771  0.00  0.00    -0.245 OA
ATOM      3  C   UNL     1     -38.538  22.152   1.976  0.00  0.00    +0.109 C 
ATOM      4  C   UNL     1     -36.994  22.019   2.124  0.00  0.00    +0.177 C 
ATOM      5  C   UNL     1     -39.141  22.003   0.562  0.00  0.00    +0.177 C 
ATOM      6  C   UNL     1     -36.367  20.604   2.002  0.00  0.00    +0.044 C 
ATOM      7  C   UNL     1     -39.148  23.497   2.290  0.00  0.00    +0.060 C 
ATOM      8  C   UNL     1     -39.328  20.589   0.107  0.00  0.00    +0.047 C 
ATOM      9  C   UNL     1     -36.308  19.979   0.629  0.00  0.00    +0.004 C 
ATOM     10  C   UNL     1     -40.438  23.600   1.570  0.00  0.00    +0.337 C 
ATOM     11  C   UNL     1     -39.029  20.091  -1.112  0.00  0.00    +0.033 C 
ATOM     12  C   UNL     1     -38.802  18.595  -1.252  0.00  0.00    +0.003 C 
ATOM     13  C   UNL     1     -37.330  18.229  -0.931  0.00  0.00    +0.000 C 
ATOM     14  C   UNL     1     -36.940  18.804   0.410  0.00  0.00    +0.000 C 
ATOM     15  C   UNL     1     -38.722  24.546   2.999  0.00  0.00    +0.002 C 
ATOM     16  C   UNL     1     -35.586  20.777  -0.419  0.00  0.00    +0.000 C 
ENDROOT
BRANCH   4  17
ATOM     17  O   UNL     1     -36.630  22.433   3.455  0.00  0.00    -0.449 OA
BRANCH  17  19
ATOM     18  O   UNL     1     -34.731  23.423   2.622  0.00  0.00    -0.245 OA
ATOM     19  C   UNL     1     -35.480  23.146   3.550  0.00  0.00    +0.339 C 
BRANCH  19  20
ATOM     20  C   UNL     1     -35.206  23.543   4.964  0.00  0.00    +0.082 C 
ATOM     21  C   UNL     1     -35.378  22.666   5.968  0.00  0.00    +0.005 C 
BRANCH  20  22
ATOM     22  C   UNL     1     -34.751  24.958   5.238  0.00  0.00    +0.168 C 
BRANCH  22  23
ATOM     23  O   UNL     1     -33.428  25.134   4.732  0.00  0.00    -0.377 OA
ATOM     24  H   UNL     1     -33.374  25.974   4.252  0.00  0.00    +0.211 HD
ENDBRANCH  22  23
BRANCH  22  25
ATOM     25  C   UNL     1     -35.676  26.005   4.616  0.00  0.00    +0.171 C 
BRANCH  25  26
ATOM     26  O   UNL     1     -36.539  26.510   5.631  0.00  0.00    -0.379 OA
ATOM     27  H   UNL     1     -36.140  26.355   6.502  0.00  0.00    +0.211 HD
ENDBRANCH  25  26
ENDBRANCH  22  25
ENDBRANCH  20  22
ENDBRANCH  19  20
ENDBRANCH  17  19
ENDBRANCH   4  17
BRANCH  11  28
ATOM     28  C   UNL     1     -38.728  20.911  -2.334  0.00  0.00    +0.137 C 
BRANCH  28  29
ATOM     29  O   UNL     1     -39.935  21.401  -2.887  0.00  0.00    -0.382 OA
ATOM     30  H   UNL     1     -40.478  20.657  -3.189  0.00  0.00    +0.210 HD
ENDBRANCH  28  29
ENDBRANCH  11  28
TORSDOF 9
ENDMDL
MODEL 9
REMARK VINA RESULT:      -5.5      3.958      6.221
REMARK  Name = 5281435
REMARK  9 active torsions:
REMARK  status: ('A' for Active; 'I' for Inactive)
REMARK    1  A    between atoms: C_4  and  O_17
REMARK    2  A    between atoms: C_11  and  C_28
REMARK    3  A    between atoms: O_17  and  C_19
REMARK    4  A    between atoms: C_19  and  C_20
REMARK    5  A    between atoms: C_20  and  C_22
REMARK    6  A    between atoms: C_22  and  O_23
REMARK    7  A    between atoms: C_22  and  C_25
REMARK    8  A    between atoms: C_25  and  O_26
REMARK    9  A    between atoms: C_28  and  O_29
REMARK                            x       y       z     vdW  Elec       q    Type
REMARK                         _______ _______ _______ _____ _____    ______ ____
ROOT
ATOM      1  O   UNL     1     -38.801  23.719   2.074  0.00  0.00    -0.449 OA
ATOM      2  O   UNL     1     -40.521  24.305   0.669  0.00  0.00    -0.245 OA
ATOM      3  C   UNL     1     -37.709  25.811   2.323  0.00  0.00    +0.109 C 
ATOM      4  C   UNL     1     -36.439  26.697   2.168  0.00  0.00    +0.177 C 
ATOM      5  C   UNL     1     -37.515  24.280   2.394  0.00  0.00    +0.177 C 
ATOM      6  C   UNL     1     -35.511  26.868   3.401  0.00  0.00    +0.044 C 
ATOM      7  C   UNL     1     -38.696  25.814   1.181  0.00  0.00    +0.060 C 
ATOM      8  C   UNL     1     -37.120  23.761   3.741  0.00  0.00    +0.047 C 
ATOM      9  C   UNL     1     -34.661  25.688   3.808  0.00  0.00    +0.004 C 
ATOM     10  C   UNL     1     -39.474  24.555   1.238  0.00  0.00    +0.337 C 
ATOM     11  C   UNL     1     -36.170  22.836   3.998  0.00  0.00    +0.033 C 
ATOM     12  C   UNL     1     -35.553  22.792   5.387  0.00  0.00    +0.003 C 
ATOM     13  C   UNL     1     -34.370  23.789   5.495  0.00  0.00    +0.000 C 
ATOM     14  C   UNL     1     -34.812  25.160   5.043  0.00  0.00    +0.000 C 
ATOM     15  C   UNL     1     -38.922  26.665   0.176  0.00  0.00    +0.002 C 
ATOM     16  C   UNL     1     -33.744  25.150   2.747  0.00  0.00    +0.000 C 
ENDROOT
BRANCH   4  17
ATOM     17  O   UNL     1     -36.860  28.044   1.876  0.00  0.00    -0.449 OA
BRANCH  17  19
ATOM     18  O   UNL     1     -35.054  28.437   0.510  0.00  0.00    -0.245 OA
ATOM     19  C   UNL     1     -35.933  28.826   1.269  0.00  0.00    +0.339 C 
BRANCH  19  20
ATOM     20  C   UNL     1     -36.093  30.258   1.664  0.00  0.00    +0.082 C 
ATOM     21  C   UNL     1     -35.427  30.756   2.718  0.00  0.00    +0.005 C 
BRANCH  20  22
ATOM     22  C   UNL     1     -37.035  31.125   0.859  0.00  0.00    +0.168 C 
BRANCH  22  23
ATOM     23  O   UNL     1     -38.099  30.319   0.352  0.00  0.00    -0.377 OA
ATOM     24  H   UNL     1     -37.927  29.388   0.558  0.00  0.00    +0.211 HD
ENDBRANCH  22  23
BRANCH  22  25
ATOM     25  C   UNL     1     -37.617  32.278   1.678  0.00  0.00    +0.171 C 
BRANCH  25  26
ATOM     26  O   UNL     1     -39.036  32.258   1.548  0.00  0.00    -0.379 OA
ATOM     27  H   UNL     1     -39.307  31.450   1.084  0.00  0.00    +0.211 HD
ENDBRANCH  25  26
ENDBRANCH  22  25
ENDBRANCH  20  22
ENDBRANCH  19  20
ENDBRANCH  17  19
ENDBRANCH   4  17
BRANCH  11  28
ATOM     28  C   UNL     1     -35.532  21.940   2.976  0.00  0.00    +0.137 C 
BRANCH  28  29
ATOM     29  O   UNL     1     -35.774  20.587   3.312  0.00  0.00    -0.382 OA
ATOM     30  H   UNL     1     -34.957  20.076   3.205  0.00  0.00    +0.210 HD
ENDBRANCH  28  29
ENDBRANCH  11  28
TORSDOF 9
ENDMDL
