MODEL 1
REMARK VINA RESULT:      -6.8      0.000      0.000
REMARK  Name = 197268
REMARK  3 active torsions:
REMARK  status: ('A' for Active; 'I' for Inactive)
REMARK    1  A    between atoms: C_4  and  O_23
REMARK    2  A    between atoms: C_14  and  O_25
REMARK    3  A    between atoms: C_19  and  O_27
REMARK                            x       y       z     vdW  Elec       q    Type
REMARK                         _______ _______ _______ _____ _____    ______ ____
ROOT
ATOM      1  O   UNL     1     -40.443  26.880   2.663  0.00  0.00    -0.291 OA
ATOM      2  O   UNL     1     -37.885  26.787   2.423  0.00  0.00    -0.287 OA
ATOM      3  O   UNL     1     -36.541  21.788   3.279  0.00  0.00    -0.286 OA
ATOM      4  C   UNL     1     -41.804  25.354  -0.417  0.00  0.00    +0.100 C 
ATOM      5  C   UNL     1     -41.828  23.973   0.244  0.00  0.00    +0.054 C 
ATOM      6  C   UNL     1     -41.606  26.449   0.630  0.00  0.00    +0.096 C 
ATOM      7  C   UNL     1     -40.570  23.739   1.044  0.00  0.00    -0.014 C 
ATOM      8  C   UNL     1     -39.902  24.797   1.687  0.00  0.00    +0.034 C 
ATOM      9  C   UNL     1     -40.606  26.109   1.720  0.00  0.00    +0.175 C 
ATOM     10  C   UNL     1     -38.680  24.555   2.355  0.00  0.00    +0.047 C 
ATOM     11  C   UNL     1     -43.099  25.589  -1.201  0.00  0.00    +0.030 C 
ATOM     12  C   UNL     1     -38.217  23.237   2.478  0.00  0.00    +0.076 C 
ATOM     13  C   UNL     1     -40.074  22.435   1.159  0.00  0.00    +0.033 C 
ATOM     14  C   UNL     1     -38.915  22.181   1.886  0.00  0.00    +0.136 C 
ATOM     15  C   UNL     1     -37.799  25.645   2.853  0.00  0.00    +0.196 C 
ATOM     16  C   UNL     1     -36.994  22.925   3.253  0.00  0.00    +0.202 C 
ATOM     17  C   UNL     1     -36.739  25.325   3.827  0.00  0.00    +0.045 C 
ATOM     18  C   UNL     1     -36.341  24.003   4.015  0.00  0.00    +0.076 C 
ATOM     19  C   UNL     1     -35.312  23.703   4.916  0.00  0.00    +0.142 C 
ATOM     20  C   UNL     1     -36.108  26.354   4.535  0.00  0.00    +0.003 C 
ATOM     21  C   UNL     1     -34.689  24.729   5.625  0.00  0.00    +0.037 C 
ATOM     22  C   UNL     1     -35.086  26.052   5.436  0.00  0.00    +0.003 C 
ENDROOT
BRANCH   4  23
ATOM     23  O   UNL     1     -40.726  25.392  -1.358  0.00  0.00    -0.386 OA
ATOM     24  H   UNL     1     -40.887  24.743  -2.061  0.00  0.00    +0.210 HD
ENDBRANCH   4  23
BRANCH  14  25
ATOM     25  O   UNL     1     -38.519  20.879   1.977  0.00  0.00    -0.505 OA
ATOM     26  H   UNL     1     -39.047  20.201   1.604  0.00  0.00    +0.292 HD
ENDBRANCH  14  25
BRANCH  19  27
ATOM     27  O   UNL     1     -34.885  22.431   5.152  0.00  0.00    -0.471 OA
ATOM     28  C   UNL     1     -35.232  21.855   6.409  0.00  0.00    +0.252 C 
ENDBRANCH  19  27
TORSDOF 3
ENDMDL
MODEL 2
REMARK VINA RESULT:      -6.6      3.627      6.334
REMARK  Name = 197268
REMARK  3 active torsions:
REMARK  status: ('A' for Active; 'I' for Inactive)
REMARK    1  A    between atoms: C_4  and  O_23
REMARK    2  A    between atoms: C_14  and  O_25
REMARK    3  A    between atoms: C_19  and  O_27
REMARK                            x       y       z     vdW  Elec       q    Type
REMARK                         _______ _______ _______ _____ _____    ______ ____
ROOT
ATOM      1  O   UNL     1     -34.119  19.646   0.597  0.00  0.00    -0.291 OA
ATOM      2  O   UNL     1     -35.037  20.189   2.936  0.00  0.00    -0.287 OA
ATOM      3  O   UNL     1     -39.514  22.811   2.152  0.00  0.00    -0.286 OA
ATOM      4  C   UNL     1     -36.214  16.889  -0.697  0.00  0.00    +0.100 C 
ATOM      5  C   UNL     1     -37.177  17.887  -1.346  0.00  0.00    +0.054 C 
ATOM      6  C   UNL     1     -34.916  17.583  -0.284  0.00  0.00    +0.096 C 
ATOM      7  C   UNL     1     -37.452  19.046  -0.420  0.00  0.00    -0.014 C 
ATOM      8  C   UNL     1     -36.476  19.517   0.477  0.00  0.00    +0.034 C 
ATOM      9  C   UNL     1     -35.102  18.963   0.318  0.00  0.00    +0.175 C 
ATOM     10  C   UNL     1     -36.797  20.548   1.388  0.00  0.00    +0.047 C 
ATOM     11  C   UNL     1     -35.921  15.733  -1.659  0.00  0.00    +0.030 C 
ATOM     12  C   UNL     1     -38.047  21.177   1.298  0.00  0.00    +0.076 C 
ATOM     13  C   UNL     1     -38.703  19.673  -0.474  0.00  0.00    +0.033 C 
ATOM     14  C   UNL     1     -38.994  20.743   0.366  0.00  0.00    +0.136 C 
ATOM     15  C   UNL     1     -35.909  20.938   2.516  0.00  0.00    +0.196 C 
ATOM     16  C   UNL     1     -38.390  22.326   2.167  0.00  0.00    +0.202 C 
ATOM     17  C   UNL     1     -36.137  22.225   3.199  0.00  0.00    +0.045 C 
ATOM     18  C   UNL     1     -37.347  22.896   3.037  0.00  0.00    +0.076 C 
ATOM     19  C   UNL     1     -37.576  24.100   3.712  0.00  0.00    +0.142 C 
ATOM     20  C   UNL     1     -35.150  22.753   4.040  0.00  0.00    +0.003 C 
ATOM     21  C   UNL     1     -36.590  24.628   4.545  0.00  0.00    +0.037 C 
ATOM     22  C   UNL     1     -35.379  23.956   4.709  0.00  0.00    +0.003 C 
ENDROOT
BRANCH   4  23
ATOM     23  O   UNL     1     -36.846  16.329   0.458  0.00  0.00    -0.386 OA
ATOM     24  H   UNL     1     -36.181  15.883   1.007  0.00  0.00    +0.210 HD
ENDBRANCH   4  23
BRANCH  14  25
ATOM     25  O   UNL     1     -40.222  21.319   0.226  0.00  0.00    -0.505 OA
ATOM     26  H   UNL     1     -40.579  21.462  -0.629  0.00  0.00    +0.292 HD
ENDBRANCH  14  25
BRANCH  19  27
ATOM     27  O   UNL     1     -38.733  24.809   3.587  0.00  0.00    -0.471 OA
ATOM     28  C   UNL     1     -38.668  26.031   2.857  0.00  0.00    +0.252 C 
ENDBRANCH  19  27
TORSDOF 3
ENDMDL
MODEL 3
REMARK VINA RESULT:      -6.5      1.789      3.790
REMARK  Name = 197268
REMARK  3 active torsions:
REMARK  status: ('A' for Active; 'I' for Inactive)
REMARK    1  A    between atoms: C_4  and  O_23
REMARK    2  A    between atoms: C_14  and  O_25
REMARK    3  A    between atoms: C_19  and  O_27
REMARK                            x       y       z     vdW  Elec       q    Type
REMARK                         _______ _______ _______ _____ _____    ______ ____
ROOT
ATOM      1  O   UNL     1     -40.817  22.547  -1.120  0.00  0.00    -0.291 OA
ATOM      2  O   UNL     1     -40.110  21.237   0.976  0.00  0.00    -0.287 OA
ATOM      3  O   UNL     1     -37.723  24.710   4.103  0.00  0.00    -0.286 OA
ATOM      4  C   UNL     1     -43.747  24.563  -0.113  0.00  0.00    +0.100 C 
ATOM      5  C   UNL     1     -42.842  25.737   0.272  0.00  0.00    +0.054 C 
ATOM      6  C   UNL     1     -42.975  23.537  -0.941  0.00  0.00    +0.096 C 
ATOM      7  C   UNL     1     -41.619  25.253   1.010  0.00  0.00    -0.014 C 
ATOM      8  C   UNL     1     -41.039  24.002   0.728  0.00  0.00    +0.034 C 
ATOM      9  C   UNL     1     -41.555  23.282  -0.469  0.00  0.00    +0.175 C 
ATOM     10  C   UNL     1     -39.946  23.544   1.498  0.00  0.00    +0.047 C 
ATOM     11  C   UNL     1     -44.969  25.067  -0.886  0.00  0.00    +0.030 C 
ATOM     12  C   UNL     1     -39.372  24.400   2.449  0.00  0.00    +0.076 C 
ATOM     13  C   UNL     1     -41.043  26.080   1.982  0.00  0.00    +0.033 C 
ATOM     14  C   UNL     1     -39.916  25.665   2.685  0.00  0.00    +0.136 C 
ATOM     15  C   UNL     1     -39.430  22.151   1.424  0.00  0.00    +0.196 C 
ATOM     16  C   UNL     1     -38.165  24.001   3.209  0.00  0.00    +0.202 C 
ATOM     17  C   UNL     1     -38.099  21.846   1.980  0.00  0.00    +0.045 C 
ATOM     18  C   UNL     1     -37.487  22.741   2.856  0.00  0.00    +0.076 C 
ATOM     19  C   UNL     1     -36.238  22.437   3.409  0.00  0.00    +0.142 C 
ATOM     20  C   UNL     1     -37.466  20.641   1.657  0.00  0.00    +0.003 C 
ATOM     21  C   UNL     1     -35.607  21.237   3.081  0.00  0.00    +0.037 C 
ATOM     22  C   UNL     1     -36.219  20.341   2.207  0.00  0.00    +0.003 C 
ENDROOT
BRANCH   4  23
ATOM     23  O   UNL     1     -44.228  23.946   1.085  0.00  0.00    -0.386 OA
ATOM     24  H   UNL     1     -44.166  22.981   1.000  0.00  0.00    +0.210 HD
ENDBRANCH   4  23
BRANCH  14  25
ATOM     25  O   UNL     1     -39.398  26.545   3.590  0.00  0.00    -0.505 OA
ATOM     26  H   UNL     1     -38.559  26.935   3.438  0.00  0.00    +0.292 HD
ENDBRANCH  14  25
BRANCH  19  27
ATOM     27  O   UNL     1     -35.584  23.274   4.262  0.00  0.00    -0.471 OA
ATOM     28  C   UNL     1     -35.244  22.754   5.545  0.00  0.00    +0.252 C 
ENDBRANCH  19  27
TORSDOF 3
ENDMDL
MODEL 4
REMARK VINA RESULT:      -6.4      1.514      6.396
REMARK  Name = 197268
REMARK  3 active torsions:
REMARK  status: ('A' for Active; 'I' for Inactive)
REMARK    1  A    between atoms: C_4  and  O_23
REMARK    2  A    between atoms: C_14  and  O_25
REMARK    3  A    between atoms: C_19  and  O_27
REMARK                            x       y       z     vdW  Elec       q    Type
REMARK                         _______ _______ _______ _____ _____    ______ ____
ROOT
ATOM      1  O   UNL     1     -36.929  27.197   1.815  0.00  0.00    -0.291 OA
ATOM      2  O   UNL     1     -39.446  26.824   2.185  0.00  0.00    -0.287 OA
ATOM      3  O   UNL     1     -40.289  21.722   1.292  0.00  0.00    -0.286 OA
ATOM      4  C   UNL     1     -35.248  25.779   4.786  0.00  0.00    +0.100 C 
ATOM      5  C   UNL     1     -35.112  24.420   4.096  0.00  0.00    +0.054 C 
ATOM      6  C   UNL     1     -35.619  26.863   3.775  0.00  0.00    +0.096 C 
ATOM      7  C   UNL     1     -36.378  24.063   3.357  0.00  0.00    -0.014 C 
ATOM      8  C   UNL     1     -37.190  25.052   2.772  0.00  0.00    +0.034 C 
ATOM      9  C   UNL     1     -36.633  26.433   2.731  0.00  0.00    +0.175 C 
ATOM     10  C   UNL     1     -38.413  24.690   2.164  0.00  0.00    +0.047 C 
ATOM     11  C   UNL     1     -33.946  26.141   5.507  0.00  0.00    +0.030 C 
ATOM     12  C   UNL     1     -38.738  23.332   2.037  0.00  0.00    +0.076 C 
ATOM     13  C   UNL     1     -36.737  22.715   3.240  0.00  0.00    +0.033 C 
ATOM     14  C   UNL     1     -37.900  22.348   2.569  0.00  0.00    +0.136 C 
ATOM     15  C   UNL     1     -39.431  25.686   1.736  0.00  0.00    +0.196 C 
ATOM     16  C   UNL     1     -39.960  22.901   1.319  0.00  0.00    +0.202 C 
ATOM     17  C   UNL     1     -40.501  25.268   0.811  0.00  0.00    +0.045 C 
ATOM     18  C   UNL     1     -40.765  23.914   0.615  0.00  0.00    +0.076 C 
ATOM     19  C   UNL     1     -41.802  23.518  -0.237  0.00  0.00    +0.142 C 
ATOM     20  C   UNL     1     -41.276  26.234   0.159  0.00  0.00    +0.003 C 
ATOM     21  C   UNL     1     -42.569  24.482  -0.891  0.00  0.00    +0.037 C 
ATOM     22  C   UNL     1     -42.308  25.837  -0.694  0.00  0.00    +0.003 C 
ENDROOT
BRANCH   4  23
ATOM     23  O   UNL     1     -36.272  25.685   5.782  0.00  0.00    -0.386 OA
ATOM     24  H   UNL     1     -35.983  25.084   6.487  0.00  0.00    +0.210 HD
ENDBRANCH   4  23
BRANCH  14  25
ATOM     25  O   UNL     1     -38.158  21.013   2.470  0.00  0.00    -0.505 OA
ATOM     26  H   UNL     1     -37.600  20.464   1.955  0.00  0.00    +0.292 HD
ENDBRANCH  14  25
BRANCH  19  27
ATOM     27  O   UNL     1     -42.103  22.211  -0.479  0.00  0.00    -0.471 OA
ATOM     28  C   UNL     1     -43.278  21.948  -1.242  0.00  0.00    +0.252 C 
ENDBRANCH  19  27
TORSDOF 3
ENDMDL
MODEL 5
REMARK VINA RESULT:      -6.3      2.724      6.742
REMARK  Name = 197268
REMARK  3 active torsions:
REMARK  status: ('A' for Active; 'I' for Inactive)
REMARK    1  A    between atoms: C_4  and  O_23
REMARK    2  A    between atoms: C_14  and  O_25
REMARK    3  A    between atoms: C_19  and  O_27
REMARK                            x       y       z     vdW  Elec       q    Type
REMARK                         _______ _______ _______ _____ _____    ______ ____
ROOT
ATOM      1  O   UNL     1     -37.794  19.748  -0.001  0.00  0.00    -0.291 OA
ATOM      2  O   UNL     1     -38.294  22.185  -0.651  0.00  0.00    -0.287 OA
ATOM      3  O   UNL     1     -38.440  24.872   3.855  0.00  0.00    -0.286 OA
ATOM      4  C   UNL     1     -34.204  19.651   0.874  0.00  0.00    +0.100 C 
ATOM      5  C   UNL     1     -34.526  19.938   2.343  0.00  0.00    +0.054 C 
ATOM      6  C   UNL     1     -35.468  19.252   0.114  0.00  0.00    +0.096 C 
ATOM      7  C   UNL     1     -35.589  21.002   2.462  0.00  0.00    -0.014 C 
ATOM      8  C   UNL     1     -36.605  21.135   1.498  0.00  0.00    +0.034 C 
ATOM      9  C   UNL     1     -36.705  20.051   0.481  0.00  0.00    +0.175 C 
ATOM     10  C   UNL     1     -37.533  22.196   1.595  0.00  0.00    +0.047 C 
ATOM     11  C   UNL     1     -33.145  18.549   0.769  0.00  0.00    +0.030 C 
ATOM     12  C   UNL     1     -37.507  23.027   2.724  0.00  0.00    +0.076 C 
ATOM     13  C   UNL     1     -35.568  21.860   3.568  0.00  0.00    +0.033 C 
ATOM     14  C   UNL     1     -36.530  22.855   3.709  0.00  0.00    +0.136 C 
ATOM     15  C   UNL     1     -38.482  22.546   0.504  0.00  0.00    +0.196 C 
ATOM     16  C   UNL     1     -38.520  24.089   2.917  0.00  0.00    +0.202 C 
ATOM     17  C   UNL     1     -39.632  23.418   0.803  0.00  0.00    +0.045 C 
ATOM     18  C   UNL     1     -39.648  24.176   1.972  0.00  0.00    +0.076 C 
ATOM     19  C   UNL     1     -40.724  25.029   2.240  0.00  0.00    +0.142 C 
ATOM     20  C   UNL     1     -40.692  23.512  -0.106  0.00  0.00    +0.003 C 
ATOM     21  C   UNL     1     -41.782  25.116   1.336  0.00  0.00    +0.037 C 
ATOM     22  C   UNL     1     -41.767  24.360   0.165  0.00  0.00    +0.003 C 
ENDROOT
BRANCH   4  23
ATOM     23  O   UNL     1     -33.647  20.832   0.289  0.00  0.00    -0.386 OA
ATOM     24  H   UNL     1     -33.851  21.598   0.848  0.00  0.00    +0.210 HD
ENDBRANCH   4  23
BRANCH  14  25
ATOM     25  O   UNL     1     -36.459  23.625   4.833  0.00  0.00    -0.505 OA
ATOM     26  H   UNL     1     -35.713  23.563   5.397  0.00  0.00    +0.292 HD
ENDBRANCH  14  25
BRANCH  19  27
ATOM     27  O   UNL     1     -40.804  25.787   3.369  0.00  0.00    -0.471 OA
ATOM     28  C   UNL     1     -41.919  26.668   3.480  0.00  0.00    +0.252 C 
ENDBRANCH  19  27
TORSDOF 3
ENDMDL
MODEL 6
REMARK VINA RESULT:      -6.3      2.497      6.877
REMARK  Name = 197268
REMARK  3 active torsions:
REMARK  status: ('A' for Active; 'I' for Inactive)
REMARK    1  A    between atoms: C_4  and  O_23
REMARK    2  A    between atoms: C_14  and  O_25
REMARK    3  A    between atoms: C_19  and  O_27
REMARK                            x       y       z     vdW  Elec       q    Type
REMARK                         _______ _______ _______ _____ _____    ______ ____
ROOT
ATOM      1  O   UNL     1     -35.200  21.494   4.362  0.00  0.00    -0.291 OA
ATOM      2  O   UNL     1     -35.212  21.141   1.815  0.00  0.00    -0.287 OA
ATOM      3  O   UNL     1     -40.032  22.449   0.205  0.00  0.00    -0.286 OA
ATOM      4  C   UNL     1     -35.034  25.150   4.876  0.00  0.00    +0.100 C 
ATOM      5  C   UNL     1     -36.562  25.244   4.906  0.00  0.00    +0.054 C 
ATOM      6  C   UNL     1     -34.580  23.698   5.015  0.00  0.00    +0.096 C 
ATOM      7  C   UNL     1     -37.175  24.379   3.832  0.00  0.00    -0.014 C 
ATOM      8  C   UNL     1     -36.568  23.177   3.424  0.00  0.00    +0.034 C 
ATOM      9  C   UNL     1     -35.420  22.697   4.243  0.00  0.00    +0.175 C 
ATOM     10  C   UNL     1     -37.122  22.436   2.356  0.00  0.00    +0.047 C 
ATOM     11  C   UNL     1     -34.429  26.010   5.989  0.00  0.00    +0.030 C 
ATOM     12  C   UNL     1     -38.345  22.843   1.803  0.00  0.00    +0.076 C 
ATOM     13  C   UNL     1     -38.382  24.778   3.248  0.00  0.00    +0.033 C 
ATOM     14  C   UNL     1     -38.975  24.007   2.252  0.00  0.00    +0.136 C 
ATOM     15  C   UNL     1     -36.422  21.293   1.712  0.00  0.00    +0.196 C 
ATOM     16  C   UNL     1     -39.013  22.044   0.751  0.00  0.00    +0.202 C 
ATOM     17  C   UNL     1     -37.189  20.366   0.860  0.00  0.00    +0.045 C 
ATOM     18  C   UNL     1     -38.446  20.734   0.384  0.00  0.00    +0.076 C 
ATOM     19  C   UNL     1     -39.160  19.868  -0.452  0.00  0.00    +0.142 C 
ATOM     20  C   UNL     1     -36.638  19.131   0.499  0.00  0.00    +0.003 C 
ATOM     21  C   UNL     1     -38.612  18.636  -0.805  0.00  0.00    +0.037 C 
ATOM     22  C   UNL     1     -37.354  18.267  -0.332  0.00  0.00    +0.003 C 
ENDROOT
BRANCH   4  23
ATOM     23  O   UNL     1     -34.569  25.680   3.631  0.00  0.00    -0.386 OA
ATOM     24  H   UNL     1     -35.141  26.414   3.357  0.00  0.00    +0.210 HD
ENDBRANCH   4  23
BRANCH  14  25
ATOM     25  O   UNL     1     -40.168  24.449   1.760  0.00  0.00    -0.505 OA
ATOM     26  H   UNL     1     -40.212  25.263   1.299  0.00  0.00    +0.292 HD
ENDBRANCH  14  25
BRANCH  19  27
ATOM     27  O   UNL     1     -40.397  20.165  -0.941  0.00  0.00    -0.471 OA
ATOM     28  C   UNL     1     -40.680  19.755  -2.276  0.00  0.00    +0.252 C 
ENDBRANCH  19  27
TORSDOF 3
ENDMDL
MODEL 7
REMARK VINA RESULT:      -6.3      4.268      7.604
REMARK  Name = 197268
REMARK  3 active torsions:
REMARK  status: ('A' for Active; 'I' for Inactive)
REMARK    1  A    between atoms: C_4  and  O_23
REMARK    2  A    between atoms: C_14  and  O_25
REMARK    3  A    between atoms: C_19  and  O_27
REMARK                            x       y       z     vdW  Elec       q    Type
REMARK                         _______ _______ _______ _____ _____    ______ ____
ROOT
ATOM      1  O   UNL     1     -32.542  29.263   5.525  0.00  0.00    -0.291 OA
ATOM      2  O   UNL     1     -32.485  26.966   4.370  0.00  0.00    -0.287 OA
ATOM      3  O   UNL     1     -37.067  26.508   1.854  0.00  0.00    -0.286 OA
ATOM      4  C   UNL     1     -32.011  31.754   2.847  0.00  0.00    +0.100 C 
ATOM      5  C   UNL     1     -33.520  31.872   2.618  0.00  0.00    +0.054 C 
ATOM      6  C   UNL     1     -31.720  31.034   4.162  0.00  0.00    +0.096 C 
ATOM      7  C   UNL     1     -34.175  30.514   2.649  0.00  0.00    -0.014 C 
ATOM      8  C   UNL     1     -33.683  29.480   3.467  0.00  0.00    +0.034 C 
ATOM      9  C   UNL     1     -32.628  29.853   4.450  0.00  0.00    +0.175 C 
ATOM     10  C   UNL     1     -34.268  28.195   3.406  0.00  0.00    +0.047 C 
ATOM     11  C   UNL     1     -31.364  33.143   2.842  0.00  0.00    +0.030 C 
ATOM     12  C   UNL     1     -35.417  28.003   2.625  0.00  0.00    +0.076 C 
ATOM     13  C   UNL     1     -35.309  30.290   1.858  0.00  0.00    +0.033 C 
ATOM     14  C   UNL     1     -35.938  29.049   1.858  0.00  0.00    +0.136 C 
ATOM     15  C   UNL     1     -33.667  26.999   4.053  0.00  0.00    +0.196 C 
ATOM     16  C   UNL     1     -36.122  26.701   2.608  0.00  0.00    +0.202 C 
ATOM     17  C   UNL     1     -34.492  25.792   4.242  0.00  0.00    +0.045 C 
ATOM     18  C   UNL     1     -35.682  25.642   3.533  0.00  0.00    +0.076 C 
ATOM     19  C   UNL     1     -36.448  24.481   3.688  0.00  0.00    +0.142 C 
ATOM     20  C   UNL     1     -34.061  24.780   5.108  0.00  0.00    +0.003 C 
ATOM     21  C   UNL     1     -36.020  23.477   4.555  0.00  0.00    +0.037 C 
ATOM     22  C   UNL     1     -34.829  23.625   5.264  0.00  0.00    +0.003 C 
ENDROOT
BRANCH   4  23
ATOM     23  O   UNL     1     -31.440  31.017   1.761  0.00  0.00    -0.386 OA
ATOM     24  H   UNL     1     -30.814  31.582   1.280  0.00  0.00    +0.210 HD
ENDBRANCH   4  23
BRANCH  14  25
ATOM     25  O   UNL     1     -37.055  28.926   1.086  0.00  0.00    -0.505 OA
ATOM     26  H   UNL     1     -37.791  29.486   1.233  0.00  0.00    +0.292 HD
ENDBRANCH  14  25
BRANCH  19  27
ATOM     27  O   UNL     1     -37.625  24.279   3.031  0.00  0.00    -0.471 OA
ATOM     28  C   UNL     1     -37.919  22.945   2.625  0.00  0.00    +0.252 C 
ENDBRANCH  19  27
TORSDOF 3
ENDMDL
MODEL 8
REMARK VINA RESULT:      -6.2      4.327      7.374
REMARK  Name = 197268
REMARK  3 active torsions:
REMARK  status: ('A' for Active; 'I' for Inactive)
REMARK    1  A    between atoms: C_4  and  O_23
REMARK    2  A    between atoms: C_14  and  O_25
REMARK    3  A    between atoms: C_19  and  O_27
REMARK                            x       y       z     vdW  Elec       q    Type
REMARK                         _______ _______ _______ _____ _____    ______ ____
ROOT
ATOM      1  O   UNL     1     -33.313  24.673   4.499  0.00  0.00    -0.291 OA
ATOM      2  O   UNL     1     -33.231  26.711   6.064  0.00  0.00    -0.287 OA
ATOM      3  O   UNL     1     -33.541  30.927   2.955  0.00  0.00    -0.286 OA
ATOM      4  C   UNL     1     -36.834  24.368   3.419  0.00  0.00    +0.100 C 
ATOM      5  C   UNL     1     -36.566  25.251   2.198  0.00  0.00    +0.054 C 
ATOM      6  C   UNL     1     -35.521  23.906   4.049  0.00  0.00    +0.096 C 
ATOM      7  C   UNL     1     -35.698  26.428   2.566  0.00  0.00    -0.014 C 
ATOM      8  C   UNL     1     -34.719  26.331   3.572  0.00  0.00    +0.034 C 
ATOM      9  C   UNL     1     -34.437  24.967   4.099  0.00  0.00    +0.175 C 
ATOM     10  C   UNL     1     -33.983  27.477   3.950  0.00  0.00    +0.047 C 
ATOM     11  C   UNL     1     -37.693  23.162   3.024  0.00  0.00    +0.030 C 
ATOM     12  C   UNL     1     -34.149  28.666   3.227  0.00  0.00    +0.076 C 
ATOM     13  C   UNL     1     -35.863  27.634   1.875  0.00  0.00    +0.033 C 
ATOM     14  C   UNL     1     -35.082  28.742   2.189  0.00  0.00    +0.136 C 
ATOM     15  C   UNL     1     -33.107  27.517   5.151  0.00  0.00    +0.196 C 
ATOM     16  C   UNL     1     -33.329  29.863   3.523  0.00  0.00    +0.202 C 
ATOM     17  C   UNL     1     -32.120  28.604   5.286  0.00  0.00    +0.045 C 
ATOM     18  C   UNL     1     -32.232  29.749   4.501  0.00  0.00    +0.076 C 
ATOM     19  C   UNL     1     -31.315  30.796   4.652  0.00  0.00    +0.142 C 
ATOM     20  C   UNL     1     -31.091  28.500   6.229  0.00  0.00    +0.003 C 
ATOM     21  C   UNL     1     -30.287  30.687   5.588  0.00  0.00    +0.037 C 
ATOM     22  C   UNL     1     -30.174  29.543   6.375  0.00  0.00    +0.003 C 
ENDROOT
BRANCH   4  23
ATOM     23  O   UNL     1     -37.583  25.125   4.375  0.00  0.00    -0.386 OA
ATOM     24  H   UNL     1     -38.515  25.157   4.105  0.00  0.00    +0.210 HD
ENDBRANCH   4  23
BRANCH  14  25
ATOM     25  O   UNL     1     -35.283  29.867   1.445  0.00  0.00    -0.505 OA
ATOM     26  H   UNL     1     -35.892  30.519   1.734  0.00  0.00    +0.292 HD
ENDBRANCH  14  25
BRANCH  19  27
ATOM     27  O   UNL     1     -31.365  31.936   3.908  0.00  0.00    -0.471 OA
ATOM     28  C   UNL     1     -30.182  32.298   3.199  0.00  0.00    +0.252 C 
ENDBRANCH  19  27
TORSDOF 3
ENDMDL
MODEL 9
REMARK VINA RESULT:      -6.2      2.962      5.963
REMARK  Name = 197268
REMARK  3 active torsions:
REMARK  status: ('A' for Active; 'I' for Inactive)
REMARK    1  A    between atoms: C_4  and  O_23
REMARK    2  A    between atoms: C_14  and  O_25
REMARK    3  A    between atoms: C_19  and  O_27
REMARK                            x       y       z     vdW  Elec       q    Type
REMARK                         _______ _______ _______ _____ _____    ______ ____
ROOT
ATOM      1  O   UNL     1     -37.073  28.498   0.428  0.00  0.00    -0.291 OA
ATOM      2  O   UNL     1     -38.374  27.015   2.077  0.00  0.00    -0.287 OA
ATOM      3  O   UNL     1     -34.905  23.542   3.933  0.00  0.00    -0.286 OA
ATOM      4  C   UNL     1     -35.014  30.756   2.507  0.00  0.00    +0.100 C 
ATOM      5  C   UNL     1     -33.848  29.765   2.480  0.00  0.00    +0.054 C 
ATOM      6  C   UNL     1     -36.056  30.393   1.451  0.00  0.00    +0.096 C 
ATOM      7  C   UNL     1     -34.340  28.351   2.667  0.00  0.00    -0.014 C 
ATOM      8  C   UNL     1     -35.600  27.944   2.191  0.00  0.00    +0.034 C 
ATOM      9  C   UNL     1     -36.324  28.905   1.313  0.00  0.00    +0.175 C 
ATOM     10  C   UNL     1     -36.065  26.637   2.460  0.00  0.00    +0.047 C 
ATOM     11  C   UNL     1     -34.502  32.183   2.287  0.00  0.00    +0.030 C 
ATOM     12  C   UNL     1     -35.209  25.721   3.088  0.00  0.00    +0.076 C 
ATOM     13  C   UNL     1     -33.513  27.425   3.314  0.00  0.00    +0.033 C 
ATOM     14  C   UNL     1     -33.935  26.114   3.508  0.00  0.00    +0.136 C 
ATOM     15  C   UNL     1     -37.465  26.205   2.201  0.00  0.00    +0.196 C 
ATOM     16  C   UNL     1     -35.616  24.314   3.301  0.00  0.00    +0.202 C 
ATOM     17  C   UNL     1     -37.781  24.765   2.177  0.00  0.00    +0.045 C 
ATOM     18  C   UNL     1     -36.887  23.845   2.720  0.00  0.00    +0.076 C 
ATOM     19  C   UNL     1     -37.201  22.482   2.727  0.00  0.00    +0.142 C 
ATOM     20  C   UNL     1     -38.997  24.327   1.641  0.00  0.00    +0.003 C 
ATOM     21  C   UNL     1     -38.411  22.046   2.186  0.00  0.00    +0.037 C 
ATOM     22  C   UNL     1     -39.307  22.966   1.645  0.00  0.00    +0.003 C 
ENDROOT
BRANCH   4  23
ATOM     23  O   UNL     1     -35.615  30.718   3.805  0.00  0.00    -0.386 OA
ATOM     24  H   UNL     1     -36.125  29.898   3.902  0.00  0.00    +0.210 HD
ENDBRANCH   4  23
BRANCH  14  25
ATOM     25  O   UNL     1     -33.055  25.268   4.116  0.00  0.00    -0.505 OA
ATOM     26  H   UNL     1     -32.784  24.482   3.683  0.00  0.00    +0.292 HD
ENDBRANCH  14  25
BRANCH  19  27
ATOM     27  O   UNL     1     -36.365  21.532   3.233  0.00  0.00    -0.471 OA
ATOM     28  C   UNL     1     -35.935  20.507   2.340  0.00  0.00    +0.252 C 
ENDBRANCH  19  27
TORSDOF 3
ENDMDL
