MODEL 1
REMARK VINA RESULT:      -6.0      0.000      0.000
REMARK  Name = 20086354
REMARK  13 active torsions:
REMARK  status: ('A' for Active; 'I' for Inactive)
REMARK    1  A    between atoms: CA_1  and  C_4
REMARK    2  A    between atoms: CA_1  and  N_16
REMARK    3  A    between atoms: CA_1  and  CB_27
REMARK    4  A    between atoms: N_3  and  CA_6
REMARK    5  A    between atoms: CA_6  and  C_8
REMARK    6  A    between atoms: CA_6  and  C_11
REMARK    7  A    between atoms: C_8  and  O_9
REMARK    8  A    between atoms: C_11  and  C_12
REMARK    9  A    between atoms: C_12  and  C_13
REMARK   10  A    between atoms: C_17  and  O_19
REMARK   11  A    between atoms: O_19  and  C_20
REMARK   12  A    between atoms: C_20  and  C_21
REMARK   13  A    between atoms: CB_27  and  CG_28
REMARK                            x       y       z     vdW  Elec       q    Type
REMARK                         _______ _______ _______ _____ _____    ______ ____
ROOT
ATOM      1  CA  UNL     1     -35.768  23.578   3.712  0.00  0.00    +0.151 C 
ENDROOT
BRANCH   1   4
ATOM      2  O   UNL     1     -37.897  24.644   4.171  0.00  0.00    -0.273 OA
ATOM      3  N   UNL     1     -37.803  22.980   2.553  0.00  0.00    -0.295 N 
ATOM      4  C   UNL     1     -37.267  23.800   3.536  0.00  0.00    +0.241 C 
ATOM      5  H   UNL     1     -37.208  22.337   2.105  0.00  0.00    +0.150 HD
BRANCH   3   6
ATOM      6  CA  UNL     1     -39.191  23.026   2.153  0.00  0.00    +0.171 C 
BRANCH   6   8
ATOM      7  OXT UNL     1     -40.638  21.261   1.307  0.00  0.00    -0.248 OA
ATOM      8  C   UNL     1     -39.558  21.605   1.772  0.00  0.00    +0.332 C 
BRANCH   8   9
ATOM      9  O   UNL     1     -38.560  20.724   2.042  0.00  0.00    -0.479 OA
ATOM     10  H   UNL     1     -38.765  19.831   2.238  0.00  0.00    +0.295 HD
ENDBRANCH   8   9
ENDBRANCH   6   8
BRANCH   6  11
ATOM     11  C   UNL     1     -39.389  23.998   0.991  0.00  0.00    +0.031 C 
BRANCH  11  12
ATOM     12  C   UNL     1     -40.057  25.307   1.424  0.00  0.00    +0.002 C 
BRANCH  12  13
ATOM     13  C   UNL     1     -39.376  26.516   0.778  0.00  0.00    +0.000 C 
ATOM     14  C   UNL     1     -37.942  26.668   1.257  0.00  0.00    +0.000 C 
ENDBRANCH  12  13
ENDBRANCH  11  12
ENDBRANCH   6  11
ENDBRANCH   3   6
ENDBRANCH   1   4
BRANCH   1  16
ATOM     15  O   UNL     1     -35.184  21.119   5.145  0.00  0.00    -0.226 OA
ATOM     16  N   UNL     1     -35.462  22.285   3.158  0.00  0.00    -0.264 N 
ATOM     17  C   UNL     1     -35.196  21.164   3.919  0.00  0.00    +0.402 C 
ATOM     18  H   UNL     1     -35.442  22.195   2.177  0.00  0.00    +0.153 HD
BRANCH  17  19
ATOM     19  O   UNL     1     -34.944  20.097   3.102  0.00  0.00    -0.430 OA
BRANCH  19  20
ATOM     20  C   UNL     1     -34.868  20.388   1.702  0.00  0.00    +0.237 C 
BRANCH  20  21
ATOM     21  C   UNL     1     -33.560  19.886   1.167  0.00  0.00    +0.021 C 
ATOM     22  C   UNL     1     -33.094  18.623   1.536  0.00  0.00    -0.001 C 
ATOM     23  C   UNL     1     -32.809  20.679   0.300  0.00  0.00    -0.001 C 
ATOM     24  C   UNL     1     -31.877  18.155   1.039  0.00  0.00    -0.000 C 
ATOM     25  C   UNL     1     -31.593  20.212  -0.198  0.00  0.00    -0.000 C 
ATOM     26  C   UNL     1     -31.127  18.950   0.171  0.00  0.00    -0.000 C 
ENDBRANCH  20  21
ENDBRANCH  19  20
ENDBRANCH  17  19
ENDBRANCH   1  16
BRANCH   1  27
ATOM     27  CB  UNL     1     -34.981  24.704   3.028  0.00  0.00    +0.029 C 
BRANCH  27  28
ATOM     28  CG  UNL     1     -33.902  25.366   3.908  0.00  0.00    +0.002 C 
ATOM     29  CD1 UNL     1     -33.652  26.825   3.525  0.00  0.00    +0.000 C 
ATOM     30  CD2 UNL     1     -34.315  25.284   5.381  0.00  0.00    +0.000 C 
ENDBRANCH  27  28
ENDBRANCH   1  27
TORSDOF 13
ENDMDL
MODEL 2
REMARK VINA RESULT:      -5.9      1.864      4.927
REMARK  Name = 20086354
REMARK  13 active torsions:
REMARK  status: ('A' for Active; 'I' for Inactive)
REMARK    1  A    between atoms: CA_1  and  C_4
REMARK    2  A    between atoms: CA_1  and  N_16
REMARK    3  A    between atoms: CA_1  and  CB_27
REMARK    4  A    between atoms: N_3  and  CA_6
REMARK    5  A    between atoms: CA_6  and  C_8
REMARK    6  A    between atoms: CA_6  and  C_11
REMARK    7  A    between atoms: C_8  and  O_9
REMARK    8  A    between atoms: C_11  and  C_12
REMARK    9  A    between atoms: C_12  and  C_13
REMARK   10  A    between atoms: C_17  and  O_19
REMARK   11  A    between atoms: O_19  and  C_20
REMARK   12  A    between atoms: C_20  and  C_21
REMARK   13  A    between atoms: CB_27  and  CG_28
REMARK                            x       y       z     vdW  Elec       q    Type
REMARK                         _______ _______ _______ _____ _____    ______ ____
ROOT
ATOM      1  CA  UNL     1     -37.799  23.445   2.121  0.00  0.00    +0.151 C 
ENDROOT
BRANCH   1   4
ATOM      2  O   UNL     1     -38.573  24.676   4.061  0.00  0.00    -0.273 OA
ATOM      3  N   UNL     1     -36.396  25.005   3.321  0.00  0.00    -0.295 N 
ATOM      4  C   UNL     1     -37.664  24.445   3.266  0.00  0.00    +0.241 C 
ATOM      5  H   UNL     1     -35.741  24.749   2.633  0.00  0.00    +0.150 HD
BRANCH   3   6
ATOM      6  CA  UNL     1     -35.988  25.944   4.342  0.00  0.00    +0.171 C 
BRANCH   6   8
ATOM      7  OXT UNL     1     -33.807  26.449   3.389  0.00  0.00    -0.248 OA
ATOM      8  C   UNL     1     -34.933  26.821   3.698  0.00  0.00    +0.332 C 
BRANCH   8   9
ATOM      9  O   UNL     1     -35.356  28.100   3.530  0.00  0.00    -0.479 OA
ATOM     10  H   UNL     1     -35.154  28.560   2.739  0.00  0.00    +0.295 HD
ENDBRANCH   8   9
ENDBRANCH   6   8
BRANCH   6  11
ATOM     11  C   UNL     1     -35.450  25.211   5.570  0.00  0.00    +0.031 C 
BRANCH  11  12
ATOM     12  C   UNL     1     -34.887  23.827   5.232  0.00  0.00    +0.002 C 
BRANCH  12  13
ATOM     13  C   UNL     1     -35.492  22.748   6.131  0.00  0.00    +0.000 C 
ATOM     14  C   UNL     1     -35.013  21.361   5.735  0.00  0.00    +0.000 C 
ENDBRANCH  12  13
ENDBRANCH  11  12
ENDBRANCH   6  11
ENDBRANCH   3   6
ENDBRANCH   1   4
BRANCH   1  16
ATOM     15  O   UNL     1     -35.093  23.123   1.116  0.00  0.00    -0.226 OA
ATOM     16  N   UNL     1     -36.882  22.369   2.387  0.00  0.00    -0.264 N 
ATOM     17  C   UNL     1     -35.605  22.296   1.863  0.00  0.00    +0.402 C 
ATOM     18  H   UNL     1     -37.181  21.640   2.979  0.00  0.00    +0.153 HD
BRANCH  17  19
ATOM     19  O   UNL     1     -34.987  21.159   2.302  0.00  0.00    -0.430 OA
BRANCH  19  20
ATOM     20  C   UNL     1     -35.024  20.043   1.404  0.00  0.00    +0.237 C 
BRANCH  20  21
ATOM     21  C   UNL     1     -33.619  19.652   1.051  0.00  0.00    +0.021 C 
ATOM     22  C   UNL     1     -33.098  18.439   1.503  0.00  0.00    -0.001 C 
ATOM     23  C   UNL     1     -32.834  20.500   0.270  0.00  0.00    -0.001 C 
ATOM     24  C   UNL     1     -31.791  18.076   1.174  0.00  0.00    -0.000 C 
ATOM     25  C   UNL     1     -31.528  20.137  -0.060  0.00  0.00    -0.000 C 
ATOM     26  C   UNL     1     -31.007  18.925   0.393  0.00  0.00    -0.000 C 
ENDBRANCH  20  21
ENDBRANCH  19  20
ENDBRANCH  17  19
ENDBRANCH   1  16
BRANCH   1  27
ATOM     27  CB  UNL     1     -39.250  22.958   2.010  0.00  0.00    +0.029 C 
BRANCH  27  28
ATOM     28  CG  UNL     1     -40.042  23.548   0.826  0.00  0.00    +0.002 C 
ATOM     29  CD1 UNL     1     -41.132  24.518   1.279  0.00  0.00    +0.000 C 
ATOM     30  CD2 UNL     1     -39.083  24.260  -0.132  0.00  0.00    +0.000 C 
ENDBRANCH  27  28
ENDBRANCH   1  27
TORSDOF 13
ENDMDL
MODEL 3
REMARK VINA RESULT:      -5.9      4.547      8.057
REMARK  Name = 20086354
REMARK  13 active torsions:
REMARK  status: ('A' for Active; 'I' for Inactive)
REMARK    1  A    between atoms: CA_1  and  C_4
REMARK    2  A    between atoms: CA_1  and  N_16
REMARK    3  A    between atoms: CA_1  and  CB_27
REMARK    4  A    between atoms: N_3  and  CA_6
REMARK    5  A    between atoms: CA_6  and  C_8
REMARK    6  A    between atoms: CA_6  and  C_11
REMARK    7  A    between atoms: C_8  and  O_9
REMARK    8  A    between atoms: C_11  and  C_12
REMARK    9  A    between atoms: C_12  and  C_13
REMARK   10  A    between atoms: C_17  and  O_19
REMARK   11  A    between atoms: O_19  and  C_20
REMARK   12  A    between atoms: C_20  and  C_21
REMARK   13  A    between atoms: CB_27  and  CG_28
REMARK                            x       y       z     vdW  Elec       q    Type
REMARK                         _______ _______ _______ _____ _____    ______ ____
ROOT
ATOM      1  CA  UNL     1     -34.688  29.158   2.636  0.00  0.00    +0.151 C 
ENDROOT
BRANCH   1   4
ATOM      2  O   UNL     1     -32.289  28.966   2.343  0.00  0.00    -0.273 OA
ATOM      3  N   UNL     1     -33.155  28.997   4.498  0.00  0.00    -0.295 N 
ATOM      4  C   UNL     1     -33.246  29.014   3.113  0.00  0.00    +0.241 C 
ATOM      5  H   UNL     1     -33.986  29.041   5.022  0.00  0.00    +0.150 HD
BRANCH   3   6
ATOM      6  CA  UNL     1     -31.898  28.921   5.208  0.00  0.00    +0.171 C 
BRANCH   6   8
ATOM      7  OXT UNL     1     -33.112  27.224   6.461  0.00  0.00    -0.248 OA
ATOM      8  C   UNL     1     -32.056  27.790   6.205  0.00  0.00    +0.332 C 
BRANCH   8   9
ATOM      9  O   UNL     1     -30.890  27.487   6.831  0.00  0.00    -0.479 OA
ATOM     10  H   UNL     1     -30.550  28.059   7.490  0.00  0.00    +0.295 HD
ENDBRANCH   8   9
ENDBRANCH   6   8
BRANCH   6  11
ATOM     11  C   UNL     1     -31.582  30.249   5.896  0.00  0.00    +0.031 C 
BRANCH  11  12
ATOM     12  C   UNL     1     -30.539  31.073   5.135  0.00  0.00    +0.002 C 
BRANCH  12  13
ATOM     13  C   UNL     1     -31.204  32.022   4.137  0.00  0.00    +0.000 C 
ATOM     14  C   UNL     1     -30.175  32.866   3.401  0.00  0.00    +0.000 C 
ENDBRANCH  12  13
ENDBRANCH  11  12
ENDBRANCH   6  11
ENDBRANCH   3   6
ENDBRANCH   1   4
BRANCH   1  16
ATOM     15  O   UNL     1     -35.375  26.582   1.484  0.00  0.00    -0.226 OA
ATOM     16  N   UNL     1     -35.444  28.094   3.243  0.00  0.00    -0.264 N 
ATOM     17  C   UNL     1     -35.725  26.894   2.617  0.00  0.00    +0.402 C 
ATOM     18  H   UNL     1     -35.780  28.228   4.158  0.00  0.00    +0.153 HD
BRANCH  17  19
ATOM     19  O   UNL     1     -36.456  26.096   3.451  0.00  0.00    -0.430 OA
BRANCH  19  20
ATOM     20  C   UNL     1     -35.851  25.790   4.712  0.00  0.00    +0.237 C 
BRANCH  20  21
ATOM     21  C   UNL     1     -35.650  24.307   4.813  0.00  0.00    +0.021 C 
ATOM     22  C   UNL     1     -35.303  23.731   6.036  0.00  0.00    -0.001 C 
ATOM     23  C   UNL     1     -35.813  23.502   3.685  0.00  0.00    -0.001 C 
ATOM     24  C   UNL     1     -35.117  22.351   6.129  0.00  0.00    -0.000 C 
ATOM     25  C   UNL     1     -35.629  22.123   3.778  0.00  0.00    -0.000 C 
ATOM     26  C   UNL     1     -35.280  21.547   5.000  0.00  0.00    -0.000 C 
ENDBRANCH  20  21
ENDBRANCH  19  20
ENDBRANCH  17  19
ENDBRANCH   1  16
BRANCH   1  27
ATOM     27  CB  UNL     1     -35.234  30.543   3.008  0.00  0.00    +0.029 C 
BRANCH  27  28
ATOM     28  CG  UNL     1     -35.541  31.461   1.808  0.00  0.00    +0.002 C 
ATOM     29  CD1 UNL     1     -36.959  32.029   1.856  0.00  0.00    +0.000 C 
ATOM     30  CD2 UNL     1     -34.527  32.608   1.764  0.00  0.00    +0.000 C 
ENDBRANCH  27  28
ENDBRANCH   1  27
TORSDOF 13
ENDMDL
MODEL 4
REMARK VINA RESULT:      -5.8      1.197      1.431
REMARK  Name = 20086354
REMARK  13 active torsions:
REMARK  status: ('A' for Active; 'I' for Inactive)
REMARK    1  A    between atoms: CA_1  and  C_4
REMARK    2  A    between atoms: CA_1  and  N_16
REMARK    3  A    between atoms: CA_1  and  CB_27
REMARK    4  A    between atoms: N_3  and  CA_6
REMARK    5  A    between atoms: CA_6  and  C_8
REMARK    6  A    between atoms: CA_6  and  C_11
REMARK    7  A    between atoms: C_8  and  O_9
REMARK    8  A    between atoms: C_11  and  C_12
REMARK    9  A    between atoms: C_12  and  C_13
REMARK   10  A    between atoms: C_17  and  O_19
REMARK   11  A    between atoms: O_19  and  C_20
REMARK   12  A    between atoms: C_20  and  C_21
REMARK   13  A    between atoms: CB_27  and  CG_28
REMARK                            x       y       z     vdW  Elec       q    Type
REMARK                         _______ _______ _______ _____ _____    ______ ____
ROOT
ATOM      1  CA  UNL     1     -36.827  23.566   3.557  0.00  0.00    +0.151 C 
ENDROOT
BRANCH   1   4
ATOM      2  O   UNL     1     -39.073  24.479   3.515  0.00  0.00    -0.273 OA
ATOM      3  N   UNL     1     -38.493  22.860   1.954  0.00  0.00    -0.295 N 
ATOM      4  C   UNL     1     -38.257  23.692   3.040  0.00  0.00    +0.241 C 
ATOM      5  H   UNL     1     -37.768  22.267   1.653  0.00  0.00    +0.150 HD
BRANCH   3   6
ATOM      6  CA  UNL     1     -39.751  22.822   1.244  0.00  0.00    +0.171 C 
BRANCH   6   8
ATOM      7  OXT UNL     1     -41.028  20.915   0.435  0.00  0.00    -0.248 OA
ATOM      8  C   UNL     1     -39.990  21.364   0.905  0.00  0.00    +0.332 C 
BRANCH   8   9
ATOM      9  O   UNL     1     -38.927  20.579   1.220  0.00  0.00    -0.479 OA
ATOM     10  H   UNL     1     -38.646  19.912   0.626  0.00  0.00    +0.295 HD
ENDBRANCH   8   9
ENDBRANCH   6   8
BRANCH   6  11
ATOM     11  C   UNL     1     -39.694  23.697  -0.007  0.00  0.00    +0.031 C 
BRANCH  11  12
ATOM     12  C   UNL     1     -40.972  24.515  -0.214  0.00  0.00    +0.002 C 
BRANCH  12  13
ATOM     13  C   UNL     1     -41.700  24.751   1.111  0.00  0.00    +0.000 C 
ATOM     14  C   UNL     1     -41.495  26.171   1.613  0.00  0.00    +0.000 C 
ENDBRANCH  12  13
ENDBRANCH  11  12
ENDBRANCH   6  11
ENDBRANCH   3   6
ENDBRANCH   1   4
BRANCH   1  16
ATOM     15  O   UNL     1     -35.216  21.715   5.111  0.00  0.00    -0.226 OA
ATOM     16  N   UNL     1     -36.345  22.270   3.161  0.00  0.00    -0.264 N 
ATOM     17  C   UNL     1     -35.580  21.451   3.969  0.00  0.00    +0.402 C 
ATOM     18  H   UNL     1     -36.574  21.946   2.259  0.00  0.00    +0.153 HD
BRANCH  17  19
ATOM     19  O   UNL     1     -35.283  20.293   3.308  0.00  0.00    -0.430 OA
BRANCH  19  20
ATOM     20  C   UNL     1     -35.391  20.343   1.881  0.00  0.00    +0.237 C 
BRANCH  20  21
ATOM     21  C   UNL     1     -34.050  20.047   1.277  0.00  0.00    +0.021 C 
ATOM     22  C   UNL     1     -33.401  18.847   1.573  0.00  0.00    -0.001 C 
ATOM     23  C   UNL     1     -33.452  20.968   0.417  0.00  0.00    -0.001 C 
ATOM     24  C   UNL     1     -32.154  18.572   1.011  0.00  0.00    -0.000 C 
ATOM     25  C   UNL     1     -32.207  20.693  -0.145  0.00  0.00    -0.000 C 
ATOM     26  C   UNL     1     -31.557  19.494   0.152  0.00  0.00    -0.000 C 
ENDBRANCH  20  21
ENDBRANCH  19  20
ENDBRANCH  17  19
ENDBRANCH   1  16
BRANCH   1  27
ATOM     27  CB  UNL     1     -35.960  24.703   3.001  0.00  0.00    +0.029 C 
BRANCH  27  28
ATOM     28  CG  UNL     1     -35.288  25.587   4.071  0.00  0.00    +0.002 C 
ATOM     29  CD1 UNL     1     -36.066  25.604   5.387  0.00  0.00    +0.000 C 
ATOM     30  CD2 UNL     1     -33.859  25.094   4.324  0.00  0.00    +0.000 C 
ENDBRANCH  27  28
ENDBRANCH   1  27
TORSDOF 13
ENDMDL
MODEL 5
REMARK VINA RESULT:      -5.8      1.415      2.027
REMARK  Name = 20086354
REMARK  13 active torsions:
REMARK  status: ('A' for Active; 'I' for Inactive)
REMARK    1  A    between atoms: CA_1  and  C_4
REMARK    2  A    between atoms: CA_1  and  N_16
REMARK    3  A    between atoms: CA_1  and  CB_27
REMARK    4  A    between atoms: N_3  and  CA_6
REMARK    5  A    between atoms: CA_6  and  C_8
REMARK    6  A    between atoms: CA_6  and  C_11
REMARK    7  A    between atoms: C_8  and  O_9
REMARK    8  A    between atoms: C_11  and  C_12
REMARK    9  A    between atoms: C_12  and  C_13
REMARK   10  A    between atoms: C_17  and  O_19
REMARK   11  A    between atoms: O_19  and  C_20
REMARK   12  A    between atoms: C_20  and  C_21
REMARK   13  A    between atoms: CB_27  and  CG_28
REMARK                            x       y       z     vdW  Elec       q    Type
REMARK                         _______ _______ _______ _____ _____    ______ ____
ROOT
ATOM      1  CA  UNL     1     -36.580  23.930   3.749  0.00  0.00    +0.151 C 
ENDROOT
BRANCH   1   4
ATOM      2  O   UNL     1     -38.745  24.909   3.268  0.00  0.00    -0.273 OA
ATOM      3  N   UNL     1     -38.053  23.062   2.041  0.00  0.00    -0.295 N 
ATOM      4  C   UNL     1     -37.918  24.033   3.024  0.00  0.00    +0.241 C 
ATOM      5  H   UNL     1     -37.328  22.406   1.928  0.00  0.00    +0.150 HD
BRANCH   3   6
ATOM      6  CA  UNL     1     -39.205  22.969   1.173  0.00  0.00    +0.171 C 
BRANCH   6   8
ATOM      7  OXT UNL     1     -40.748  21.124   0.804  0.00  0.00    -0.248 OA
ATOM      8  C   UNL     1     -39.759  21.572   1.371  0.00  0.00    +0.332 C 
BRANCH   8   9
ATOM      9  O   UNL     1     -39.056  20.864   2.293  0.00  0.00    -0.479 OA
ATOM     10  H   UNL     1     -39.305  19.984   2.495  0.00  0.00    +0.295 HD
ENDBRANCH   8   9
ENDBRANCH   6   8
BRANCH   6  11
ATOM     11  C   UNL     1     -38.810  23.226  -0.282  0.00  0.00    +0.031 C 
BRANCH  11  12
ATOM     12  C   UNL     1     -37.297  23.146  -0.505  0.00  0.00    +0.002 C 
BRANCH  12  13
ATOM     13  C   UNL     1     -36.948  22.100  -1.565  0.00  0.00    +0.000 C 
ATOM     14  C   UNL     1     -37.172  20.688  -1.047  0.00  0.00    +0.000 C 
ENDBRANCH  12  13
ENDBRANCH  11  12
ENDBRANCH   6  11
ENDBRANCH   3   6
ENDBRANCH   1   4
BRANCH   1  16
ATOM     15  O   UNL     1     -35.551  21.949   5.607  0.00  0.00    -0.226 OA
ATOM     16  N   UNL     1     -36.029  22.636   3.443  0.00  0.00    -0.264 N 
ATOM     17  C   UNL     1     -35.561  21.753   4.396  0.00  0.00    +0.402 C 
ATOM     18  H   UNL     1     -35.984  22.364   2.498  0.00  0.00    +0.153 HD
BRANCH  17  19
ATOM     19  O   UNL     1     -35.104  20.616   3.791  0.00  0.00    -0.430 OA
BRANCH  19  20
ATOM     20  C   UNL     1     -35.534  20.413   2.440  0.00  0.00    +0.237 C 
BRANCH  20  21
ATOM     21  C   UNL     1     -34.328  20.278   1.557  0.00  0.00    +0.021 C 
ATOM     22  C   UNL     1     -33.580  19.100   1.572  0.00  0.00    -0.001 C 
ATOM     23  C   UNL     1     -33.955  21.330   0.720  0.00  0.00    -0.001 C 
ATOM     24  C   UNL     1     -32.459  18.976   0.751  0.00  0.00    -0.000 C 
ATOM     25  C   UNL     1     -32.835  21.205  -0.102  0.00  0.00    -0.000 C 
ATOM     26  C   UNL     1     -32.087  20.028  -0.086  0.00  0.00    -0.000 C 
ENDBRANCH  20  21
ENDBRANCH  19  20
ENDBRANCH  17  19
ENDBRANCH   1  16
BRANCH   1  27
ATOM     27  CB  UNL     1     -35.653  25.073   3.316  0.00  0.00    +0.029 C 
BRANCH  27  28
ATOM     28  CG  UNL     1     -34.325  25.161   4.095  0.00  0.00    +0.002 C 
ATOM     29  CD1 UNL     1     -33.376  26.210   3.515  0.00  0.00    +0.000 C 
ATOM     30  CD2 UNL     1     -34.610  25.480   5.566  0.00  0.00    +0.000 C 
ENDBRANCH  27  28
ENDBRANCH   1  27
TORSDOF 13
ENDMDL
MODEL 6
REMARK VINA RESULT:      -5.6      1.906      2.990
REMARK  Name = 20086354
REMARK  13 active torsions:
REMARK  status: ('A' for Active; 'I' for Inactive)
REMARK    1  A    between atoms: CA_1  and  C_4
REMARK    2  A    between atoms: CA_1  and  N_16
REMARK    3  A    between atoms: CA_1  and  CB_27
REMARK    4  A    between atoms: N_3  and  CA_6
REMARK    5  A    between atoms: CA_6  and  C_8
REMARK    6  A    between atoms: CA_6  and  C_11
REMARK    7  A    between atoms: C_8  and  O_9
REMARK    8  A    between atoms: C_11  and  C_12
REMARK    9  A    between atoms: C_12  and  C_13
REMARK   10  A    between atoms: C_17  and  O_19
REMARK   11  A    between atoms: O_19  and  C_20
REMARK   12  A    between atoms: C_20  and  C_21
REMARK   13  A    between atoms: CB_27  and  CG_28
REMARK                            x       y       z     vdW  Elec       q    Type
REMARK                         _______ _______ _______ _____ _____    ______ ____
ROOT
ATOM      1  CA  UNL     1     -36.829  22.719   3.297  0.00  0.00    +0.151 C 
ENDROOT
BRANCH   1   4
ATOM      2  O   UNL     1     -39.059  22.547   2.359  0.00  0.00    -0.273 OA
ATOM      3  N   UNL     1     -38.072  24.643   2.525  0.00  0.00    -0.295 N 
ATOM      4  C   UNL     1     -38.106  23.263   2.662  0.00  0.00    +0.241 C 
ATOM      5  H   UNL     1     -37.257  25.121   2.800  0.00  0.00    +0.150 HD
BRANCH   3   6
ATOM      6  CA  UNL     1     -39.175  25.414   1.999  0.00  0.00    +0.171 C 
BRANCH   6   8
ATOM      7  OXT UNL     1     -39.013  27.439   0.659  0.00  0.00    -0.248 OA
ATOM      8  C   UNL     1     -38.583  26.743   1.571  0.00  0.00    +0.332 C 
BRANCH   8   9
ATOM      9  O   UNL     1     -37.479  27.072   2.290  0.00  0.00    -0.479 OA
ATOM     10  H   UNL     1     -36.656  26.671   2.092  0.00  0.00    +0.295 HD
ENDBRANCH   8   9
ENDBRANCH   6   8
BRANCH   6  11
ATOM     11  C   UNL     1     -40.267  25.589   3.054  0.00  0.00    +0.031 C 
BRANCH  11  12
ATOM     12  C   UNL     1     -41.627  25.941   2.444  0.00  0.00    +0.002 C 
BRANCH  12  13
ATOM     13  C   UNL     1     -42.187  27.230   3.047  0.00  0.00    +0.000 C 
ATOM     14  C   UNL     1     -43.417  26.958   3.898  0.00  0.00    +0.000 C 
ENDBRANCH  12  13
ENDBRANCH  11  12
ENDBRANCH   6  11
ENDBRANCH   3   6
ENDBRANCH   1   4
BRANCH   1  16
ATOM     15  O   UNL     1     -35.122  20.430   3.831  0.00  0.00    -0.226 OA
ATOM     16  N   UNL     1     -36.229  21.824   2.342  0.00  0.00    -0.264 N 
ATOM     17  C   UNL     1     -35.426  20.754   2.688  0.00  0.00    +0.402 C 
ATOM     18  H   UNL     1     -36.402  21.983   1.386  0.00  0.00    +0.153 HD
BRANCH  17  19
ATOM     19  O   UNL     1     -35.013  20.101   1.561  0.00  0.00    -0.430 OA
BRANCH  19  20
ATOM     20  C   UNL     1     -34.056  20.795   0.752  0.00  0.00    +0.237 C 
BRANCH  20  21
ATOM     21  C   UNL     1     -32.815  19.960   0.635  0.00  0.00    +0.021 C 
ATOM     22  C   UNL     1     -32.748  18.719   1.270  0.00  0.00    -0.001 C 
ATOM     23  C   UNL     1     -31.730  20.422  -0.110  0.00  0.00    -0.001 C 
ATOM     24  C   UNL     1     -31.594  17.942   1.160  0.00  0.00    -0.000 C 
ATOM     25  C   UNL     1     -30.577  19.645  -0.220  0.00  0.00    -0.000 C 
ATOM     26  C   UNL     1     -30.509  18.405   0.416  0.00  0.00    -0.000 C 
ENDBRANCH  20  21
ENDBRANCH  19  20
ENDBRANCH  17  19
ENDBRANCH   1  16
BRANCH   1  27
ATOM     27  CB  UNL     1     -35.893  23.873   3.678  0.00  0.00    +0.029 C 
BRANCH  27  28
ATOM     28  CG  UNL     1     -35.746  24.113   5.194  0.00  0.00    +0.002 C 
ATOM     29  CD1 UNL     1     -35.410  22.832   5.957  0.00  0.00    +0.000 C 
ATOM     30  CD2 UNL     1     -34.661  25.164   5.447  0.00  0.00    +0.000 C 
ENDBRANCH  27  28
ENDBRANCH   1  27
TORSDOF 13
ENDMDL
MODEL 7
REMARK VINA RESULT:      -5.5      5.178      8.933
REMARK  Name = 20086354
REMARK  13 active torsions:
REMARK  status: ('A' for Active; 'I' for Inactive)
REMARK    1  A    between atoms: CA_1  and  C_4
REMARK    2  A    between atoms: CA_1  and  N_16
REMARK    3  A    between atoms: CA_1  and  CB_27
REMARK    4  A    between atoms: N_3  and  CA_6
REMARK    5  A    between atoms: CA_6  and  C_8
REMARK    6  A    between atoms: CA_6  and  C_11
REMARK    7  A    between atoms: C_8  and  O_9
REMARK    8  A    between atoms: C_11  and  C_12
REMARK    9  A    between atoms: C_12  and  C_13
REMARK   10  A    between atoms: C_17  and  O_19
REMARK   11  A    between atoms: O_19  and  C_20
REMARK   12  A    between atoms: C_20  and  C_21
REMARK   13  A    between atoms: CB_27  and  CG_28
REMARK                            x       y       z     vdW  Elec       q    Type
REMARK                         _______ _______ _______ _____ _____    ______ ____
ROOT
ATOM      1  CA  UNL     1     -32.237  28.565   4.349  0.00  0.00    +0.151 C 
ENDROOT
BRANCH   1   4
ATOM      2  O   UNL     1     -31.072  27.322   2.623  0.00  0.00    -0.273 OA
ATOM      3  N   UNL     1     -29.826  28.466   4.215  0.00  0.00    -0.295 N 
ATOM      4  C   UNL     1     -31.005  28.026   3.629  0.00  0.00    +0.241 C 
ATOM      5  H   UNL     1     -29.885  29.027   5.021  0.00  0.00    +0.150 HD
BRANCH   3   6
ATOM      6  CA  UNL     1     -28.516  28.142   3.698  0.00  0.00    +0.171 C 
BRANCH   6   8
ATOM      7  OXT UNL     1     -27.742  26.521   5.341  0.00  0.00    -0.248 OA
ATOM      8  C   UNL     1     -28.194  26.758   4.227  0.00  0.00    +0.332 C 
BRANCH   8   9
ATOM      9  O   UNL     1     -28.425  25.786   3.306  0.00  0.00    -0.479 OA
ATOM     10  H   UNL     1     -28.050  25.854   2.451  0.00  0.00    +0.295 HD
ENDBRANCH   8   9
ENDBRANCH   6   8
BRANCH   6  11
ATOM     11  C   UNL     1     -27.485  29.178   4.146  0.00  0.00    +0.031 C 
BRANCH  11  12
ATOM     12  C   UNL     1     -28.054  30.180   5.154  0.00  0.00    +0.002 C 
BRANCH  12  13
ATOM     13  C   UNL     1     -27.518  29.913   6.562  0.00  0.00    +0.000 C 
ATOM     14  C   UNL     1     -28.616  29.421   7.491  0.00  0.00    +0.000 C 
ENDBRANCH  12  13
ENDBRANCH  11  12
ENDBRANCH   6  11
ENDBRANCH   3   6
ENDBRANCH   1   4
BRANCH   1  16
ATOM     15  O   UNL     1     -34.844  27.336   3.986  0.00  0.00    -0.226 OA
ATOM     16  N   UNL     1     -32.808  27.471   5.090  0.00  0.00    -0.264 N 
ATOM     17  C   UNL     1     -34.063  26.947   4.848  0.00  0.00    +0.402 C 
ATOM     18  H   UNL     1     -32.271  27.072   5.813  0.00  0.00    +0.153 HD
BRANCH  17  19
ATOM     19  O   UNL     1     -34.314  25.922   5.716  0.00  0.00    -0.430 OA
BRANCH  19  20
ATOM     20  C   UNL     1     -35.626  25.351   5.645  0.00  0.00    +0.237 C 
BRANCH  20  21
ATOM     21  C   UNL     1     -35.519  23.934   5.164  0.00  0.00    +0.021 C 
ATOM     22  C   UNL     1     -35.679  23.643   3.809  0.00  0.00    -0.001 C 
ATOM     23  C   UNL     1     -35.256  22.907   6.071  0.00  0.00    -0.001 C 
ATOM     24  C   UNL     1     -35.580  22.325   3.362  0.00  0.00    -0.000 C 
ATOM     25  C   UNL     1     -35.155  21.590   5.625  0.00  0.00    -0.000 C 
ATOM     26  C   UNL     1     -35.317  21.299   4.270  0.00  0.00    -0.000 C 
ENDBRANCH  20  21
ENDBRANCH  19  20
ENDBRANCH  17  19
ENDBRANCH   1  16
BRANCH   1  27
ATOM     27  CB  UNL     1     -31.851  29.741   5.255  0.00  0.00    +0.029 C 
BRANCH  27  28
ATOM     28  CG  UNL     1     -32.277  31.128   4.732  0.00  0.00    +0.002 C 
ATOM     29  CD1 UNL     1     -31.101  31.925   4.168  0.00  0.00    +0.000 C 
ATOM     30  CD2 UNL     1     -33.353  30.965   3.655  0.00  0.00    +0.000 C 
ENDBRANCH  27  28
ENDBRANCH   1  27
TORSDOF 13
ENDMDL
MODEL 8
REMARK VINA RESULT:      -5.5      1.589      2.196
REMARK  Name = 20086354
REMARK  13 active torsions:
REMARK  status: ('A' for Active; 'I' for Inactive)
REMARK    1  A    between atoms: CA_1  and  C_4
REMARK    2  A    between atoms: CA_1  and  N_16
REMARK    3  A    between atoms: CA_1  and  CB_27
REMARK    4  A    between atoms: N_3  and  CA_6
REMARK    5  A    between atoms: CA_6  and  C_8
REMARK    6  A    between atoms: CA_6  and  C_11
REMARK    7  A    between atoms: C_8  and  O_9
REMARK    8  A    between atoms: C_11  and  C_12
REMARK    9  A    between atoms: C_12  and  C_13
REMARK   10  A    between atoms: C_17  and  O_19
REMARK   11  A    between atoms: O_19  and  C_20
REMARK   12  A    between atoms: C_20  and  C_21
REMARK   13  A    between atoms: CB_27  and  CG_28
REMARK                            x       y       z     vdW  Elec       q    Type
REMARK                         _______ _______ _______ _____ _____    ______ ____
ROOT
ATOM      1  CA  UNL     1     -36.869  23.693   3.928  0.00  0.00    +0.151 C 
ENDROOT
BRANCH   1   4
ATOM      2  O   UNL     1     -38.790  24.920   3.099  0.00  0.00    -0.273 OA
ATOM      3  N   UNL     1     -38.327  22.826   2.205  0.00  0.00    -0.295 N 
ATOM      4  C   UNL     1     -38.107  23.897   3.060  0.00  0.00    +0.241 C 
ATOM      5  H   UNL     1     -37.718  22.054   2.257  0.00  0.00    +0.150 HD
BRANCH   3   6
ATOM      6  CA  UNL     1     -39.404  22.788   1.242  0.00  0.00    +0.171 C 
BRANCH   6   8
ATOM      7  OXT UNL     1     -40.044  20.684   0.201  0.00  0.00    -0.248 OA
ATOM      8  C   UNL     1     -39.883  21.350   1.216  0.00  0.00    +0.332 C 
BRANCH   8   9
ATOM      9  O   UNL     1     -40.162  20.876   2.458  0.00  0.00    -0.479 OA
ATOM     10  H   UNL     1     -40.070  21.435   3.204  0.00  0.00    +0.295 HD
ENDBRANCH   8   9
ENDBRANCH   6   8
BRANCH   6  11
ATOM     11  C   UNL     1     -38.920  23.254  -0.131  0.00  0.00    +0.031 C 
BRANCH  11  12
ATOM     12  C   UNL     1     -37.437  22.955  -0.367  0.00  0.00    +0.002 C 
BRANCH  12  13
ATOM     13  C   UNL     1     -36.723  24.154  -0.993  0.00  0.00    +0.000 C 
ATOM     14  C   UNL     1     -35.514  23.720  -1.807  0.00  0.00    +0.000 C 
ENDBRANCH  12  13
ENDBRANCH  11  12
ENDBRANCH   6  11
ENDBRANCH   3   6
ENDBRANCH   1   4
BRANCH   1  16
ATOM     15  O   UNL     1     -35.378  21.856   5.613  0.00  0.00    -0.226 OA
ATOM     16  N   UNL     1     -36.297  22.426   3.559  0.00  0.00    -0.264 N 
ATOM     17  C   UNL     1     -35.599  21.612   4.431  0.00  0.00    +0.402 C 
ATOM     18  H   UNL     1     -36.409  22.119   2.630  0.00  0.00    +0.153 HD
BRANCH  17  19
ATOM     19  O   UNL     1     -35.185  20.483   3.782  0.00  0.00    -0.430 OA
BRANCH  19  20
ATOM     20  C   UNL     1     -35.604  20.359   2.417  0.00  0.00    +0.237 C 
BRANCH  20  21
ATOM     21  C   UNL     1     -34.390  20.297   1.536  0.00  0.00    +0.021 C 
ATOM     22  C   UNL     1     -34.053  21.390   0.736  0.00  0.00    -0.001 C 
ATOM     23  C   UNL     1     -33.598  19.149   1.519  0.00  0.00    -0.001 C 
ATOM     24  C   UNL     1     -32.925  21.332  -0.083  0.00  0.00    -0.000 C 
ATOM     25  C   UNL     1     -32.470  19.092   0.702  0.00  0.00    -0.000 C 
ATOM     26  C   UNL     1     -32.133  20.183  -0.100  0.00  0.00    -0.000 C 
ENDBRANCH  20  21
ENDBRANCH  19  20
ENDBRANCH  17  19
ENDBRANCH   1  16
BRANCH   1  27
ATOM     27  CB  UNL     1     -35.886  24.854   3.730  0.00  0.00    +0.029 C 
BRANCH  27  28
ATOM     28  CG  UNL     1     -35.513  25.144   2.262  0.00  0.00    +0.002 C 
ATOM     29  CD1 UNL     1     -35.777  26.597   1.869  0.00  0.00    +0.000 C 
ATOM     30  CD2 UNL     1     -34.038  24.806   2.028  0.00  0.00    +0.000 C 
ENDBRANCH  27  28
ENDBRANCH   1  27
TORSDOF 13
ENDMDL
MODEL 9
REMARK VINA RESULT:      -5.5      1.335      2.696
REMARK  Name = 20086354
REMARK  13 active torsions:
REMARK  status: ('A' for Active; 'I' for Inactive)
REMARK    1  A    between atoms: CA_1  and  C_4
REMARK    2  A    between atoms: CA_1  and  N_16
REMARK    3  A    between atoms: CA_1  and  CB_27
REMARK    4  A    between atoms: N_3  and  CA_6
REMARK    5  A    between atoms: CA_6  and  C_8
REMARK    6  A    between atoms: CA_6  and  C_11
REMARK    7  A    between atoms: C_8  and  O_9
REMARK    8  A    between atoms: C_11  and  C_12
REMARK    9  A    between atoms: C_12  and  C_13
REMARK   10  A    between atoms: C_17  and  O_19
REMARK   11  A    between atoms: O_19  and  C_20
REMARK   12  A    between atoms: C_20  and  C_21
REMARK   13  A    between atoms: CB_27  and  CG_28
REMARK                            x       y       z     vdW  Elec       q    Type
REMARK                         _______ _______ _______ _____ _____    ______ ____
ROOT
ATOM      1  CA  UNL     1     -36.224  23.536   3.750  0.00  0.00    +0.151 C 
ENDROOT
BRANCH   1   4
ATOM      2  O   UNL     1     -38.464  24.464   3.754  0.00  0.00    -0.273 OA
ATOM      3  N   UNL     1     -37.241  24.498   1.779  0.00  0.00    -0.295 N 
ATOM      4  C   UNL     1     -37.445  24.197   3.119  0.00  0.00    +0.241 C 
ATOM      5  H   UNL     1     -36.386  24.240   1.367  0.00  0.00    +0.150 HD
BRANCH   3   6
ATOM      6  CA  UNL     1     -38.222  25.174   0.961  0.00  0.00    +0.171 C 
BRANCH   6   8
ATOM      7  OXT UNL     1     -37.578  27.414   1.660  0.00  0.00    -0.248 OA
ATOM      8  C   UNL     1     -38.428  26.533   1.600  0.00  0.00    +0.332 C 
BRANCH   8   9
ATOM      9  O   UNL     1     -39.664  26.664   2.147  0.00  0.00    -0.479 OA
ATOM     10  H   UNL     1     -39.753  26.834   3.064  0.00  0.00    +0.295 HD
ENDBRANCH   8   9
ENDBRANCH   6   8
BRANCH   6  11
ATOM     11  C   UNL     1     -39.521  24.370   0.897  0.00  0.00    +0.031 C 
BRANCH  11  12
ATOM     12  C   UNL     1     -39.426  23.170  -0.050  0.00  0.00    +0.002 C 
BRANCH  12  13
ATOM     13  C   UNL     1     -40.137  21.947   0.532  0.00  0.00    +0.000 C 
ATOM     14  C   UNL     1     -39.549  21.549   1.875  0.00  0.00    +0.000 C 
ENDBRANCH  12  13
ENDBRANCH  11  12
ENDBRANCH   6  11
ENDBRANCH   3   6
ENDBRANCH   1   4
BRANCH   1  16
ATOM     15  O   UNL     1     -35.149  21.036   4.765  0.00  0.00    -0.226 OA
ATOM     16  N   UNL     1     -35.972  22.323   3.018  0.00  0.00    -0.264 N 
ATOM     17  C   UNL     1     -35.456  21.174   3.585  0.00  0.00    +0.402 C 
ATOM     18  H   UNL     1     -36.181  22.311   2.056  0.00  0.00    +0.153 HD
BRANCH  17  19
ATOM     19  O   UNL     1     -35.335  20.200   2.634  0.00  0.00    -0.430 OA
BRANCH  19  20
ATOM     20  C   UNL     1     -34.908  20.642   1.340  0.00  0.00    +0.237 C 
BRANCH  20  21
ATOM     21  C   UNL     1     -33.596  19.993   1.009  0.00  0.00    +0.021 C 
ATOM     22  C   UNL     1     -33.298  18.727   1.513  0.00  0.00    -0.001 C 
ATOM     23  C   UNL     1     -32.676  20.654   0.195  0.00  0.00    -0.001 C 
ATOM     24  C   UNL     1     -32.079  18.123   1.205  0.00  0.00    -0.000 C 
ATOM     25  C   UNL     1     -31.458  20.050  -0.114  0.00  0.00    -0.000 C 
ATOM     26  C   UNL     1     -31.158  18.785   0.391  0.00  0.00    -0.000 C 
ENDBRANCH  20  21
ENDBRANCH  19  20
ENDBRANCH  17  19
ENDBRANCH   1  16
BRANCH   1  27
ATOM     27  CB  UNL     1     -35.025  24.494   3.715  0.00  0.00    +0.029 C 
BRANCH  27  28
ATOM     28  CG  UNL     1     -35.235  25.820   4.474  0.00  0.00    +0.002 C 
ATOM     29  CD1 UNL     1     -34.506  25.844   5.818  0.00  0.00    +0.000 C 
ATOM     30  CD2 UNL     1     -34.758  26.990   3.609  0.00  0.00    +0.000 C 
ENDBRANCH  27  28
ENDBRANCH   1  27
TORSDOF 13
ENDMDL
