MODEL 1
REMARK VINA RESULT:      -5.6      0.000      0.000
REMARK  Name = 60613
REMARK  9 active torsions:
REMARK  status: ('A' for Active; 'I' for Inactive)
REMARK    1  A    between atoms: C_1  and  O_2
REMARK    2  A    between atoms: C_1  and  C_10
REMARK    3  A    between atoms: C_1  and  C_21
REMARK    4  A    between atoms: O_2  and  C_3
REMARK    5  A    between atoms: C_3  and  P_4
REMARK    6  A    between atoms: P_4  and  O_6
REMARK    7  A    between atoms: P_4  and  O_8
REMARK    8  A    between atoms: C_10  and  N_12
REMARK    9  A    between atoms: C_21  and  O_22
REMARK                            x       y       z     vdW  Elec       q    Type
REMARK                         _______ _______ _______ _____ _____    ______ ____
ROOT
ATOM      1  C   UNL     1     -36.834  22.220   2.432  0.00  0.00    +0.166 C 
ENDROOT
BRANCH   1   2
ATOM      2  O   UNL     1     -37.876  22.911   3.121  0.00  0.00    -0.340 OA
BRANCH   2   3
ATOM      3  C   UNL     1     -38.595  23.764   2.246  0.00  0.00    +0.258 C 
BRANCH   3   4
ATOM      4  P   UNL     1     -38.758  25.293   3.145  0.00  0.00    +0.367 P 
ATOM      5  O   UNL     1     -38.479  26.528   2.342  0.00  0.00    -0.256 OA
BRANCH   4   6
ATOM      6  O   UNL     1     -37.809  25.080   4.435  0.00  0.00    -0.322 OA
ATOM      7  H   UNL     1     -36.897  25.327   4.211  0.00  0.00    +0.220 HD
ENDBRANCH   4   6
BRANCH   4   8
ATOM      8  O   UNL     1     -40.249  25.201   3.761  0.00  0.00    -0.322 OA
ATOM      9  H   UNL     1     -40.197  24.992   4.707  0.00  0.00    +0.220 HD
ENDBRANCH   4   8
ENDBRANCH   3   4
ENDBRANCH   2   3
ENDBRANCH   1   2
BRANCH   1  10
ATOM     10  C   UNL     1     -35.663  21.982   3.383  0.00  0.00    +0.141 C 
BRANCH  10  12
ATOM     11  O   UNL     1     -35.904  22.568   6.128  0.00  0.00    -0.193 OA
ATOM     12  N   UNL     1     -35.198  23.205   4.028  0.00  0.00    -0.202 N 
ATOM     13  N   UNL     1     -34.896  24.594   5.954  0.00  0.00    -0.306 NA
ATOM     14  N   UNL     1     -33.864  26.669   5.768  0.00  0.00    -0.332 N 
ATOM     15  C   UNL     1     -34.592  24.157   3.241  0.00  0.00    +0.081 C 
ATOM     16  C   UNL     1     -35.362  23.409   5.409  0.00  0.00    +0.274 C 
ATOM     17  C   UNL     1     -34.138  25.302   3.745  0.00  0.00    +0.065 C 
ATOM     18  C   UNL     1     -34.320  25.499   5.207  0.00  0.00    +0.193 C 
ATOM     19  H   UNL     1     -33.971  26.827   6.734  0.00  0.00    +0.145 HD
ATOM     20  H   UNL     1     -33.430  27.349   5.203  0.00  0.00    +0.145 HD
ENDBRANCH  10  12
ENDBRANCH   1  10
BRANCH   1  21
ATOM     21  C   UNL     1     -37.411  20.931   1.857  0.00  0.00    +0.168 C 
BRANCH  21  22
ATOM     22  O   UNL     1     -36.863  19.824   2.565  0.00  0.00    -0.379 OA
ATOM     23  H   UNL     1     -37.111  19.884   3.500  0.00  0.00    +0.211 HD
ENDBRANCH  21  22
ENDBRANCH   1  21
TORSDOF 9
ENDMDL
MODEL 2
REMARK VINA RESULT:      -5.5      2.262      3.813
REMARK  Name = 60613
REMARK  9 active torsions:
REMARK  status: ('A' for Active; 'I' for Inactive)
REMARK    1  A    between atoms: C_1  and  O_2
REMARK    2  A    between atoms: C_1  and  C_10
REMARK    3  A    between atoms: C_1  and  C_21
REMARK    4  A    between atoms: O_2  and  C_3
REMARK    5  A    between atoms: C_3  and  P_4
REMARK    6  A    between atoms: P_4  and  O_6
REMARK    7  A    between atoms: P_4  and  O_8
REMARK    8  A    between atoms: C_10  and  N_12
REMARK    9  A    between atoms: C_21  and  O_22
REMARK                            x       y       z     vdW  Elec       q    Type
REMARK                         _______ _______ _______ _____ _____    ______ ____
ROOT
ATOM      1  C   UNL     1     -35.194  22.957   4.849  0.00  0.00    +0.166 C 
ENDROOT
BRANCH   1   2
ATOM      2  O   UNL     1     -35.467  22.243   3.643  0.00  0.00    -0.340 OA
BRANCH   2   3
ATOM      3  C   UNL     1     -36.723  22.615   3.098  0.00  0.00    +0.258 C 
BRANCH   3   4
ATOM      4  P   UNL     1     -37.178  21.250   2.049  0.00  0.00    +0.367 P 
ATOM      5  O   UNL     1     -36.757  21.389   0.617  0.00  0.00    -0.256 OA
BRANCH   4   6
ATOM      6  O   UNL     1     -38.768  21.097   2.289  0.00  0.00    -0.322 OA
ATOM      7  H   UNL     1     -38.983  21.342   3.203  0.00  0.00    +0.220 HD
ENDBRANCH   4   6
BRANCH   4   8
ATOM      8  O   UNL     1     -36.561  19.970   2.821  0.00  0.00    -0.322 OA
ATOM      9  H   UNL     1     -35.914  20.270   3.479  0.00  0.00    +0.220 HD
ENDBRANCH   4   8
ENDBRANCH   3   4
ENDBRANCH   2   3
ENDBRANCH   1   2
BRANCH   1  10
ATOM     10  C   UNL     1     -35.999  24.255   4.868  0.00  0.00    +0.141 C 
BRANCH  10  12
ATOM     11  O   UNL     1     -36.172  26.225   2.860  0.00  0.00    -0.193 OA
ATOM     12  N   UNL     1     -35.159  25.444   4.780  0.00  0.00    -0.202 N 
ATOM     13  N   UNL     1     -34.488  27.482   3.717  0.00  0.00    -0.306 NA
ATOM     14  N   UNL     1     -32.760  28.764   4.599  0.00  0.00    -0.332 N 
ATOM     15  C   UNL     1     -34.200  25.629   5.749  0.00  0.00    +0.081 C 
ATOM     16  C   UNL     1     -35.320  26.375   3.738  0.00  0.00    +0.274 C 
ATOM     17  C   UNL     1     -33.390  26.686   5.747  0.00  0.00    +0.065 C 
ATOM     18  C   UNL     1     -33.577  27.658   4.639  0.00  0.00    +0.193 C 
ATOM     19  H   UNL     1     -32.860  29.426   3.877  0.00  0.00    +0.145 HD
ATOM     20  H   UNL     1     -32.075  28.895   5.295  0.00  0.00    +0.145 HD
ENDBRANCH  10  12
ENDBRANCH   1  10
BRANCH   1  21
ATOM     21  C   UNL     1     -35.503  22.042   6.029  0.00  0.00    +0.168 C 
BRANCH  21  22
ATOM     22  O   UNL     1     -35.283  20.692   5.635  0.00  0.00    -0.379 OA
ATOM     23  H   UNL     1     -34.609  20.293   6.208  0.00  0.00    +0.211 HD
ENDBRANCH  21  22
ENDBRANCH   1  21
TORSDOF 9
ENDMDL
MODEL 3
REMARK VINA RESULT:      -5.5      2.314      2.820
REMARK  Name = 60613
REMARK  9 active torsions:
REMARK  status: ('A' for Active; 'I' for Inactive)
REMARK    1  A    between atoms: C_1  and  O_2
REMARK    2  A    between atoms: C_1  and  C_10
REMARK    3  A    between atoms: C_1  and  C_21
REMARK    4  A    between atoms: O_2  and  C_3
REMARK    5  A    between atoms: C_3  and  P_4
REMARK    6  A    between atoms: P_4  and  O_6
REMARK    7  A    between atoms: P_4  and  O_8
REMARK    8  A    between atoms: C_10  and  N_12
REMARK    9  A    between atoms: C_21  and  O_22
REMARK                            x       y       z     vdW  Elec       q    Type
REMARK                         _______ _______ _______ _____ _____    ______ ____
ROOT
ATOM      1  C   UNL     1     -36.279  22.134   2.144  0.00  0.00    +0.166 C 
ENDROOT
BRANCH   1   2
ATOM      2  O   UNL     1     -37.166  21.863   1.058  0.00  0.00    -0.340 OA
BRANCH   2   3
ATOM      3  C   UNL     1     -38.388  22.568   1.204  0.00  0.00    +0.258 C 
BRANCH   3   4
ATOM      4  P   UNL     1     -39.645  21.374   0.796  0.00  0.00    +0.367 P 
ATOM      5  O   UNL     1     -40.603  21.808  -0.272  0.00  0.00    -0.256 OA
BRANCH   4   6
ATOM      6  O   UNL     1     -40.316  21.023   2.223  0.00  0.00    -0.322 OA
ATOM      7  H   UNL     1     -41.275  20.927   2.115  0.00  0.00    +0.220 HD
ENDBRANCH   4   6
BRANCH   4   8
ATOM      8  O   UNL     1     -38.792  20.045   0.449  0.00  0.00    -0.322 OA
ATOM      9  H   UNL     1     -39.298  19.485  -0.161  0.00  0.00    +0.220 HD
ENDBRANCH   4   8
ENDBRANCH   3   4
ENDBRANCH   2   3
ENDBRANCH   1   2
BRANCH   1  10
ATOM     10  C   UNL     1     -37.019  22.922   3.224  0.00  0.00    +0.141 C 
BRANCH  10  12
ATOM     11  O   UNL     1     -36.056  22.705   5.863  0.00  0.00    -0.193 OA
ATOM     12  N   UNL     1     -36.170  23.900   3.894  0.00  0.00    -0.202 N 
ATOM     13  N   UNL     1     -34.931  24.675   5.791  0.00  0.00    -0.306 NA
ATOM     14  N   UNL     1     -33.783  26.696   5.711  0.00  0.00    -0.332 N 
ATOM     15  C   UNL     1     -35.804  25.025   3.190  0.00  0.00    +0.081 C 
ATOM     16  C   UNL     1     -35.737  23.705   5.217  0.00  0.00    +0.274 C 
ATOM     17  C   UNL     1     -35.031  25.969   3.724  0.00  0.00    +0.065 C 
ATOM     18  C   UNL     1     -34.584  25.743   5.122  0.00  0.00    +0.193 C 
ATOM     19  H   UNL     1     -33.471  26.573   6.637  0.00  0.00    +0.145 HD
ATOM     20  H   UNL     1     -33.522  27.499   5.205  0.00  0.00    +0.145 HD
ENDBRANCH  10  12
ENDBRANCH   1  10
BRANCH   1  21
ATOM     21  C   UNL     1     -35.719  20.808   2.648  0.00  0.00    +0.168 C 
BRANCH  21  22
ATOM     22  O   UNL     1     -36.765  19.842   2.664  0.00  0.00    -0.379 OA
ATOM     23  H   UNL     1     -36.403  18.970   2.442  0.00  0.00    +0.211 HD
ENDBRANCH  21  22
ENDBRANCH   1  21
TORSDOF 9
ENDMDL
MODEL 4
REMARK VINA RESULT:      -5.4      2.686      4.758
REMARK  Name = 60613
REMARK  9 active torsions:
REMARK  status: ('A' for Active; 'I' for Inactive)
REMARK    1  A    between atoms: C_1  and  O_2
REMARK    2  A    between atoms: C_1  and  C_10
REMARK    3  A    between atoms: C_1  and  C_21
REMARK    4  A    between atoms: O_2  and  C_3
REMARK    5  A    between atoms: C_3  and  P_4
REMARK    6  A    between atoms: P_4  and  O_6
REMARK    7  A    between atoms: P_4  and  O_8
REMARK    8  A    between atoms: C_10  and  N_12
REMARK    9  A    between atoms: C_21  and  O_22
REMARK                            x       y       z     vdW  Elec       q    Type
REMARK                         _______ _______ _______ _____ _____    ______ ____
ROOT
ATOM      1  C   UNL     1     -35.739  22.986   5.267  0.00  0.00    +0.166 C 
ENDROOT
BRANCH   1   2
ATOM      2  O   UNL     1     -35.295  24.270   5.708  0.00  0.00    -0.340 OA
BRANCH   2   3
ATOM      3  C   UNL     1     -34.346  24.823   4.810  0.00  0.00    +0.258 C 
BRANCH   3   4
ATOM      4  P   UNL     1     -34.973  26.448   4.441  0.00  0.00    +0.367 P 
ATOM      5  O   UNL     1     -33.984  27.560   4.623  0.00  0.00    -0.256 OA
BRANCH   4   6
ATOM      6  O   UNL     1     -36.307  26.558   5.345  0.00  0.00    -0.322 OA
ATOM      7  H   UNL     1     -36.583  27.486   5.404  0.00  0.00    +0.220 HD
ENDBRANCH   4   6
BRANCH   4   8
ATOM      8  O   UNL     1     -35.552  26.288   2.941  0.00  0.00    -0.322 OA
ATOM      9  H   UNL     1     -34.824  26.086   2.332  0.00  0.00    +0.220 HD
ENDBRANCH   4   8
ENDBRANCH   3   4
ENDBRANCH   2   3
ENDBRANCH   1   2
BRANCH   1  10
ATOM     10  C   UNL     1     -35.550  22.872   3.756  0.00  0.00    +0.141 C 
BRANCH  10  12
ATOM     11  O   UNL     1     -37.859  24.487   3.761  0.00  0.00    -0.193 OA
ATOM     12  N   UNL     1     -36.791  22.571   3.050  0.00  0.00    -0.202 N 
ATOM     13  N   UNL     1     -39.040  23.092   2.416  0.00  0.00    -0.306 NA
ATOM     14  N   UNL     1     -40.245  21.657   1.039  0.00  0.00    -0.332 N 
ATOM     15  C   UNL     1     -36.850  21.406   2.320  0.00  0.00    +0.081 C 
ATOM     16  C   UNL     1     -37.894  23.441   3.112  0.00  0.00    +0.274 C 
ATOM     17  C   UNL     1     -37.942  21.053   1.645  0.00  0.00    +0.065 C 
ATOM     18  C   UNL     1     -39.096  21.985   1.722  0.00  0.00    +0.193 C 
ATOM     19  H   UNL     1     -41.026  22.256   1.071  0.00  0.00    +0.145 HD
ATOM     20  H   UNL     1     -40.285  20.823   0.517  0.00  0.00    +0.145 HD
ENDBRANCH  10  12
ENDBRANCH   1  10
BRANCH   1  21
ATOM     21  C   UNL     1     -34.979  21.921   6.049  0.00  0.00    +0.168 C 
BRANCH  21  22
ATOM     22  O   UNL     1     -35.224  20.651   5.455  0.00  0.00    -0.379 OA
ATOM     23  H   UNL     1     -35.923  20.735   4.788  0.00  0.00    +0.211 HD
ENDBRANCH  21  22
ENDBRANCH   1  21
TORSDOF 9
ENDMDL
MODEL 5
REMARK VINA RESULT:      -5.4      2.680      4.788
REMARK  Name = 60613
REMARK  9 active torsions:
REMARK  status: ('A' for Active; 'I' for Inactive)
REMARK    1  A    between atoms: C_1  and  O_2
REMARK    2  A    between atoms: C_1  and  C_10
REMARK    3  A    between atoms: C_1  and  C_21
REMARK    4  A    between atoms: O_2  and  C_3
REMARK    5  A    between atoms: C_3  and  P_4
REMARK    6  A    between atoms: P_4  and  O_6
REMARK    7  A    between atoms: P_4  and  O_8
REMARK    8  A    between atoms: C_10  and  N_12
REMARK    9  A    between atoms: C_21  and  O_22
REMARK                            x       y       z     vdW  Elec       q    Type
REMARK                         _______ _______ _______ _____ _____    ______ ____
ROOT
ATOM      1  C   UNL     1     -35.758  22.983   5.229  0.00  0.00    +0.166 C 
ENDROOT
BRANCH   1   2
ATOM      2  O   UNL     1     -35.305  24.278   5.627  0.00  0.00    -0.340 OA
BRANCH   2   3
ATOM      3  C   UNL     1     -34.413  24.827   4.672  0.00  0.00    +0.258 C 
BRANCH   3   4
ATOM      4  P   UNL     1     -35.057  26.454   4.341  0.00  0.00    +0.367 P 
ATOM      5  O   UNL     1     -34.057  27.564   4.465  0.00  0.00    -0.256 OA
BRANCH   4   6
ATOM      6  O   UNL     1     -36.336  26.565   5.322  0.00  0.00    -0.322 OA
ATOM      7  H   UNL     1     -37.066  26.037   4.963  0.00  0.00    +0.220 HD
ENDBRANCH   4   6
BRANCH   4   8
ATOM      8  O   UNL     1     -35.724  26.295   2.877  0.00  0.00    -0.322 OA
ATOM      9  H   UNL     1     -36.206  25.455   2.829  0.00  0.00    +0.220 HD
ENDBRANCH   4   8
ENDBRANCH   3   4
ENDBRANCH   2   3
ENDBRANCH   1   2
BRANCH   1  10
ATOM     10  C   UNL     1     -35.535  22.803   3.729  0.00  0.00    +0.141 C 
BRANCH  10  12
ATOM     11  O   UNL     1     -36.029  20.361   2.412  0.00  0.00    -0.193 OA
ATOM     12  N   UNL     1     -36.758  22.466   3.010  0.00  0.00    -0.202 N 
ATOM     13  N   UNL     1     -38.104  20.966   1.717  0.00  0.00    -0.306 NA
ATOM     14  N   UNL     1     -40.228  21.593   1.007  0.00  0.00    -0.332 N 
ATOM     15  C   UNL     1     -37.759  23.410   2.963  0.00  0.00    +0.081 C 
ATOM     16  C   UNL     1     -36.915  21.218   2.382  0.00  0.00    +0.274 C 
ATOM     17  C   UNL     1     -38.908  23.188   2.330  0.00  0.00    +0.065 C 
ATOM     18  C   UNL     1     -39.054  21.863   1.673  0.00  0.00    +0.193 C 
ATOM     19  H   UNL     1     -40.353  20.723   0.563  0.00  0.00    +0.145 HD
ATOM     20  H   UNL     1     -40.942  22.269   0.976  0.00  0.00    +0.145 HD
ENDBRANCH  10  12
ENDBRANCH   1  10
BRANCH   1  21
ATOM     21  C   UNL     1     -35.034  21.941   6.074  0.00  0.00    +0.168 C 
BRANCH  21  22
ATOM     22  O   UNL     1     -35.239  20.656   5.495  0.00  0.00    -0.379 OA
ATOM     23  H   UNL     1     -36.114  20.324   5.747  0.00  0.00    +0.211 HD
ENDBRANCH  21  22
ENDBRANCH   1  21
TORSDOF 9
ENDMDL
MODEL 6
REMARK VINA RESULT:      -5.3      2.433      3.938
REMARK  Name = 60613
REMARK  9 active torsions:
REMARK  status: ('A' for Active; 'I' for Inactive)
REMARK    1  A    between atoms: C_1  and  O_2
REMARK    2  A    between atoms: C_1  and  C_10
REMARK    3  A    between atoms: C_1  and  C_21
REMARK    4  A    between atoms: O_2  and  C_3
REMARK    5  A    between atoms: C_3  and  P_4
REMARK    6  A    between atoms: P_4  and  O_6
REMARK    7  A    between atoms: P_4  and  O_8
REMARK    8  A    between atoms: C_10  and  N_12
REMARK    9  A    between atoms: C_21  and  O_22
REMARK                            x       y       z     vdW  Elec       q    Type
REMARK                         _______ _______ _______ _____ _____    ______ ____
ROOT
ATOM      1  C   UNL     1     -35.664  23.615   4.781  0.00  0.00    +0.166 C 
ENDROOT
BRANCH   1   2
ATOM      2  O   UNL     1     -36.749  22.911   4.176  0.00  0.00    -0.340 OA
BRANCH   2   3
ATOM      3  C   UNL     1     -36.716  23.029   2.763  0.00  0.00    +0.258 C 
BRANCH   3   4
ATOM      4  P   UNL     1     -36.703  21.348   2.174  0.00  0.00    +0.367 P 
ATOM      5  O   UNL     1     -36.064  21.156   0.832  0.00  0.00    -0.256 OA
BRANCH   4   6
ATOM      6  O   UNL     1     -38.252  20.898   2.270  0.00  0.00    -0.322 OA
ATOM      7  H   UNL     1     -38.433  20.547   3.156  0.00  0.00    +0.220 HD
ENDBRANCH   4   6
BRANCH   4   8
ATOM      8  O   UNL     1     -36.005  20.538   3.386  0.00  0.00    -0.322 OA
ATOM      9  H   UNL     1     -35.041  20.559   3.277  0.00  0.00    +0.220 HD
ENDBRANCH   4   8
ENDBRANCH   3   4
ENDBRANCH   2   3
ENDBRANCH   1   2
BRANCH   1  10
ATOM     10  C   UNL     1     -36.113  25.026   5.151  0.00  0.00    +0.141 C 
BRANCH  10  12
ATOM     11  O   UNL     1     -33.813  26.151   6.328  0.00  0.00    -0.193 OA
ATOM     12  N   UNL     1     -35.280  26.063   4.551  0.00  0.00    -0.202 N 
ATOM     13  N   UNL     1     -33.402  27.547   4.586  0.00  0.00    -0.306 NA
ATOM     14  N   UNL     1     -32.987  28.975   2.798  0.00  0.00    -0.332 N 
ATOM     15  C   UNL     1     -35.638  26.537   3.310  0.00  0.00    +0.081 C 
ATOM     16  C   UNL     1     -34.147  26.564   5.216  0.00  0.00    +0.274 C 
ATOM     17  C   UNL     1     -34.935  27.482   2.688  0.00  0.00    +0.065 C 
ATOM     18  C   UNL     1     -33.741  27.998   3.407  0.00  0.00    +0.193 C 
ATOM     19  H   UNL     1     -32.191  29.336   3.251  0.00  0.00    +0.145 HD
ATOM     20  H   UNL     1     -33.245  29.313   1.910  0.00  0.00    +0.145 HD
ENDBRANCH  10  12
ENDBRANCH   1  10
BRANCH   1  21
ATOM     21  C   UNL     1     -35.176  22.806   5.979  0.00  0.00    +0.168 C 
BRANCH  21  22
ATOM     22  O   UNL     1     -36.085  21.736   6.213  0.00  0.00    -0.379 OA
ATOM     23  H   UNL     1     -36.905  22.085   6.594  0.00  0.00    +0.211 HD
ENDBRANCH  21  22
ENDBRANCH   1  21
TORSDOF 9
ENDMDL
MODEL 7
REMARK VINA RESULT:      -5.3      2.943      5.100
REMARK  Name = 60613
REMARK  9 active torsions:
REMARK  status: ('A' for Active; 'I' for Inactive)
REMARK    1  A    between atoms: C_1  and  O_2
REMARK    2  A    between atoms: C_1  and  C_10
REMARK    3  A    between atoms: C_1  and  C_21
REMARK    4  A    between atoms: O_2  and  C_3
REMARK    5  A    between atoms: C_3  and  P_4
REMARK    6  A    between atoms: P_4  and  O_6
REMARK    7  A    between atoms: P_4  and  O_8
REMARK    8  A    between atoms: C_10  and  N_12
REMARK    9  A    between atoms: C_21  and  O_22
REMARK                            x       y       z     vdW  Elec       q    Type
REMARK                         _______ _______ _______ _____ _____    ______ ____
ROOT
ATOM      1  C   UNL     1     -36.026  22.665   4.542  0.00  0.00    +0.166 C 
ENDROOT
BRANCH   1   2
ATOM      2  O   UNL     1     -36.228  24.044   4.854  0.00  0.00    -0.340 OA
BRANCH   2   3
ATOM      3  C   UNL     1     -35.431  24.880   4.030  0.00  0.00    +0.258 C 
BRANCH   3   4
ATOM      4  P   UNL     1     -35.266  26.393   4.955  0.00  0.00    +0.367 P 
ATOM      5  O   UNL     1     -34.102  26.430   5.898  0.00  0.00    -0.256 OA
BRANCH   4   6
ATOM      6  O   UNL     1     -36.716  26.580   5.642  0.00  0.00    -0.322 OA
ATOM      7  H   UNL     1     -36.860  27.518   5.845  0.00  0.00    +0.220 HD
ENDBRANCH   4   6
BRANCH   4   8
ATOM      8  O   UNL     1     -35.250  27.528   3.804  0.00  0.00    -0.322 OA
ATOM      9  H   UNL     1     -36.145  27.640   3.446  0.00  0.00    +0.220 HD
ENDBRANCH   4   8
ENDBRANCH   3   4
ENDBRANCH   2   3
ENDBRANCH   1   2
BRANCH   1  10
ATOM     10  C   UNL     1     -35.399  22.541   3.155  0.00  0.00    +0.141 C 
BRANCH  10  12
ATOM     11  O   UNL     1     -34.714  19.886   2.502  0.00  0.00    -0.193 OA
ATOM     12  N   UNL     1     -36.158  21.669   2.265  0.00  0.00    -0.202 N 
ATOM     13  N   UNL     1     -36.507  19.583   1.145  0.00  0.00    -0.306 NA
ATOM     14  N   UNL     1     -38.346  19.279  -0.247  0.00  0.00    -0.332 N 
ATOM     15  C   UNL     1     -37.302  22.174   1.692  0.00  0.00    +0.081 C 
ATOM     16  C   UNL     1     -35.737  20.354   1.999  0.00  0.00    +0.274 C 
ATOM     17  C   UNL     1     -38.056  21.449   0.868  0.00  0.00    +0.065 C 
ATOM     18  C   UNL     1     -37.595  20.062   0.599  0.00  0.00    +0.193 C 
ATOM     19  H   UNL     1     -38.065  18.356  -0.443  0.00  0.00    +0.145 HD
ATOM     20  H   UNL     1     -39.164  19.642  -0.656  0.00  0.00    +0.145 HD
ENDBRANCH  10  12
ENDBRANCH   1  10
BRANCH   1  21
ATOM     21  C   UNL     1     -35.173  22.044   5.644  0.00  0.00    +0.168 C 
BRANCH  21  22
ATOM     22  O   UNL     1     -35.169  20.630   5.482  0.00  0.00    -0.379 OA
ATOM     23  H   UNL     1     -36.072  20.322   5.309  0.00  0.00    +0.211 HD
ENDBRANCH  21  22
ENDBRANCH   1  21
TORSDOF 9
ENDMDL
MODEL 8
REMARK VINA RESULT:      -5.2      2.318      4.233
REMARK  Name = 60613
REMARK  9 active torsions:
REMARK  status: ('A' for Active; 'I' for Inactive)
REMARK    1  A    between atoms: C_1  and  O_2
REMARK    2  A    between atoms: C_1  and  C_10
REMARK    3  A    between atoms: C_1  and  C_21
REMARK    4  A    between atoms: O_2  and  C_3
REMARK    5  A    between atoms: C_3  and  P_4
REMARK    6  A    between atoms: P_4  and  O_6
REMARK    7  A    between atoms: P_4  and  O_8
REMARK    8  A    between atoms: C_10  and  N_12
REMARK    9  A    between atoms: C_21  and  O_22
REMARK                            x       y       z     vdW  Elec       q    Type
REMARK                         _______ _______ _______ _____ _____    ______ ____
ROOT
ATOM      1  C   UNL     1     -36.673  24.518   3.995  0.00  0.00    +0.166 C 
ENDROOT
BRANCH   1   2
ATOM      2  O   UNL     1     -36.773  23.099   4.120  0.00  0.00    -0.340 OA
BRANCH   2   3
ATOM      3  C   UNL     1     -37.007  22.487   2.862  0.00  0.00    +0.258 C 
BRANCH   3   4
ATOM      4  P   UNL     1     -35.866  21.121   2.810  0.00  0.00    +0.367 P 
ATOM      5  O   UNL     1     -34.759  21.264   1.809  0.00  0.00    -0.256 OA
BRANCH   4   6
ATOM      6  O   UNL     1     -36.820  19.833   2.603  0.00  0.00    -0.322 OA
ATOM      7  H   UNL     1     -37.729  20.128   2.434  0.00  0.00    +0.220 HD
ENDBRANCH   4   6
BRANCH   4   8
ATOM      8  O   UNL     1     -35.384  20.984   4.347  0.00  0.00    -0.322 OA
ATOM      9  H   UNL     1     -34.754  21.693   4.553  0.00  0.00    +0.220 HD
ENDBRANCH   4   8
ENDBRANCH   3   4
ENDBRANCH   2   3
ENDBRANCH   1   2
BRANCH   1  10
ATOM     10  C   UNL     1     -35.357  24.880   3.309  0.00  0.00    +0.141 C 
BRANCH  10  12
ATOM     11  O   UNL     1     -33.980  27.123   2.305  0.00  0.00    -0.193 OA
ATOM     12  N   UNL     1     -34.535  25.788   4.101  0.00  0.00    -0.202 N 
ATOM     13  N   UNL     1     -33.121  27.706   4.324  0.00  0.00    -0.306 NA
ATOM     14  N   UNL     1     -32.242  28.296   6.394  0.00  0.00    -0.332 N 
ATOM     15  C   UNL     1     -34.415  25.537   5.449  0.00  0.00    +0.081 C 
ATOM     16  C   UNL     1     -33.884  26.885   3.510  0.00  0.00    +0.274 C 
ATOM     17  C   UNL     1     -33.686  26.314   6.247  0.00  0.00    +0.065 C 
ATOM     18  C   UNL     1     -33.006  27.468   5.604  0.00  0.00    +0.193 C 
ATOM     19  H   UNL     1     -31.781  29.069   5.996  0.00  0.00    +0.145 HD
ATOM     20  H   UNL     1     -32.158  28.116   7.358  0.00  0.00    +0.145 HD
ENDBRANCH  10  12
ENDBRANCH   1  10
BRANCH   1  21
ATOM     21  C   UNL     1     -37.901  25.020   3.242  0.00  0.00    +0.168 C 
BRANCH  21  22
ATOM     22  O   UNL     1     -39.020  25.002   4.122  0.00  0.00    -0.379 OA
ATOM     23  H   UNL     1     -39.598  24.258   3.894  0.00  0.00    +0.211 HD
ENDBRANCH  21  22
ENDBRANCH   1  21
TORSDOF 9
ENDMDL
MODEL 9
REMARK VINA RESULT:      -5.2      2.064      3.103
REMARK  Name = 60613
REMARK  9 active torsions:
REMARK  status: ('A' for Active; 'I' for Inactive)
REMARK    1  A    between atoms: C_1  and  O_2
REMARK    2  A    between atoms: C_1  and  C_10
REMARK    3  A    between atoms: C_1  and  C_21
REMARK    4  A    between atoms: O_2  and  C_3
REMARK    5  A    between atoms: C_3  and  P_4
REMARK    6  A    between atoms: P_4  and  O_6
REMARK    7  A    between atoms: P_4  and  O_8
REMARK    8  A    between atoms: C_10  and  N_12
REMARK    9  A    between atoms: C_21  and  O_22
REMARK                            x       y       z     vdW  Elec       q    Type
REMARK                         _______ _______ _______ _____ _____    ______ ____
ROOT
ATOM      1  C   UNL     1     -35.269  22.940   4.996  0.00  0.00    +0.166 C 
ENDROOT
BRANCH   1   2
ATOM      2  O   UNL     1     -36.627  23.228   4.662  0.00  0.00    -0.340 OA
BRANCH   2   3
ATOM      3  C   UNL     1     -36.913  22.874   3.318  0.00  0.00    +0.258 C 
BRANCH   3   4
ATOM      4  P   UNL     1     -38.151  24.045   2.802  0.00  0.00    +0.367 P 
ATOM      5  O   UNL     1     -39.388  23.434   2.214  0.00  0.00    -0.256 OA
BRANCH   4   6
ATOM      6  O   UNL     1     -37.346  25.046   1.823  0.00  0.00    -0.322 OA
ATOM      7  H   UNL     1     -37.807  25.107   0.971  0.00  0.00    +0.220 HD
ENDBRANCH   4   6
BRANCH   4   8
ATOM      8  O   UNL     1     -38.393  24.936   4.128  0.00  0.00    -0.322 OA
ATOM      9  H   UNL     1     -37.744  24.691   4.806  0.00  0.00    +0.220 HD
ENDBRANCH   4   8
ENDBRANCH   3   4
ENDBRANCH   2   3
ENDBRANCH   1   2
BRANCH   1  10
ATOM     10  C   UNL     1     -34.540  24.238   5.337  0.00  0.00    +0.141 C 
BRANCH  10  12
ATOM     11  O   UNL     1     -36.052  26.616   5.277  0.00  0.00    -0.193 OA
ATOM     12  N   UNL     1     -34.554  25.201   4.241  0.00  0.00    -0.202 N 
ATOM     13  N   UNL     1     -35.305  27.234   3.225  0.00  0.00    -0.306 NA
ATOM     14  N   UNL     1     -34.538  27.861   1.121  0.00  0.00    -0.332 N 
ATOM     15  C   UNL     1     -33.770  24.937   3.142  0.00  0.00    +0.081 C 
ATOM     16  C   UNL     1     -35.342  26.364   4.302  0.00  0.00    +0.274 C 
ATOM     17  C   UNL     1     -33.721  25.760   2.097  0.00  0.00    +0.065 C 
ATOM     18  C   UNL     1     -34.560  26.983   2.181  0.00  0.00    +0.193 C 
ATOM     19  H   UNL     1     -35.084  28.680   1.149  0.00  0.00    +0.145 HD
ATOM     20  H   UNL     1     -33.976  27.670   0.336  0.00  0.00    +0.145 HD
ENDBRANCH  10  12
ENDBRANCH   1  10
BRANCH   1  21
ATOM     21  C   UNL     1     -35.259  21.929   6.137  0.00  0.00    +0.168 C 
BRANCH  21  22
ATOM     22  O   UNL     1     -35.269  20.615   5.588  0.00  0.00    -0.379 OA
ATOM     23  H   UNL     1     -35.200  20.668   4.622  0.00  0.00    +0.211 HD
ENDBRANCH  21  22
ENDBRANCH   1  21
TORSDOF 9
ENDMDL
