MODEL 1
REMARK VINA RESULT:      -6.2      0.000      0.000
REMARK  Name = 584483
REMARK  5 active torsions:
REMARK  status: ('A' for Active; 'I' for Inactive)
REMARK    1  A    between atoms: N_2  and  CA_18
REMARK    2  A    between atoms: CA_18  and  C_20
REMARK    3  A    between atoms: CA_18  and  CB_23
REMARK    4  A    between atoms: C_20  and  O_21
REMARK    5  A    between atoms: CB_23  and  OG1_25
REMARK                            x       y       z     vdW  Elec       q    Type
REMARK                         _______ _______ _______ _____ _____    ______ ____
ROOT
ATOM      1  O   UNL     1     -33.346  25.377   4.336  0.00  0.00    -0.252 OA
ATOM      2  N   UNL     1     -33.734  27.642   4.590  0.00  0.00    -0.279 N 
ATOM      3  N   UNL     1     -35.492  26.277   4.018  0.00  0.00    -0.256 N 
ATOM      4  N   UNL     1     -38.496  26.299   3.387  0.00  0.00    -0.270 NA
ATOM      5  N   UNL     1     -35.696  23.928   3.628  0.00  0.00    -0.232 NA
ATOM      6  N   UNL     1     -39.669  24.475   2.870  0.00  0.00    -0.307 N 
ATOM      7  N   UNL     1     -37.825  22.899   3.027  0.00  0.00    -0.232 NA
ATOM      8  C   ACE A   0     -34.126  26.326   4.313  0.00  0.00    +0.306 C 
ATOM      9  C   UNL     1     -37.606  25.264   3.422  0.00  0.00    +0.164 C 
ATOM     10  C   UNL     1     -36.267  25.141   3.686  0.00  0.00    +0.131 C 
ATOM     11  C   UNL     1     -38.358  24.142   3.098  0.00  0.00    +0.125 C 
ATOM     12  C   UNL     1     -39.718  25.777   3.052  0.00  0.00    +0.163 C 
ATOM     13  C   UNL     1     -36.503  22.890   3.305  0.00  0.00    +0.253 C 
ATOM     14  H   UNL     1     -34.416  28.351   4.552  0.00  0.00    +0.152 HD
ATOM     15  H   UNL     1     -35.972  27.135   4.044  0.00  0.00    +0.158 HD
ATOM     16  H   UNL     1     -38.297  27.246   3.568  0.00  0.00    +0.126 HD
ATOM     17  H   UNL     1     -40.409  23.873   2.625  0.00  0.00    +0.149 HD
ENDROOT
BRANCH   2  18
ATOM     18  CA  UNL     1     -32.382  28.007   4.930  0.00  0.00    +0.199 C 
BRANCH  18  20
ATOM     19  OXT UNL     1     -33.043  27.383   7.192  0.00  0.00    -0.248 OA
ATOM     20  C   UNL     1     -32.158  27.603   6.375  0.00  0.00    +0.334 C 
BRANCH  20  21
ATOM     21  O   UNL     1     -30.836  27.553   6.689  0.00  0.00    -0.479 OA
ATOM     22  H   UNL     1     -30.571  27.373   7.569  0.00  0.00    +0.295 HD
ENDBRANCH  20  21
ENDBRANCH  18  20
BRANCH  18  23
ATOM     23  CB  UNL     1     -32.096  29.499   4.722  0.00  0.00    +0.139 C 
ATOM     24  CG2 UNL     1     -32.979  30.125   3.649  0.00  0.00    +0.034 C 
BRANCH  23  25
ATOM     25  OG1 UNL     1     -32.274  30.216   5.942  0.00  0.00    -0.382 OA
ATOM     26  HG1 UNL     1     -33.176  30.077   6.270  0.00  0.00    +0.210 HD
ENDBRANCH  23  25
ENDBRANCH  18  23
ENDBRANCH   2  18
TORSDOF 5
ENDMDL
MODEL 2
REMARK VINA RESULT:      -6.0      3.238      7.150
REMARK  Name = 584483
REMARK  5 active torsions:
REMARK  status: ('A' for Active; 'I' for Inactive)
REMARK    1  A    between atoms: N_2  and  CA_18
REMARK    2  A    between atoms: CA_18  and  C_20
REMARK    3  A    between atoms: CA_18  and  CB_23
REMARK    4  A    between atoms: C_20  and  O_21
REMARK    5  A    between atoms: CB_23  and  OG1_25
REMARK                            x       y       z     vdW  Elec       q    Type
REMARK                         _______ _______ _______ _____ _____    ______ ____
ROOT
ATOM      1  O   UNL     1     -34.054  25.280   2.605  0.00  0.00    -0.252 OA
ATOM      2  N   UNL     1     -34.569  24.344   4.655  0.00  0.00    -0.279 N 
ATOM      3  N   UNL     1     -33.451  26.351   4.606  0.00  0.00    -0.256 N 
ATOM      4  N   UNL     1     -32.236  28.515   6.414  0.00  0.00    -0.270 NA
ATOM      5  N   UNL     1     -32.672  27.762   2.842  0.00  0.00    -0.232 NA
ATOM      6  N   UNL     1     -31.220  30.345   5.648  0.00  0.00    -0.307 N 
ATOM      7  N   UNL     1     -31.503  29.856   3.283  0.00  0.00    -0.232 NA
ATOM      8  C   ACE A   0     -34.020  25.335   3.832  0.00  0.00    +0.306 C 
ATOM      9  C   UNL     1     -32.291  28.427   5.052  0.00  0.00    +0.164 C 
ATOM     10  C   UNL     1     -32.799  27.523   4.156  0.00  0.00    +0.131 C 
ATOM     11  C   UNL     1     -31.654  29.575   4.600  0.00  0.00    +0.125 C 
ATOM     12  C   UNL     1     -31.585  29.680   6.723  0.00  0.00    +0.163 C 
ATOM     13  C   UNL     1     -32.037  28.904   2.489  0.00  0.00    +0.253 C 
ATOM     14  H   UNL     1     -34.503  24.457   5.631  0.00  0.00    +0.152 HD
ATOM     15  H   UNL     1     -33.511  26.237   5.582  0.00  0.00    +0.158 HD
ATOM     16  H   UNL     1     -32.597  27.862   7.056  0.00  0.00    +0.126 HD
ATOM     17  H   UNL     1     -30.741  31.204   5.605  0.00  0.00    +0.149 HD
ENDROOT
BRANCH   2  18
ATOM     18  CA  UNL     1     -35.227  23.168   4.144  0.00  0.00    +0.199 C 
BRANCH  18  20
ATOM     19  OXT UNL     1     -37.246  24.484   4.512  0.00  0.00    -0.248 OA
ATOM     20  C   UNL     1     -36.706  23.491   4.043  0.00  0.00    +0.334 C 
BRANCH  20  21
ATOM     21  O   UNL     1     -37.396  22.512   3.399  0.00  0.00    -0.479 OA
ATOM     22  H   UNL     1     -36.947  21.923   2.825  0.00  0.00    +0.295 HD
ENDBRANCH  20  21
ENDBRANCH  18  20
BRANCH  18  23
ATOM     23  CB  UNL     1     -34.989  21.926   5.009  0.00  0.00    +0.139 C 
ATOM     24  CG2 UNL     1     -35.535  22.079   6.424  0.00  0.00    +0.034 C 
BRANCH  23  25
ATOM     25  OG1 UNL     1     -35.584  20.777   4.408  0.00  0.00    -0.382 OA
ATOM     26  HG1 UNL     1     -35.314  20.722   3.479  0.00  0.00    +0.210 HD
ENDBRANCH  23  25
ENDBRANCH  18  23
ENDBRANCH   2  18
TORSDOF 5
ENDMDL
MODEL 3
REMARK VINA RESULT:      -6.0      2.932      5.011
REMARK  Name = 584483
REMARK  5 active torsions:
REMARK  status: ('A' for Active; 'I' for Inactive)
REMARK    1  A    between atoms: N_2  and  CA_18
REMARK    2  A    between atoms: CA_18  and  C_20
REMARK    3  A    between atoms: CA_18  and  CB_23
REMARK    4  A    between atoms: C_20  and  O_21
REMARK    5  A    between atoms: CB_23  and  OG1_25
REMARK                            x       y       z     vdW  Elec       q    Type
REMARK                         _______ _______ _______ _____ _____    ______ ____
ROOT
ATOM      1  O   UNL     1     -37.707  23.431   2.453  0.00  0.00    -0.252 OA
ATOM      2  N   UNL     1     -36.785  24.513   4.276  0.00  0.00    -0.279 N 
ATOM      3  N   UNL     1     -38.873  25.146   3.553  0.00  0.00    -0.256 N 
ATOM      4  N   UNL     1     -41.173  27.095   4.137  0.00  0.00    -0.270 NA
ATOM      5  N   UNL     1     -40.296  24.414   1.778  0.00  0.00    -0.232 NA
ATOM      6  N   UNL     1     -43.058  27.180   2.950  0.00  0.00    -0.307 N 
ATOM      7  N   UNL     1     -42.488  25.409   1.386  0.00  0.00    -0.232 NA
ATOM      8  C   ACE A   0     -37.795  24.283   3.334  0.00  0.00    +0.306 C 
ATOM      9  C   UNL     1     -41.046  26.139   3.170  0.00  0.00    +0.164 C 
ATOM     10  C   UNL     1     -40.081  25.229   2.822  0.00  0.00    +0.131 C 
ATOM     11  C   UNL     1     -42.229  26.211   2.446  0.00  0.00    +0.125 C 
ATOM     12  C   UNL     1     -42.394  27.692   3.964  0.00  0.00    +0.163 C 
ATOM     13  C   UNL     1     -41.475  24.553   1.129  0.00  0.00    +0.253 C 
ATOM     14  H   UNL     1     -36.928  25.214   4.953  0.00  0.00    +0.152 HD
ATOM     15  H   UNL     1     -38.780  25.771   4.308  0.00  0.00    +0.158 HD
ATOM     16  H   UNL     1     -40.510  27.315   4.830  0.00  0.00    +0.126 HD
ATOM     17  H   UNL     1     -43.951  27.437   2.625  0.00  0.00    +0.149 HD
ENDROOT
BRANCH   2  18
ATOM     18  CA  UNL     1     -35.548  23.775   4.303  0.00  0.00    +0.199 C 
BRANCH  18  20
ATOM     19  OXT UNL     1     -35.806  22.497   6.364  0.00  0.00    -0.248 OA
ATOM     20  C   UNL     1     -35.787  22.532   5.140  0.00  0.00    +0.334 C 
BRANCH  20  21
ATOM     21  O   UNL     1     -35.937  21.422   4.369  0.00  0.00    -0.479 OA
ATOM     22  H   UNL     1     -35.509  20.624   4.609  0.00  0.00    +0.295 HD
ENDBRANCH  20  21
ENDBRANCH  18  20
BRANCH  18  23
ATOM     23  CB  UNL     1     -34.375  24.594   4.852  0.00  0.00    +0.139 C 
ATOM     24  CG2 UNL     1     -33.688  25.432   3.781  0.00  0.00    +0.034 C 
BRANCH  23  25
ATOM     25  OG1 UNL     1     -34.816  25.458   5.899  0.00  0.00    -0.382 OA
ATOM     26  HG1 UNL     1     -35.005  26.336   5.536  0.00  0.00    +0.210 HD
ENDBRANCH  23  25
ENDBRANCH  18  23
ENDBRANCH   2  18
TORSDOF 5
ENDMDL
MODEL 4
REMARK VINA RESULT:      -6.0      5.914      9.403
REMARK  Name = 584483
REMARK  5 active torsions:
REMARK  status: ('A' for Active; 'I' for Inactive)
REMARK    1  A    between atoms: N_2  and  CA_18
REMARK    2  A    between atoms: CA_18  and  C_20
REMARK    3  A    between atoms: CA_18  and  CB_23
REMARK    4  A    between atoms: C_20  and  O_21
REMARK    5  A    between atoms: CB_23  and  OG1_25
REMARK                            x       y       z     vdW  Elec       q    Type
REMARK                         _______ _______ _______ _____ _____    ______ ____
ROOT
ATOM      1  O   UNL     1     -35.940  20.528  -0.044  0.00  0.00    -0.252 OA
ATOM      2  N   UNL     1     -35.313  18.473   0.809  0.00  0.00    -0.279 N 
ATOM      3  N   UNL     1     -35.527  20.249   2.251  0.00  0.00    -0.256 N 
ATOM      4  N   UNL     1     -35.272  21.041   5.207  0.00  0.00    -0.270 NA
ATOM      5  N   UNL     1     -36.130  22.544   1.962  0.00  0.00    -0.232 NA
ATOM      6  N   UNL     1     -35.657  23.097   5.978  0.00  0.00    -0.307 N 
ATOM      7  N   UNL     1     -36.225  24.100   3.838  0.00  0.00    -0.232 NA
ATOM      8  C   ACE A   0     -35.626  19.833   0.920  0.00  0.00    +0.306 C 
ATOM      9  C   UNL     1     -35.619  21.787   4.116  0.00  0.00    +0.164 C 
ATOM     10  C   UNL     1     -35.762  21.542   2.775  0.00  0.00    +0.131 C 
ATOM     11  C   UNL     1     -35.853  23.059   4.621  0.00  0.00    +0.125 C 
ATOM     12  C   UNL     1     -35.309  21.869   6.298  0.00  0.00    +0.163 C 
ATOM     13  C   UNL     1     -36.336  23.751   2.538  0.00  0.00    +0.253 C 
ATOM     14  H   UNL     1     -35.070  17.980   1.627  0.00  0.00    +0.152 HD
ATOM     15  H   UNL     1     -35.262  19.560   2.902  0.00  0.00    +0.158 HD
ATOM     16  H   UNL     1     -35.039  20.085   5.208  0.00  0.00    +0.126 HD
ATOM     17  H   UNL     1     -35.754  23.871   6.579  0.00  0.00    +0.149 HD
ENDROOT
BRANCH   2  18
ATOM     18  CA  UNL     1     -35.328  17.758  -0.442  0.00  0.00    +0.199 C 
BRANCH  18  20
ATOM     19  OXT UNL     1     -37.311  17.504  -1.838  0.00  0.00    -0.248 OA
ATOM     20  C   UNL     1     -36.775  17.410  -0.741  0.00  0.00    +0.334 C 
BRANCH  20  21
ATOM     21  O   UNL     1     -37.443  17.015   0.375  0.00  0.00    -0.479 OA
ATOM     22  H   UNL     1     -37.423  17.549   1.145  0.00  0.00    +0.295 HD
ENDBRANCH  20  21
ENDBRANCH  18  20
BRANCH  18  23
ATOM     23  CB  UNL     1     -34.449  16.503  -0.424  0.00  0.00    +0.139 C 
ATOM     24  CG2 UNL     1     -33.035  16.780   0.071  0.00  0.00    +0.034 C 
BRANCH  23  25
ATOM     25  OG1 UNL     1     -35.036  15.494   0.397  0.00  0.00    -0.382 OA
ATOM     26  HG1 UNL     1     -35.974  15.399   0.172  0.00  0.00    +0.210 HD
ENDBRANCH  23  25
ENDBRANCH  18  23
ENDBRANCH   2  18
TORSDOF 5
ENDMDL
MODEL 5
REMARK VINA RESULT:      -5.8      3.098      5.294
REMARK  Name = 584483
REMARK  5 active torsions:
REMARK  status: ('A' for Active; 'I' for Inactive)
REMARK    1  A    between atoms: N_2  and  CA_18
REMARK    2  A    between atoms: CA_18  and  C_20
REMARK    3  A    between atoms: CA_18  and  CB_23
REMARK    4  A    between atoms: C_20  and  O_21
REMARK    5  A    between atoms: CB_23  and  OG1_25
REMARK                            x       y       z     vdW  Elec       q    Type
REMARK                         _______ _______ _______ _____ _____    ______ ____
ROOT
ATOM      1  O   UNL     1     -38.383  24.332   2.346  0.00  0.00    -0.252 OA
ATOM      2  N   UNL     1     -37.330  25.427   4.089  0.00  0.00    -0.279 N 
ATOM      3  N   UNL     1     -39.495  25.998   3.571  0.00  0.00    -0.256 N 
ATOM      4  N   UNL     1     -41.791  27.865   4.390  0.00  0.00    -0.270 NA
ATOM      5  N   UNL     1     -41.053  25.236   1.927  0.00  0.00    -0.232 NA
ATOM      6  N   UNL     1     -43.781  27.899   3.384  0.00  0.00    -0.307 N 
ATOM      7  N   UNL     1     -43.303  26.163   1.752  0.00  0.00    -0.232 NA
ATOM      8  C   ACE A   0     -38.416  25.172   3.242  0.00  0.00    +0.306 C 
ATOM      9  C   UNL     1     -41.725  26.922   3.404  0.00  0.00    +0.164 C 
ATOM     10  C   UNL     1     -40.768  26.047   2.957  0.00  0.00    +0.131 C 
ATOM     11  C   UNL     1     -42.971  26.963   2.794  0.00  0.00    +0.125 C 
ATOM     12  C   UNL     1     -43.042  28.423   4.339  0.00  0.00    +0.163 C 
ATOM     13  C   UNL     1     -42.292  25.342   1.392  0.00  0.00    +0.253 C 
ATOM     14  H   UNL     1     -37.431  26.116   4.785  0.00  0.00    +0.152 HD
ATOM     15  H   UNL     1     -39.352  26.619   4.321  0.00  0.00    +0.158 HD
ATOM     16  H   UNL     1     -41.074  28.100   5.021  0.00  0.00    +0.126 HD
ATOM     17  H   UNL     1     -44.708  28.129   3.147  0.00  0.00    +0.149 HD
ENDROOT
BRANCH   2  18
ATOM     18  CA  UNL     1     -36.073  24.729   3.992  0.00  0.00    +0.199 C 
BRANCH  18  20
ATOM     19  OXT UNL     1     -35.870  23.282   5.944  0.00  0.00    -0.248 OA
ATOM     20  C   UNL     1     -36.215  23.440   4.780  0.00  0.00    +0.334 C 
BRANCH  20  21
ATOM     21  O   UNL     1     -36.737  22.438   4.024  0.00  0.00    -0.479 OA
ATOM     22  H   UNL     1     -37.477  22.604   3.474  0.00  0.00    +0.295 HD
ENDBRANCH  20  21
ENDBRANCH  18  20
BRANCH  18  23
ATOM     23  CB  UNL     1     -34.888  25.559   4.499  0.00  0.00    +0.139 C 
ATOM     24  CG2 UNL     1     -33.696  25.525   3.550  0.00  0.00    +0.034 C 
BRANCH  23  25
ATOM     25  OG1 UNL     1     -35.279  26.917   4.699  0.00  0.00    -0.382 OA
ATOM     26  HG1 UNL     1     -36.227  27.010   4.520  0.00  0.00    +0.210 HD
ENDBRANCH  23  25
ENDBRANCH  18  23
ENDBRANCH   2  18
TORSDOF 5
ENDMDL
MODEL 6
REMARK VINA RESULT:      -5.8      4.558      7.371
REMARK  Name = 584483
REMARK  5 active torsions:
REMARK  status: ('A' for Active; 'I' for Inactive)
REMARK    1  A    between atoms: N_2  and  CA_18
REMARK    2  A    between atoms: CA_18  and  C_20
REMARK    3  A    between atoms: CA_18  and  CB_23
REMARK    4  A    between atoms: C_20  and  O_21
REMARK    5  A    between atoms: CB_23  and  OG1_25
REMARK                            x       y       z     vdW  Elec       q    Type
REMARK                         _______ _______ _______ _____ _____    ______ ____
ROOT
ATOM      1  O   UNL     1     -40.125  24.534   2.667  0.00  0.00    -0.252 OA
ATOM      2  N   UNL     1     -40.540  26.708   3.334  0.00  0.00    -0.279 N 
ATOM      3  N   UNL     1     -38.498  25.773   3.821  0.00  0.00    -0.256 N 
ATOM      4  N   UNL     1     -35.802  26.358   5.169  0.00  0.00    -0.270 NA
ATOM      5  N   UNL     1     -37.522  23.633   3.398  0.00  0.00    -0.232 NA
ATOM      6  N   UNL     1     -34.132  24.887   5.294  0.00  0.00    -0.307 N 
ATOM      7  N   UNL     1     -35.260  23.079   4.124  0.00  0.00    -0.232 NA
ATOM      8  C   ACE A   0     -39.744  25.562   3.222  0.00  0.00    +0.306 C 
ATOM      9  C   UNL     1     -36.254  25.231   4.545  0.00  0.00    +0.164 C 
ATOM     10  C   UNL     1     -37.417  24.865   3.919  0.00  0.00    +0.131 C 
ATOM     11  C   UNL     1     -35.199  24.332   4.635  0.00  0.00    +0.125 C 
ATOM     12  C   UNL     1     -34.527  26.104   5.601  0.00  0.00    +0.163 C 
ATOM     13  C   UNL     1     -36.446  22.822   3.531  0.00  0.00    +0.253 C 
ATOM     14  H   UNL     1     -40.165  27.495   3.794  0.00  0.00    +0.152 HD
ATOM     15  H   UNL     1     -38.355  26.660   4.223  0.00  0.00    +0.158 HD
ATOM     16  H   UNL     1     -36.301  27.199   5.288  0.00  0.00    +0.126 HD
ATOM     17  H   UNL     1     -33.263  24.468   5.493  0.00  0.00    +0.149 HD
ENDROOT
BRANCH   2  18
ATOM     18  CA  UNL     1     -41.879  26.793   2.810  0.00  0.00    +0.199 C 
BRANCH  18  20
ATOM     19  OXT UNL     1     -41.484  28.240   0.888  0.00  0.00    -0.248 OA
ATOM     20  C   UNL     1     -41.763  27.136   1.336  0.00  0.00    +0.334 C 
BRANCH  20  21
ATOM     21  O   UNL     1     -42.051  26.070   0.543  0.00  0.00    -0.479 OA
ATOM     22  H   UNL     1     -41.632  25.980  -0.290  0.00  0.00    +0.295 HD
ENDBRANCH  20  21
ENDBRANCH  18  20
BRANCH  18  23
ATOM     23  CB  UNL     1     -42.746  27.818   3.549  0.00  0.00    +0.139 C 
ATOM     24  CG2 UNL     1     -43.924  27.180   4.276  0.00  0.00    +0.034 C 
BRANCH  23  25
ATOM     25  OG1 UNL     1     -41.963  28.547   4.493  0.00  0.00    -0.382 OA
ATOM     26  HG1 UNL     1     -42.057  28.146   5.370  0.00  0.00    +0.210 HD
ENDBRANCH  23  25
ENDBRANCH  18  23
ENDBRANCH   2  18
TORSDOF 5
ENDMDL
MODEL 7
REMARK VINA RESULT:      -5.8      5.322      7.671
REMARK  Name = 584483
REMARK  5 active torsions:
REMARK  status: ('A' for Active; 'I' for Inactive)
REMARK    1  A    between atoms: N_2  and  CA_18
REMARK    2  A    between atoms: CA_18  and  C_20
REMARK    3  A    between atoms: CA_18  and  CB_23
REMARK    4  A    between atoms: C_20  and  O_21
REMARK    5  A    between atoms: CB_23  and  OG1_25
REMARK                            x       y       z     vdW  Elec       q    Type
REMARK                         _______ _______ _______ _____ _____    ______ ____
ROOT
ATOM      1  O   UNL     1     -34.517  21.403   1.430  0.00  0.00    -0.252 OA
ATOM      2  N   UNL     1     -35.979  21.116   3.198  0.00  0.00    -0.279 N 
ATOM      3  N   UNL     1     -36.047  19.621   1.453  0.00  0.00    -0.256 N 
ATOM      4  N   UNL     1     -37.494  17.108   0.447  0.00  0.00    -0.270 NA
ATOM      5  N   UNL     1     -34.819  19.410  -0.586  0.00  0.00    -0.232 NA
ATOM      6  N   UNL     1     -37.023  16.095  -1.483  0.00  0.00    -0.307 N 
ATOM      7  N   UNL     1     -35.254  17.611  -2.174  0.00  0.00    -0.232 NA
ATOM      8  C   ACE A   0     -35.424  20.766   1.961  0.00  0.00    +0.306 C 
ATOM      9  C   UNL     1     -36.484  17.835  -0.118  0.00  0.00    +0.164 C 
ATOM     10  C   UNL     1     -35.776  18.954   0.236  0.00  0.00    +0.131 C 
ATOM     11  C   UNL     1     -36.210  17.186  -1.315  0.00  0.00    +0.125 C 
ATOM     12  C   UNL     1     -37.782  16.076  -0.408  0.00  0.00    +0.163 C 
ATOM     13  C   UNL     1     -34.618  18.717  -1.731  0.00  0.00    +0.253 C 
ATOM     14  H   UNL     1     -36.704  20.557   3.561  0.00  0.00    +0.152 HD
ATOM     15  H   UNL     1     -36.760  19.234   2.010  0.00  0.00    +0.158 HD
ATOM     16  H   UNL     1     -37.933  17.291   1.308  0.00  0.00    +0.126 HD
ATOM     17  H   UNL     1     -37.037  15.465  -2.240  0.00  0.00    +0.149 HD
ENDROOT
BRANCH   2  18
ATOM     18  CA  UNL     1     -35.540  22.254   3.966  0.00  0.00    +0.199 C 
BRANCH  18  20
ATOM     19  OXT UNL     1     -35.888  22.558   6.360  0.00  0.00    -0.248 OA
ATOM     20  C   UNL     1     -35.553  21.840   5.426  0.00  0.00    +0.334 C 
BRANCH  20  21
ATOM     21  O   UNL     1     -35.100  20.570   5.598  0.00  0.00    -0.479 OA
ATOM     22  H   UNL     1     -34.187  20.414   5.739  0.00  0.00    +0.295 HD
ENDBRANCH  20  21
ENDBRANCH  18  20
BRANCH  18  23
ATOM     23  CB  UNL     1     -36.403  23.499   3.736  0.00  0.00    +0.139 C 
ATOM     24  CG2 UNL     1     -35.816  24.438   2.689  0.00  0.00    +0.034 C 
BRANCH  23  25
ATOM     25  OG1 UNL     1     -37.720  23.126   3.334  0.00  0.00    -0.382 OA
ATOM     26  HG1 UNL     1     -37.701  22.238   2.947  0.00  0.00    +0.210 HD
ENDBRANCH  23  25
ENDBRANCH  18  23
ENDBRANCH   2  18
TORSDOF 5
ENDMDL
MODEL 8
REMARK VINA RESULT:      -5.7      1.504      2.006
REMARK  Name = 584483
REMARK  5 active torsions:
REMARK  status: ('A' for Active; 'I' for Inactive)
REMARK    1  A    between atoms: N_2  and  CA_18
REMARK    2  A    between atoms: CA_18  and  C_20
REMARK    3  A    between atoms: CA_18  and  CB_23
REMARK    4  A    between atoms: C_20  and  O_21
REMARK    5  A    between atoms: CB_23  and  OG1_25
REMARK                            x       y       z     vdW  Elec       q    Type
REMARK                         _______ _______ _______ _____ _____    ______ ____
ROOT
ATOM      1  O   UNL     1     -32.401  26.999   5.123  0.00  0.00    -0.252 OA
ATOM      2  N   UNL     1     -32.985  28.969   4.063  0.00  0.00    -0.279 N 
ATOM      3  N   UNL     1     -34.510  27.251   4.122  0.00  0.00    -0.256 N 
ATOM      4  N   UNL     1     -37.344  26.469   3.236  0.00  0.00    -0.270 NA
ATOM      5  N   UNL     1     -34.476  25.047   5.046  0.00  0.00    -0.232 NA
ATOM      6  N   UNL     1     -38.273  24.487   3.658  0.00  0.00    -0.307 N 
ATOM      7  N   UNL     1     -36.383  23.538   4.857  0.00  0.00    -0.232 NA
ATOM      8  C   ACE A   0     -33.227  27.660   4.498  0.00  0.00    +0.306 C 
ATOM      9  C   UNL     1     -36.405  25.759   3.929  0.00  0.00    +0.164 C 
ATOM     10  C   UNL     1     -35.131  26.004   4.371  0.00  0.00    +0.131 C 
ATOM     11  C   UNL     1     -37.006  24.533   4.180  0.00  0.00    +0.125 C 
ATOM     12  C   UNL     1     -38.445  25.665   3.098  0.00  0.00    +0.163 C 
ATOM     13  C   UNL     1     -35.136  23.882   5.245  0.00  0.00    +0.253 C 
ATOM     14  H   UNL     1     -33.697  29.436   3.567  0.00  0.00    +0.152 HD
ATOM     15  H   UNL     1     -35.046  27.909   3.623  0.00  0.00    +0.158 HD
ATOM     16  H   UNL     1     -37.247  27.388   2.897  0.00  0.00    +0.126 HD
ATOM     17  H   UNL     1     -38.912  23.739   3.695  0.00  0.00    +0.149 HD
ENDROOT
BRANCH   2  18
ATOM     18  CA  UNL     1     -31.746  29.665   4.304  0.00  0.00    +0.199 C 
BRANCH  18  20
ATOM     19  OXT UNL     1     -32.383  30.747   6.394  0.00  0.00    -0.248 OA
ATOM     20  C   UNL     1     -31.675  29.949   5.793  0.00  0.00    +0.334 C 
BRANCH  20  21
ATOM     21  O   UNL     1     -30.685  29.240   6.398  0.00  0.00    -0.479 OA
ATOM     22  H   UNL     1     -30.560  28.336   6.185  0.00  0.00    +0.295 HD
ENDBRANCH  20  21
ENDBRANCH  18  20
BRANCH  18  23
ATOM     23  CB  UNL     1     -31.617  30.955   3.487  0.00  0.00    +0.139 C 
ATOM     24  CG2 UNL     1     -32.963  31.492   3.015  0.00  0.00    +0.034 C 
BRANCH  23  25
ATOM     25  OG1 UNL     1     -30.959  31.965   4.250  0.00  0.00    -0.382 OA
ATOM     26  HG1 UNL     1     -31.405  32.815   4.114  0.00  0.00    +0.210 HD
ENDBRANCH  23  25
ENDBRANCH  18  23
ENDBRANCH   2  18
TORSDOF 5
ENDMDL
MODEL 9
REMARK VINA RESULT:      -5.5      2.986      7.472
REMARK  Name = 584483
REMARK  5 active torsions:
REMARK  status: ('A' for Active; 'I' for Inactive)
REMARK    1  A    between atoms: N_2  and  CA_18
REMARK    2  A    between atoms: CA_18  and  C_20
REMARK    3  A    between atoms: CA_18  and  CB_23
REMARK    4  A    between atoms: C_20  and  O_21
REMARK    5  A    between atoms: CB_23  and  OG1_25
REMARK                            x       y       z     vdW  Elec       q    Type
REMARK                         _______ _______ _______ _____ _____    ______ ____
ROOT
ATOM      1  O   UNL     1     -34.812  28.187   3.616  0.00  0.00    -0.252 OA
ATOM      2  N   UNL     1     -34.563  25.950   4.147  0.00  0.00    -0.279 N 
ATOM      3  N   UNL     1     -32.946  27.435   4.828  0.00  0.00    -0.256 N 
ATOM      4  N   UNL     1     -30.280  27.618   6.339  0.00  0.00    -0.270 NA
ATOM      5  N   UNL     1     -32.667  29.795   4.583  0.00  0.00    -0.232 NA
ATOM      6  N   UNL     1     -29.163  29.521   6.658  0.00  0.00    -0.307 N 
ATOM      7  N   UNL     1     -30.735  30.969   5.500  0.00  0.00    -0.232 NA
ATOM      8  C   ACE A   0     -34.160  27.291   4.149  0.00  0.00    +0.306 C 
ATOM      9  C   UNL     1     -31.027  28.592   5.739  0.00  0.00    +0.164 C 
ATOM     10  C   UNL     1     -32.211  28.623   5.048  0.00  0.00    +0.131 C 
ATOM     11  C   UNL     1     -30.313  29.764   5.951  0.00  0.00    +0.125 C 
ATOM     12  C   UNL     1     -29.173  28.223   6.874  0.00  0.00    +0.163 C 
ATOM     13  C   UNL     1     -31.908  30.887   4.834  0.00  0.00    +0.253 C 
ATOM     14  H   UNL     1     -33.988  25.288   4.595  0.00  0.00    +0.152 HD
ATOM     15  H   UNL     1     -32.556  26.609   5.196  0.00  0.00    +0.158 HD
ATOM     16  H   UNL     1     -30.496  26.659   6.378  0.00  0.00    +0.126 HD
ATOM     17  H   UNL     1     -28.481  30.173   6.940  0.00  0.00    +0.149 HD
ENDROOT
BRANCH   2  18
ATOM     18  CA  UNL     1     -35.779  25.492   3.523  0.00  0.00    +0.199 C 
BRANCH  18  20
ATOM     19  OXT UNL     1     -36.095  24.122   5.514  0.00  0.00    -0.248 OA
ATOM     20  C   UNL     1     -36.576  24.753   4.582  0.00  0.00    +0.334 C 
BRANCH  20  21
ATOM     21  O   UNL     1     -37.914  24.830   4.356  0.00  0.00    -0.479 OA
ATOM     22  H   UNL     1     -38.475  24.132   4.629  0.00  0.00    +0.295 HD
ENDBRANCH  20  21
ENDBRANCH  18  20
BRANCH  18  23
ATOM     23  CB  UNL     1     -35.524  24.603   2.301  0.00  0.00    +0.139 C 
ATOM     24  CG2 UNL     1     -34.083  24.671   1.811  0.00  0.00    +0.034 C 
BRANCH  23  25
ATOM     25  OG1 UNL     1     -35.846  23.245   2.596  0.00  0.00    -0.382 OA
ATOM     26  HG1 UNL     1     -35.806  22.719   1.783  0.00  0.00    +0.210 HD
ENDBRANCH  23  25
ENDBRANCH  18  23
ENDBRANCH   2  18
TORSDOF 5
ENDMDL
