MODEL 1
REMARK VINA RESULT:      -6.3      0.000      0.000
REMARK  Name = 5280343
REMARK  6 active torsions:
REMARK  status: ('A' for Active; 'I' for Inactive)
REMARK    1  A    between atoms: C_5  and  C_12
REMARK    2  A    between atoms: C_6  and  O_22
REMARK    3  A    between atoms: C_8  and  O_24
REMARK    4  A    between atoms: C_10  and  O_26
REMARK    5  A    between atoms: C_15  and  O_18
REMARK    6  A    between atoms: C_17  and  O_20
REMARK                            x       y       z     vdW  Elec       q    Type
REMARK                         _______ _______ _______ _____ _____    ______ ____
ROOT
ATOM      1  O   UNL     1     -34.757  23.745   3.350  0.00  0.00    -0.450 OA
ATOM      2  O   UNL     1     -38.806  24.204   3.418  0.00  0.00    -0.283 OA
ATOM      3  C   UNL     1     -36.959  22.838   2.883  0.00  0.00    +0.110 A 
ATOM      4  C   UNL     1     -35.569  22.743   2.886  0.00  0.00    +0.155 A 
ATOM      5  C   UNL     1     -35.346  24.896   3.850  0.00  0.00    +0.182 A 
ATOM      6  C   UNL     1     -36.673  25.116   3.896  0.00  0.00    +0.208 A 
ATOM      7  C   UNL     1     -37.590  24.062   3.400  0.00  0.00    +0.238 A 
ATOM      8  C   UNL     1     -37.736  21.784   2.396  0.00  0.00    +0.143 C 
ATOM      9  C   UNL     1     -34.946  21.594   2.399  0.00  0.00    +0.074 C 
ATOM     10  C   UNL     1     -35.720  20.538   1.912  0.00  0.00    +0.140 C 
ATOM     11  C   UNL     1     -37.112  20.635   1.911  0.00  0.00    +0.073 C 
ENDROOT
BRANCH   5  12
ATOM     12  C   UNL     1     -34.362  25.890   4.315  0.00  0.00    +0.041 C 
ATOM     13  C   UNL     1     -34.051  25.982   5.671  0.00  0.00    +0.043 C 
ATOM     14  C   UNL     1     -33.742  26.738   3.397  0.00  0.00    +0.006 C 
ATOM     15  C   UNL     1     -33.119  26.922   6.111  0.00  0.00    +0.168 C 
ATOM     16  C   UNL     1     -32.810  27.679   3.837  0.00  0.00    +0.040 C 
ATOM     17  C   UNL     1     -32.499  27.772   5.194  0.00  0.00    +0.167 C 
BRANCH  15  18
ATOM     18  O   UNL     1     -32.824  27.005   7.438  0.00  0.00    -0.503 OA
ATOM     19  H   UNL     1     -33.141  26.352   8.030  0.00  0.00    +0.292 HD
ENDBRANCH  15  18
BRANCH  17  20
ATOM     20  O   UNL     1     -31.586  28.693   5.611  0.00  0.00    -0.503 OA
ATOM     21  H   UNL     1     -31.385  29.431   5.071  0.00  0.00    +0.292 HD
ENDBRANCH  17  20
ENDBRANCH   5  12
BRANCH   6  22
ATOM     22  O   UNL     1     -37.226  26.286   4.369  0.00  0.00    -0.501 OA
ATOM     23  H   UNL     1     -38.022  26.611   3.999  0.00  0.00    +0.292 HD
ENDBRANCH   6  22
BRANCH   8  24
ATOM     24  O   UNL     1     -39.098  21.826   2.371  0.00  0.00    -0.505 OA
ATOM     25  H   UNL     1     -39.543  22.157   1.616  0.00  0.00    +0.292 HD
ENDBRANCH   8  24
BRANCH  10  26
ATOM     26  O   UNL     1     -35.115  19.416   1.437  0.00  0.00    -0.505 OA
ATOM     27  H   UNL     1     -34.179  19.356   1.426  0.00  0.00    +0.292 HD
ENDBRANCH  10  26
TORSDOF 6
ENDMDL
MODEL 2
REMARK VINA RESULT:      -6.1      2.719      6.298
REMARK  Name = 5280343
REMARK  6 active torsions:
REMARK  status: ('A' for Active; 'I' for Inactive)
REMARK    1  A    between atoms: C_5  and  C_12
REMARK    2  A    between atoms: C_6  and  O_22
REMARK    3  A    between atoms: C_8  and  O_24
REMARK    4  A    between atoms: C_10  and  O_26
REMARK    5  A    between atoms: C_15  and  O_18
REMARK    6  A    between atoms: C_17  and  O_20
REMARK                            x       y       z     vdW  Elec       q    Type
REMARK                         _______ _______ _______ _____ _____    ______ ____
ROOT
ATOM      1  O   UNL     1     -34.898  26.244   3.397  0.00  0.00    -0.450 OA
ATOM      2  O   UNL     1     -38.228  27.319   1.308  0.00  0.00    -0.283 OA
ATOM      3  C   UNL     1     -36.070  27.898   2.063  0.00  0.00    +0.110 A 
ATOM      4  C   UNL     1     -34.962  27.471   2.792  0.00  0.00    +0.155 A 
ATOM      5  C   UNL     1     -35.979  25.384   3.267  0.00  0.00    +0.182 A 
ATOM      6  C   UNL     1     -37.109  25.677   2.598  0.00  0.00    +0.208 A 
ATOM      7  C   UNL     1     -37.225  26.996   1.931  0.00  0.00    +0.238 A 
ATOM      8  C   UNL     1     -36.079  29.162   1.469  0.00  0.00    +0.143 C 
ATOM      9  C   UNL     1     -33.855  28.308   2.933  0.00  0.00    +0.074 C 
ATOM     10  C   UNL     1     -33.860  29.572   2.341  0.00  0.00    +0.140 C 
ATOM     11  C   UNL     1     -34.971  29.997   1.610  0.00  0.00    +0.073 C 
ENDROOT
BRANCH   5  12
ATOM     12  C   UNL     1     -35.780  24.101   3.963  0.00  0.00    +0.041 C 
ATOM     13  C   UNL     1     -35.819  22.905   3.247  0.00  0.00    +0.043 C 
ATOM     14  C   UNL     1     -35.554  24.083   5.340  0.00  0.00    +0.006 C 
ATOM     15  C   UNL     1     -35.630  21.690   3.906  0.00  0.00    +0.168 C 
ATOM     16  C   UNL     1     -35.366  22.868   5.999  0.00  0.00    +0.040 C 
ATOM     17  C   UNL     1     -35.405  21.672   5.283  0.00  0.00    +0.167 C 
BRANCH  15  18
ATOM     18  O   UNL     1     -35.671  20.528   3.197  0.00  0.00    -0.503 OA
ATOM     19  H   UNL     1     -36.447  20.002   3.205  0.00  0.00    +0.292 HD
ENDBRANCH  15  18
BRANCH  17  20
ATOM     20  O   UNL     1     -35.217  20.492   5.938  0.00  0.00    -0.503 OA
ATOM     21  H   UNL     1     -35.010  20.490   6.851  0.00  0.00    +0.292 HD
ENDBRANCH  17  20
ENDBRANCH   5  12
BRANCH   6  22
ATOM     22  O   UNL     1     -38.179  24.813   2.515  0.00  0.00    -0.501 OA
ATOM     23  H   UNL     1     -38.691  24.775   1.731  0.00  0.00    +0.292 HD
ENDBRANCH   6  22
BRANCH   8  24
ATOM     24  O   UNL     1     -37.137  29.627   0.746  0.00  0.00    -0.505 OA
ATOM     25  H   UNL     1     -37.064  30.433   0.274  0.00  0.00    +0.292 HD
ENDBRANCH   8  24
BRANCH  10  26
ATOM     26  O   UNL     1     -32.782  30.391   2.477  0.00  0.00    -0.505 OA
ATOM     27  H   UNL     1     -32.818  31.271   2.155  0.00  0.00    +0.292 HD
ENDBRANCH  10  26
TORSDOF 6
ENDMDL
MODEL 3
REMARK VINA RESULT:      -6.1      1.747      2.717
REMARK  Name = 5280343
REMARK  6 active torsions:
REMARK  status: ('A' for Active; 'I' for Inactive)
REMARK    1  A    between atoms: C_5  and  C_12
REMARK    2  A    between atoms: C_6  and  O_22
REMARK    3  A    between atoms: C_8  and  O_24
REMARK    4  A    between atoms: C_10  and  O_26
REMARK    5  A    between atoms: C_15  and  O_18
REMARK    6  A    between atoms: C_17  and  O_20
REMARK                            x       y       z     vdW  Elec       q    Type
REMARK                         _______ _______ _______ _____ _____    ______ ____
ROOT
ATOM      1  O   UNL     1     -36.400  22.688   2.262  0.00  0.00    -0.450 OA
ATOM      2  O   UNL     1     -40.463  23.001   2.188  0.00  0.00    -0.283 OA
ATOM      3  C   UNL     1     -38.532  21.880   1.429  0.00  0.00    +0.110 A 
ATOM      4  C   UNL     1     -37.141  21.826   1.496  0.00  0.00    +0.155 A 
ATOM      5  C   UNL     1     -37.065  23.645   3.013  0.00  0.00    +0.182 A 
ATOM      6  C   UNL     1     -38.401  23.808   3.030  0.00  0.00    +0.208 A 
ATOM      7  C   UNL     1     -39.243  22.903   2.212  0.00  0.00    +0.238 A 
ATOM      8  C   UNL     1     -39.235  20.976   0.629  0.00  0.00    +0.143 C 
ATOM      9  C   UNL     1     -36.443  20.868   0.761  0.00  0.00    +0.074 C 
ATOM     10  C   UNL     1     -37.142  19.962  -0.039  0.00  0.00    +0.140 C 
ATOM     11  C   UNL     1     -38.535  20.018  -0.105  0.00  0.00    +0.073 C 
ENDROOT
BRANCH   5  12
ATOM     12  C   UNL     1     -36.153  24.503   3.789  0.00  0.00    +0.041 C 
ATOM     13  C   UNL     1     -35.985  25.842   3.436  0.00  0.00    +0.043 C 
ATOM     14  C   UNL     1     -35.458  23.976   4.878  0.00  0.00    +0.006 C 
ATOM     15  C   UNL     1     -35.122  26.655   4.172  0.00  0.00    +0.168 C 
ATOM     16  C   UNL     1     -34.594  24.788   5.613  0.00  0.00    +0.040 C 
ATOM     17  C   UNL     1     -34.426  26.127   5.260  0.00  0.00    +0.167 C 
BRANCH  15  18
ATOM     18  O   UNL     1     -34.964  27.960   3.818  0.00  0.00    -0.503 OA
ATOM     19  H   UNL     1     -34.356  28.192   3.144  0.00  0.00    +0.292 HD
ENDBRANCH  15  18
BRANCH  17  20
ATOM     20  O   UNL     1     -33.582  26.911   5.988  0.00  0.00    -0.503 OA
ATOM     21  H   UNL     1     -33.912  27.662   6.439  0.00  0.00    +0.292 HD
ENDBRANCH  17  20
ENDBRANCH   5  12
BRANCH   6  22
ATOM     22  O   UNL     1     -39.029  24.793   3.762  0.00  0.00    -0.501 OA
ATOM     23  H   UNL     1     -39.420  25.524   3.326  0.00  0.00    +0.292 HD
ENDBRANCH   6  22
BRANCH   8  24
ATOM     24  O   UNL     1     -40.594  20.986   0.528  0.00  0.00    -0.505 OA
ATOM     25  H   UNL     1     -41.001  21.009  -0.315  0.00  0.00    +0.292 HD
ENDBRANCH   8  24
BRANCH  10  26
ATOM     26  O   UNL     1     -36.465  19.026  -0.756  0.00  0.00    -0.505 OA
ATOM     27  H   UNL     1     -36.185  19.217  -1.631  0.00  0.00    +0.292 HD
ENDBRANCH  10  26
TORSDOF 6
ENDMDL
MODEL 4
REMARK VINA RESULT:      -6.1      2.662      7.694
REMARK  Name = 5280343
REMARK  6 active torsions:
REMARK  status: ('A' for Active; 'I' for Inactive)
REMARK    1  A    between atoms: C_5  and  C_12
REMARK    2  A    between atoms: C_6  and  O_22
REMARK    3  A    between atoms: C_8  and  O_24
REMARK    4  A    between atoms: C_10  and  O_26
REMARK    5  A    between atoms: C_15  and  O_18
REMARK    6  A    between atoms: C_17  and  O_20
REMARK                            x       y       z     vdW  Elec       q    Type
REMARK                         _______ _______ _______ _____ _____    ______ ____
ROOT
ATOM      1  O   UNL     1     -37.698  23.204   2.254  0.00  0.00    -0.450 OA
ATOM      2  O   UNL     1     -35.162  20.534   4.000  0.00  0.00    -0.283 OA
ATOM      3  C   UNL     1     -36.068  22.711   3.983  0.00  0.00    +0.110 A 
ATOM      4  C   UNL     1     -36.951  23.577   3.341  0.00  0.00    +0.155 A 
ATOM      5  C   UNL     1     -37.578  21.906   1.782  0.00  0.00    +0.182 A 
ATOM      6  C   UNL     1     -36.758  20.977   2.306  0.00  0.00    +0.208 A 
ATOM      7  C   UNL     1     -35.926  21.337   3.480  0.00  0.00    +0.238 A 
ATOM      8  C   UNL     1     -35.331  23.148   5.087  0.00  0.00    +0.143 C 
ATOM      9  C   UNL     1     -37.102  24.886   3.797  0.00  0.00    +0.074 C 
ATOM     10  C   UNL     1     -36.368  25.326   4.900  0.00  0.00    +0.140 C 
ATOM     11  C   UNL     1     -35.484  24.457   5.543  0.00  0.00    +0.073 C 
ENDROOT
BRANCH   5  12
ATOM     12  C   UNL     1     -38.434  21.637   0.613  0.00  0.00    +0.041 C 
ATOM     13  C   UNL     1     -39.761  21.247   0.795  0.00  0.00    +0.043 C 
ATOM     14  C   UNL     1     -37.917  21.773  -0.675  0.00  0.00    +0.006 C 
ATOM     15  C   UNL     1     -40.572  20.994  -0.312  0.00  0.00    +0.168 C 
ATOM     16  C   UNL     1     -38.727  21.519  -1.782  0.00  0.00    +0.040 C 
ATOM     17  C   UNL     1     -40.054  21.130  -1.601  0.00  0.00    +0.167 C 
BRANCH  15  18
ATOM     18  O   UNL     1     -41.865  20.613  -0.124  0.00  0.00    -0.503 OA
ATOM     19  H   UNL     1     -42.405  21.073   0.488  0.00  0.00    +0.292 HD
ENDBRANCH  15  18
BRANCH  17  20
ATOM     20  O   UNL     1     -40.836  20.887  -2.690  0.00  0.00    -0.503 OA
ATOM     21  H   UNL     1     -41.754  21.069  -2.658  0.00  0.00    +0.292 HD
ENDBRANCH  17  20
ENDBRANCH   5  12
BRANCH   6  22
ATOM     22  O   UNL     1     -36.637  19.704   1.793  0.00  0.00    -0.501 OA
ATOM     23  H   UNL     1     -35.798  19.381   1.531  0.00  0.00    +0.292 HD
ENDBRANCH   6  22
BRANCH   8  24
ATOM     24  O   UNL     1     -34.455  22.342   5.750  0.00  0.00    -0.505 OA
ATOM     25  H   UNL     1     -34.062  21.614   5.311  0.00  0.00    +0.292 HD
ENDBRANCH   8  24
BRANCH  10  26
ATOM     26  O   UNL     1     -36.513  26.602   5.348  0.00  0.00    -0.505 OA
ATOM     27  H   UNL     1     -35.992  27.290   4.981  0.00  0.00    +0.292 HD
ENDBRANCH  10  26
TORSDOF 6
ENDMDL
MODEL 5
REMARK VINA RESULT:      -6.0      2.070      2.861
REMARK  Name = 5280343
REMARK  6 active torsions:
REMARK  status: ('A' for Active; 'I' for Inactive)
REMARK    1  A    between atoms: C_5  and  C_12
REMARK    2  A    between atoms: C_6  and  O_22
REMARK    3  A    between atoms: C_8  and  O_24
REMARK    4  A    between atoms: C_10  and  O_26
REMARK    5  A    between atoms: C_15  and  O_18
REMARK    6  A    between atoms: C_17  and  O_20
REMARK                            x       y       z     vdW  Elec       q    Type
REMARK                         _______ _______ _______ _____ _____    ______ ____
ROOT
ATOM      1  O   UNL     1     -33.601  25.444   4.996  0.00  0.00    -0.450 OA
ATOM      2  O   UNL     1     -36.865  26.479   2.785  0.00  0.00    -0.283 OA
ATOM      3  C   UNL     1     -35.703  24.801   3.967  0.00  0.00    +0.110 A 
ATOM      4  C   UNL     1     -34.565  24.511   4.716  0.00  0.00    +0.155 A 
ATOM      5  C   UNL     1     -33.775  26.736   4.524  0.00  0.00    +0.182 A 
ATOM      6  C   UNL     1     -34.823  27.144   3.785  0.00  0.00    +0.208 A 
ATOM      7  C   UNL     1     -35.887  26.167   3.453  0.00  0.00    +0.238 A 
ATOM      8  C   UNL     1     -36.652  23.808   3.712  0.00  0.00    +0.143 C 
ATOM      9  C   UNL     1     -34.366  23.222   5.213  0.00  0.00    +0.074 C 
ATOM     10  C   UNL     1     -35.311  22.227   4.960  0.00  0.00    +0.140 C 
ATOM     11  C   UNL     1     -36.452  22.521   4.211  0.00  0.00    +0.073 C 
ENDROOT
BRANCH   5  12
ATOM     12  C   UNL     1     -32.670  27.637   4.896  0.00  0.00    +0.041 C 
ATOM     13  C   UNL     1     -32.528  28.060   6.217  0.00  0.00    +0.043 C 
ATOM     14  C   UNL     1     -31.765  28.067   3.924  0.00  0.00    +0.006 C 
ATOM     15  C   UNL     1     -31.481  28.913   6.568  0.00  0.00    +0.168 C 
ATOM     16  C   UNL     1     -30.718  28.920   4.275  0.00  0.00    +0.040 C 
ATOM     17  C   UNL     1     -30.576  29.343   5.597  0.00  0.00    +0.167 C 
BRANCH  15  18
ATOM     18  O   UNL     1     -31.353  29.321   7.861  0.00  0.00    -0.503 OA
ATOM     19  H   UNL     1     -30.602  29.816   8.124  0.00  0.00    +0.292 HD
ENDBRANCH  15  18
BRANCH  17  20
ATOM     20  O   UNL     1     -29.549  30.174   5.928  0.00  0.00    -0.503 OA
ATOM     21  H   UNL     1     -29.020  29.990   6.679  0.00  0.00    +0.292 HD
ENDBRANCH  17  20
ENDBRANCH   5  12
BRANCH   6  22
ATOM     22  O   UNL     1     -34.949  28.429   3.303  0.00  0.00    -0.501 OA
ATOM     23  H   UNL     1     -35.360  29.088   3.828  0.00  0.00    +0.292 HD
ENDBRANCH   6  22
BRANCH   8  24
ATOM     24  O   UNL     1     -37.782  24.039   2.986  0.00  0.00    -0.505 OA
ATOM     25  H   UNL     1     -37.719  24.400   2.124  0.00  0.00    +0.292 HD
ENDBRANCH   8  24
BRANCH  10  26
ATOM     26  O   UNL     1     -35.120  20.970   5.444  0.00  0.00    -0.505 OA
ATOM     27  H   UNL     1     -34.655  20.843   6.249  0.00  0.00    +0.292 HD
ENDBRANCH  10  26
TORSDOF 6
ENDMDL
MODEL 6
REMARK VINA RESULT:      -6.0      2.287      7.153
REMARK  Name = 5280343
REMARK  6 active torsions:
REMARK  status: ('A' for Active; 'I' for Inactive)
REMARK    1  A    between atoms: C_5  and  C_12
REMARK    2  A    between atoms: C_6  and  O_22
REMARK    3  A    between atoms: C_8  and  O_24
REMARK    4  A    between atoms: C_10  and  O_26
REMARK    5  A    between atoms: C_15  and  O_18
REMARK    6  A    between atoms: C_17  and  O_20
REMARK                            x       y       z     vdW  Elec       q    Type
REMARK                         _______ _______ _______ _____ _____    ______ ____
ROOT
ATOM      1  O   UNL     1     -33.311  26.343   5.011  0.00  0.00    -0.450 OA
ATOM      2  O   UNL     1     -34.183  29.284   2.327  0.00  0.00    -0.283 OA
ATOM      3  C   UNL     1     -33.042  28.644   4.290  0.00  0.00    +0.110 A 
ATOM      4  C   UNL     1     -32.784  27.597   5.172  0.00  0.00    +0.155 A 
ATOM      5  C   UNL     1     -34.126  26.103   3.915  0.00  0.00    +0.182 A 
ATOM      6  C   UNL     1     -34.459  27.028   2.996  0.00  0.00    +0.208 A 
ATOM      7  C   UNL     1     -33.916  28.401   3.133  0.00  0.00    +0.238 A 
ATOM      8  C   UNL     1     -32.477  29.904   4.507  0.00  0.00    +0.143 C 
ATOM      9  C   UNL     1     -31.960  27.803   6.279  0.00  0.00    +0.074 C 
ATOM     10  C   UNL     1     -31.393  29.060   6.498  0.00  0.00    +0.140 C 
ATOM     11  C   UNL     1     -31.653  30.108   5.613  0.00  0.00    +0.073 C 
ENDROOT
BRANCH   5  12
ATOM     12  C   UNL     1     -34.624  24.718   3.860  0.00  0.00    +0.041 C 
ATOM     13  C   UNL     1     -35.136  24.114   5.009  0.00  0.00    +0.043 C 
ATOM     14  C   UNL     1     -34.585  24.010   2.659  0.00  0.00    +0.006 C 
ATOM     15  C   UNL     1     -35.609  22.803   4.957  0.00  0.00    +0.168 C 
ATOM     16  C   UNL     1     -35.058  22.698   2.607  0.00  0.00    +0.040 C 
ATOM     17  C   UNL     1     -35.569  22.094   3.755  0.00  0.00    +0.167 C 
BRANCH  15  18
ATOM     18  O   UNL     1     -36.104  22.223   6.085  0.00  0.00    -0.503 OA
ATOM     19  H   UNL     1     -35.519  21.913   6.748  0.00  0.00    +0.292 HD
ENDBRANCH  15  18
BRANCH  17  20
ATOM     20  O   UNL     1     -36.029  20.814   3.691  0.00  0.00    -0.503 OA
ATOM     21  H   UNL     1     -35.694  20.165   4.279  0.00  0.00    +0.292 HD
ENDBRANCH  17  20
ENDBRANCH   5  12
BRANCH   6  22
ATOM     22  O   UNL     1     -35.299  26.766   1.935  0.00  0.00    -0.501 OA
ATOM     23  H   UNL     1     -35.172  27.205   1.117  0.00  0.00    +0.292 HD
ENDBRANCH   6  22
BRANCH   8  24
ATOM     24  O   UNL     1     -32.697  30.961   3.675  0.00  0.00    -0.505 OA
ATOM     25  H   UNL     1     -32.272  30.998   2.841  0.00  0.00    +0.292 HD
ENDBRANCH   8  24
BRANCH  10  26
ATOM     26  O   UNL     1     -30.589  29.264   7.576  0.00  0.00    -0.505 OA
ATOM     27  H   UNL     1     -30.568  28.634   8.271  0.00  0.00    +0.292 HD
ENDBRANCH  10  26
TORSDOF 6
ENDMDL
MODEL 7
REMARK VINA RESULT:      -5.9      3.455      5.672
REMARK  Name = 5280343
REMARK  6 active torsions:
REMARK  status: ('A' for Active; 'I' for Inactive)
REMARK    1  A    between atoms: C_5  and  C_12
REMARK    2  A    between atoms: C_6  and  O_22
REMARK    3  A    between atoms: C_8  and  O_24
REMARK    4  A    between atoms: C_10  and  O_26
REMARK    5  A    between atoms: C_15  and  O_18
REMARK    6  A    between atoms: C_17  and  O_20
REMARK                            x       y       z     vdW  Elec       q    Type
REMARK                         _______ _______ _______ _____ _____    ______ ____
ROOT
ATOM      1  O   UNL     1     -36.149  25.635   1.992  0.00  0.00    -0.450 OA
ATOM      2  O   UNL     1     -40.085  26.688   2.076  0.00  0.00    -0.283 OA
ATOM      3  C   UNL     1     -37.960  26.980   1.097  0.00  0.00    +0.110 A 
ATOM      4  C   UNL     1     -36.626  26.578   1.119  0.00  0.00    +0.155 A 
ATOM      5  C   UNL     1     -37.036  25.047   2.881  0.00  0.00    +0.182 A 
ATOM      6  C   UNL     1     -38.344  25.352   2.967  0.00  0.00    +0.208 A 
ATOM      7  C   UNL     1     -38.903  26.370   2.046  0.00  0.00    +0.238 A 
ATOM      8  C   UNL     1     -38.389  27.948   0.185  0.00  0.00    +0.143 C 
ATOM      9  C   UNL     1     -35.711  27.143   0.231  0.00  0.00    +0.074 C 
ATOM     10  C   UNL     1     -36.136  28.110  -0.682  0.00  0.00    +0.140 C 
ATOM     11  C   UNL     1     -37.473  28.512  -0.703  0.00  0.00    +0.073 C 
ENDROOT
BRANCH   5  12
ATOM     12  C   UNL     1     -36.395  24.052   3.759  0.00  0.00    +0.041 C 
ATOM     13  C   UNL     1     -36.241  22.736   3.326  0.00  0.00    +0.043 C 
ATOM     14  C   UNL     1     -35.942  24.429   5.024  0.00  0.00    +0.006 C 
ATOM     15  C   UNL     1     -35.633  21.794   4.158  0.00  0.00    +0.168 C 
ATOM     16  C   UNL     1     -35.336  23.487   5.856  0.00  0.00    +0.040 C 
ATOM     17  C   UNL     1     -35.181  22.171   5.423  0.00  0.00    +0.167 C 
BRANCH  15  18
ATOM     18  O   UNL     1     -35.490  20.511   3.726  0.00  0.00    -0.503 OA
ATOM     19  H   UNL     1     -34.763  20.278   3.182  0.00  0.00    +0.292 HD
ENDBRANCH  15  18
BRANCH  17  20
ATOM     20  O   UNL     1     -34.585  21.261   6.244  0.00  0.00    -0.503 OA
ATOM     21  H   UNL     1     -34.384  20.403   5.925  0.00  0.00    +0.292 HD
ENDBRANCH  17  20
ENDBRANCH   5  12
BRANCH   6  22
ATOM     22  O   UNL     1     -39.192  24.772   3.885  0.00  0.00    -0.501 OA
ATOM     23  H   UNL     1     -38.861  24.150   4.502  0.00  0.00    +0.292 HD
ENDBRANCH   6  22
BRANCH   8  24
ATOM     24  O   UNL     1     -39.681  28.376   0.122  0.00  0.00    -0.505 OA
ATOM     25  H   UNL     1     -40.308  27.900  -0.385  0.00  0.00    +0.292 HD
ENDBRANCH   8  24
BRANCH  10  26
ATOM     26  O   UNL     1     -35.246  28.663  -1.549  0.00  0.00    -0.505 OA
ATOM     27  H   UNL     1     -35.421  28.652  -2.471  0.00  0.00    +0.292 HD
ENDBRANCH  10  26
TORSDOF 6
ENDMDL
MODEL 8
REMARK VINA RESULT:      -5.9      1.449      2.015
REMARK  Name = 5280343
REMARK  6 active torsions:
REMARK  status: ('A' for Active; 'I' for Inactive)
REMARK    1  A    between atoms: C_5  and  C_12
REMARK    2  A    between atoms: C_6  and  O_22
REMARK    3  A    between atoms: C_8  and  O_24
REMARK    4  A    between atoms: C_10  and  O_26
REMARK    5  A    between atoms: C_15  and  O_18
REMARK    6  A    between atoms: C_17  and  O_20
REMARK                            x       y       z     vdW  Elec       q    Type
REMARK                         _______ _______ _______ _____ _____    ______ ____
ROOT
ATOM      1  O   UNL     1     -34.820  24.402   3.997  0.00  0.00    -0.450 OA
ATOM      2  O   UNL     1     -37.676  26.100   1.637  0.00  0.00    -0.283 OA
ATOM      3  C   UNL     1     -36.682  24.128   2.465  0.00  0.00    +0.110 A 
ATOM      4  C   UNL     1     -35.684  23.610   3.288  0.00  0.00    +0.155 A 
ATOM      5  C   UNL     1     -34.954  25.778   3.901  0.00  0.00    +0.182 A 
ATOM      6  C   UNL     1     -35.868  26.405   3.138  0.00  0.00    +0.208 A 
ATOM      7  C   UNL     1     -36.822  25.588   2.348  0.00  0.00    +0.238 A 
ATOM      8  C   UNL     1     -37.534  23.271   1.764  0.00  0.00    +0.143 C 
ATOM      9  C   UNL     1     -35.530  22.229   3.413  0.00  0.00    +0.074 C 
ATOM     10  C   UNL     1     -36.380  21.369   2.714  0.00  0.00    +0.140 C 
ATOM     11  C   UNL     1     -37.379  21.891   1.891  0.00  0.00    +0.073 C 
ENDROOT
BRANCH   5  12
ATOM     12  C   UNL     1     -33.965  26.510   4.712  0.00  0.00    +0.041 C 
ATOM     13  C   UNL     1     -33.122  27.444   4.110  0.00  0.00    +0.043 C 
ATOM     14  C   UNL     1     -33.873  26.269   6.084  0.00  0.00    +0.006 C 
ATOM     15  C   UNL     1     -32.187  28.138   4.878  0.00  0.00    +0.168 C 
ATOM     16  C   UNL     1     -32.937  26.962   6.852  0.00  0.00    +0.040 C 
ATOM     17  C   UNL     1     -32.094  27.896   6.249  0.00  0.00    +0.167 C 
BRANCH  15  18
ATOM     18  O   UNL     1     -31.368  29.046   4.280  0.00  0.00    -0.503 OA
ATOM     19  H   UNL     1     -30.637  29.398   4.748  0.00  0.00    +0.292 HD
ENDBRANCH  15  18
BRANCH  17  20
ATOM     20  O   UNL     1     -31.186  28.568   7.011  0.00  0.00    -0.503 OA
ATOM     21  H   UNL     1     -31.157  28.431   7.937  0.00  0.00    +0.292 HD
ENDBRANCH  17  20
ENDBRANCH   5  12
BRANCH   6  22
ATOM     22  O   UNL     1     -35.954  27.776   3.039  0.00  0.00    -0.501 OA
ATOM     23  H   UNL     1     -36.785  28.201   3.120  0.00  0.00    +0.292 HD
ENDBRANCH   6  22
BRANCH   8  24
ATOM     24  O   UNL     1     -38.525  23.726   0.947  0.00  0.00    -0.505 OA
ATOM     25  H   UNL     1     -38.373  24.466   0.393  0.00  0.00    +0.292 HD
ENDBRANCH   8  24
BRANCH  10  26
ATOM     26  O   UNL     1     -36.232  20.022   2.835  0.00  0.00    -0.505 OA
ATOM     27  H   UNL     1     -36.442  19.598   3.645  0.00  0.00    +0.292 HD
ENDBRANCH  10  26
TORSDOF 6
ENDMDL
MODEL 9
REMARK VINA RESULT:      -5.9      3.036      5.548
REMARK  Name = 5280343
REMARK  6 active torsions:
REMARK  status: ('A' for Active; 'I' for Inactive)
REMARK    1  A    between atoms: C_5  and  C_12
REMARK    2  A    between atoms: C_6  and  O_22
REMARK    3  A    between atoms: C_8  and  O_24
REMARK    4  A    between atoms: C_10  and  O_26
REMARK    5  A    between atoms: C_15  and  O_18
REMARK    6  A    between atoms: C_17  and  O_20
REMARK                            x       y       z     vdW  Elec       q    Type
REMARK                         _______ _______ _______ _____ _____    ______ ____
ROOT
ATOM      1  O   UNL     1     -33.992  19.819   1.924  0.00  0.00    -0.450 OA
ATOM      2  O   UNL     1     -37.024  18.293  -0.332  0.00  0.00    -0.283 OA
ATOM      3  C   UNL     1     -34.771  18.144   0.350  0.00  0.00    +0.110 A 
ATOM      4  C   UNL     1     -33.777  18.715   1.142  0.00  0.00    +0.155 A 
ATOM      5  C   UNL     1     -35.258  20.385   1.936  0.00  0.00    +0.182 A 
ATOM      6  C   UNL     1     -36.300  19.937   1.213  0.00  0.00    +0.208 A 
ATOM      7  C   UNL     1     -36.113  18.747   0.348  0.00  0.00    +0.238 A 
ATOM      8  C   UNL     1     -34.493  17.018  -0.429  0.00  0.00    +0.143 C 
ATOM      9  C   UNL     1     -32.496  18.163   1.159  0.00  0.00    +0.074 C 
ATOM     10  C   UNL     1     -32.214  17.038   0.383  0.00  0.00    +0.140 C 
ATOM     11  C   UNL     1     -33.212  16.468  -0.410  0.00  0.00    +0.073 C 
ENDROOT
BRANCH   5  12
ATOM     12  C   UNL     1     -35.353  21.563   2.817  0.00  0.00    +0.041 C 
ATOM     13  C   UNL     1     -35.583  21.397   4.182  0.00  0.00    +0.043 C 
ATOM     14  C   UNL     1     -35.213  22.844   2.283  0.00  0.00    +0.006 C 
ATOM     15  C   UNL     1     -35.671  22.512   5.015  0.00  0.00    +0.168 C 
ATOM     16  C   UNL     1     -35.302  23.960   3.116  0.00  0.00    +0.040 C 
ATOM     17  C   UNL     1     -35.532  23.794   4.482  0.00  0.00    +0.167 C 
BRANCH  15  18
ATOM     18  O   UNL     1     -35.897  22.339   6.347  0.00  0.00    -0.503 OA
ATOM     19  H   UNL     1     -35.905  23.079   6.921  0.00  0.00    +0.292 HD
ENDBRANCH  15  18
BRANCH  17  20
ATOM     20  O   UNL     1     -35.615  24.891   5.286  0.00  0.00    -0.503 OA
ATOM     21  H   UNL     1     -34.872  25.162   5.787  0.00  0.00    +0.292 HD
ENDBRANCH  17  20
ENDBRANCH   5  12
BRANCH   6  22
ATOM     22  O   UNL     1     -37.539  20.542   1.223  0.00  0.00    -0.501 OA
ATOM     23  H   UNL     1     -38.306  20.043   1.023  0.00  0.00    +0.292 HD
ENDBRANCH   6  22
BRANCH   8  24
ATOM     24  O   UNL     1     -35.429  16.423  -1.220  0.00  0.00    -0.505 OA
ATOM     25  H   UNL     1     -35.777  16.880  -1.960  0.00  0.00    +0.292 HD
ENDBRANCH   8  24
BRANCH  10  26
ATOM     26  O   UNL     1     -30.966  16.497   0.398  0.00  0.00    -0.505 OA
ATOM     27  H   UNL     1     -30.846  15.600   0.644  0.00  0.00    +0.292 HD
ENDBRANCH  10  26
TORSDOF 6
ENDMDL
