MODEL 1
REMARK VINA RESULT:      -5.8      0.000      0.000
REMARK  Name = 53393127
REMARK  5 active torsions:
REMARK  status: ('A' for Active; 'I' for Inactive)
REMARK    1  A    between atoms: C_3  and  C_21
REMARK    2  A    between atoms: C_8  and  C_14
REMARK    3  A    between atoms: C_17  and  S_18
REMARK    4  A    between atoms: C_21  and  O_22
REMARK    5  A    between atoms: O_22  and  C_23
REMARK                            x       y       z     vdW  Elec       q    Type
REMARK                         _______ _______ _______ _____ _____    ______ ____
ROOT
ATOM      1  O   UNL     1     -38.441  26.971   1.903  0.00  0.00    -0.269 OA
ATOM      2  N   UNL     1     -37.074  25.229   2.674  0.00  0.00    -0.263 N 
ATOM      3  C   UNL     1     -36.480  26.041   3.736  0.00  0.00    +0.179 C 
ATOM      4  C   UNL     1     -36.430  25.311   5.074  0.00  0.00    +0.057 C 
ATOM      5  C   UNL     1     -36.562  23.859   2.496  0.00  0.00    +0.121 C 
ATOM      6  C   UNL     1     -35.939  23.893   4.960  0.00  0.00    -0.022 C 
ATOM      7  C   UNL     1     -36.025  23.203   3.742  0.00  0.00    -0.006 C 
ATOM      8  C   UNL     1     -37.987  25.834   1.795  0.00  0.00    +0.256 C 
ATOM      9  C   UNL     1     -35.439  23.237   6.095  0.00  0.00    -0.004 C 
ATOM     10  C   UNL     1     -35.582  21.874   3.672  0.00  0.00    -0.003 C 
ATOM     11  C   UNL     1     -35.005  21.915   6.014  0.00  0.00    -0.000 C 
ATOM     12  C   UNL     1     -35.075  21.234   4.802  0.00  0.00    -0.000 C 
ENDROOT
BRANCH   8  14
ATOM     13  S   UNL     1     -39.885  24.135   0.771  0.00  0.00    -0.076 S 
ATOM     14  C   UNL     1     -38.450  25.057   0.636  0.00  0.00    +0.083 C 
ATOM     15  C   UNL     1     -37.880  24.946  -0.614  0.00  0.00    +0.012 C 
ATOM     16  C   UNL     1     -38.633  24.094  -1.471  0.00  0.00    +0.013 C 
ATOM     17  C   UNL     1     -39.750  23.585  -0.845  0.00  0.00    +0.055 C 
BRANCH  17  18
ATOM     18  S   UNL     1     -40.927  22.499  -1.558  0.00  0.00    -0.106 S 
ATOM     19  C   UNL     1     -40.623  20.941  -0.666  0.00  0.00    +0.075 C 
ENDBRANCH  17  18
ENDBRANCH   8  14
BRANCH   3  21
ATOM     20  O   UNL     1     -34.591  26.038   2.237  0.00  0.00    -0.248 OA
ATOM     21  C   UNL     1     -35.122  26.466   3.254  0.00  0.00    +0.336 C 
BRANCH  21  22
ATOM     22  O   UNL     1     -34.597  27.383   4.115  0.00  0.00    -0.447 OA
BRANCH  22  23
ATOM     23  C   UNL     1     -33.266  27.112   4.567  0.00  0.00    +0.209 C 
ATOM     24  C   UNL     1     -33.313  26.713   6.027  0.00  0.00    +0.051 C 
ENDBRANCH  22  23
ENDBRANCH  21  22
ENDBRANCH   3  21
TORSDOF 5
ENDMDL
MODEL 2
REMARK VINA RESULT:      -5.6      3.716      5.258
REMARK  Name = 53393127
REMARK  5 active torsions:
REMARK  status: ('A' for Active; 'I' for Inactive)
REMARK    1  A    between atoms: C_3  and  C_21
REMARK    2  A    between atoms: C_8  and  C_14
REMARK    3  A    between atoms: C_17  and  S_18
REMARK    4  A    between atoms: C_21  and  O_22
REMARK    5  A    between atoms: O_22  and  C_23
REMARK                            x       y       z     vdW  Elec       q    Type
REMARK                         _______ _______ _______ _____ _____    ______ ____
ROOT
ATOM      1  O   UNL     1     -35.961  20.052   2.558  0.00  0.00    -0.269 OA
ATOM      2  N   UNL     1     -35.362  22.313   2.726  0.00  0.00    -0.263 N 
ATOM      3  C   UNL     1     -36.258  22.561   3.856  0.00  0.00    +0.179 C 
ATOM      4  C   UNL     1     -35.585  23.350   4.975  0.00  0.00    +0.057 C 
ATOM      5  C   UNL     1     -34.624  23.463   2.175  0.00  0.00    +0.121 C 
ATOM      6  C   UNL     1     -34.790  24.526   4.477  0.00  0.00    -0.022 C 
ATOM      7  C   UNL     1     -34.318  24.564   3.157  0.00  0.00    -0.006 C 
ATOM      8  C   UNL     1     -35.361  21.039   2.135  0.00  0.00    +0.256 C 
ATOM      9  C   UNL     1     -34.472  25.572   5.357  0.00  0.00    -0.004 C 
ATOM     10  C   UNL     1     -33.558  25.663   2.729  0.00  0.00    -0.003 C 
ATOM     11  C   UNL     1     -33.713  26.657   4.922  0.00  0.00    -0.000 C 
ATOM     12  C   UNL     1     -33.258  26.703   3.607  0.00  0.00    -0.000 C 
ENDROOT
BRANCH   8  14
ATOM     13  S   UNL     1     -35.283  21.280  -0.599  0.00  0.00    -0.076 S 
ATOM     14  C   UNL     1     -34.584  20.848   0.902  0.00  0.00    +0.083 C 
ATOM     15  C   UNL     1     -33.309  20.348   0.754  0.00  0.00    +0.012 C 
ATOM     16  C   UNL     1     -32.900  20.320  -0.610  0.00  0.00    +0.013 C 
ATOM     17  C   UNL     1     -33.879  20.800  -1.453  0.00  0.00    +0.055 C 
BRANCH  17  18
ATOM     18  S   UNL     1     -33.765  20.927  -3.198  0.00  0.00    -0.106 S 
ATOM     19  C   UNL     1     -32.062  21.523  -3.444  0.00  0.00    +0.075 C 
ENDBRANCH  17  18
ENDBRANCH   8  14
BRANCH   3  21
ATOM     20  O   UNL     1     -38.147  22.822   2.380  0.00  0.00    -0.248 OA
ATOM     21  C   UNL     1     -37.474  23.253   3.307  0.00  0.00    +0.336 C 
BRANCH  21  22
ATOM     22  O   UNL     1     -37.693  24.408   3.997  0.00  0.00    -0.447 OA
BRANCH  22  23
ATOM     23  C   UNL     1     -38.401  25.426   3.282  0.00  0.00    +0.209 C 
ATOM     24  C   UNL     1     -37.407  26.265   2.506  0.00  0.00    +0.051 C 
ENDBRANCH  22  23
ENDBRANCH  21  22
ENDBRANCH   3  21
TORSDOF 5
ENDMDL
MODEL 3
REMARK VINA RESULT:      -5.5      3.160      4.691
REMARK  Name = 53393127
REMARK  5 active torsions:
REMARK  status: ('A' for Active; 'I' for Inactive)
REMARK    1  A    between atoms: C_3  and  C_21
REMARK    2  A    between atoms: C_8  and  C_14
REMARK    3  A    between atoms: C_17  and  S_18
REMARK    4  A    between atoms: C_21  and  O_22
REMARK    5  A    between atoms: O_22  and  C_23
REMARK                            x       y       z     vdW  Elec       q    Type
REMARK                         _______ _______ _______ _____ _____    ______ ____
ROOT
ATOM      1  O   UNL     1     -38.761  26.617   2.479  0.00  0.00    -0.269 OA
ATOM      2  N   UNL     1     -37.021  25.078   2.164  0.00  0.00    -0.263 N 
ATOM      3  C   UNL     1     -37.411  24.261   3.313  0.00  0.00    +0.179 C 
ATOM      4  C   UNL     1     -37.425  22.769   2.994  0.00  0.00    +0.057 C 
ATOM      5  C   UNL     1     -35.797  24.694   1.438  0.00  0.00    +0.121 C 
ATOM      6  C   UNL     1     -36.212  22.314   2.228  0.00  0.00    -0.022 C 
ATOM      7  C   UNL     1     -35.459  23.226   1.475  0.00  0.00    -0.006 C 
ATOM      8  C   UNL     1     -37.737  26.256   1.901  0.00  0.00    +0.256 C 
ATOM      9  C   UNL     1     -35.862  20.955   2.225  0.00  0.00    -0.004 C 
ATOM     10  C   UNL     1     -34.348  22.768   0.751  0.00  0.00    -0.003 C 
ATOM     11  C   UNL     1     -34.758  20.511   1.499  0.00  0.00    -0.000 C 
ATOM     12  C   UNL     1     -33.999  21.418   0.764  0.00  0.00    -0.000 C 
ENDROOT
BRANCH   8  14
ATOM     13  S   UNL     1     -36.201  28.445   1.279  0.00  0.00    -0.076 S 
ATOM     14  C   UNL     1     -37.236  27.152   0.849  0.00  0.00    +0.083 C 
ATOM     15  C   UNL     1     -37.480  27.113  -0.506  0.00  0.00    +0.012 C 
ATOM     16  C   UNL     1     -36.808  28.160  -1.201  0.00  0.00    +0.013 C 
ATOM     17  C   UNL     1     -36.075  28.959  -0.350  0.00  0.00    +0.055 C 
BRANCH  17  18
ATOM     18  S   UNL     1     -35.112  30.348  -0.814  0.00  0.00    -0.106 S 
ATOM     19  C   UNL     1     -35.863  31.694   0.156  0.00  0.00    +0.075 C 
ENDBRANCH  17  18
ENDBRANCH   8  14
BRANCH   3  21
ATOM     20  O   UNL     1     -35.884  25.675   4.530  0.00  0.00    -0.248 OA
ATOM     21  C   UNL     1     -36.473  24.607   4.435  0.00  0.00    +0.336 C 
BRANCH  21  22
ATOM     22  O   UNL     1     -36.394  23.560   5.305  0.00  0.00    -0.447 OA
BRANCH  22  23
ATOM     23  C   UNL     1     -35.069  23.166   5.674  0.00  0.00    +0.209 C 
ATOM     24  C   UNL     1     -35.067  21.685   5.991  0.00  0.00    +0.051 C 
ENDBRANCH  22  23
ENDBRANCH  21  22
ENDBRANCH   3  21
TORSDOF 5
ENDMDL
MODEL 4
REMARK VINA RESULT:      -5.5      4.471      7.702
REMARK  Name = 53393127
REMARK  5 active torsions:
REMARK  status: ('A' for Active; 'I' for Inactive)
REMARK    1  A    between atoms: C_3  and  C_21
REMARK    2  A    between atoms: C_8  and  C_14
REMARK    3  A    between atoms: C_17  and  S_18
REMARK    4  A    between atoms: C_21  and  O_22
REMARK    5  A    between atoms: O_22  and  C_23
REMARK                            x       y       z     vdW  Elec       q    Type
REMARK                         _______ _______ _______ _____ _____    ______ ____
ROOT
ATOM      1  O   UNL     1     -31.814  28.686   1.973  0.00  0.00    -0.269 OA
ATOM      2  N   UNL     1     -33.204  27.214   3.157  0.00  0.00    -0.263 N 
ATOM      3  C   UNL     1     -33.899  26.755   1.954  0.00  0.00    +0.179 C 
ATOM      4  C   UNL     1     -34.042  25.237   1.904  0.00  0.00    +0.057 C 
ATOM      5  C   UNL     1     -33.674  26.697   4.455  0.00  0.00    +0.121 C 
ATOM      6  C   UNL     1     -34.494  24.640   3.209  0.00  0.00    -0.022 C 
ATOM      7  C   UNL     1     -34.297  25.326   4.416  0.00  0.00    -0.006 C 
ATOM      8  C   UNL     1     -32.236  28.224   3.032  0.00  0.00    +0.256 C 
ATOM      9  C   UNL     1     -35.072  23.361   3.225  0.00  0.00    -0.004 C 
ATOM     10  C   UNL     1     -34.706  24.733   5.619  0.00  0.00    -0.003 C 
ATOM     11  C   UNL     1     -35.472  22.780   4.427  0.00  0.00    -0.000 C 
ATOM     12  C   UNL     1     -35.291  23.467   5.624  0.00  0.00    -0.000 C 
ENDROOT
BRANCH   8  14
ATOM     13  S   UNL     1     -30.095  28.316   4.749  0.00  0.00    -0.076 S 
ATOM     14  C   UNL     1     -31.665  28.792   4.262  0.00  0.00    +0.083 C 
ATOM     15  C   UNL     1     -32.225  29.699   5.134  0.00  0.00    +0.012 C 
ATOM     16  C   UNL     1     -31.353  30.008   6.217  0.00  0.00    +0.013 C 
ATOM     17  C   UNL     1     -30.159  29.325   6.131  0.00  0.00    +0.055 C 
BRANCH  17  18
ATOM     18  S   UNL     1     -28.827  29.430   7.266  0.00  0.00    -0.106 S 
ATOM     19  C   UNL     1     -28.064  27.781   7.137  0.00  0.00    +0.075 C 
ENDBRANCH  17  18
ENDBRANCH   8  14
BRANCH   3  21
ATOM     20  O   UNL     1     -35.414  28.581   2.379  0.00  0.00    -0.248 OA
ATOM     21  C   UNL     1     -35.221  27.466   1.913  0.00  0.00    +0.336 C 
BRANCH  21  22
ATOM     22  O   UNL     1     -36.143  26.682   1.286  0.00  0.00    -0.447 OA
BRANCH  22  23
ATOM     23  C   UNL     1     -37.503  26.900   1.674  0.00  0.00    +0.209 C 
ATOM     24  C   UNL     1     -37.856  25.944   2.794  0.00  0.00    +0.051 C 
ENDBRANCH  22  23
ENDBRANCH  21  22
ENDBRANCH   3  21
TORSDOF 5
ENDMDL
MODEL 5
REMARK VINA RESULT:      -5.4      3.493      6.458
REMARK  Name = 53393127
REMARK  5 active torsions:
REMARK  status: ('A' for Active; 'I' for Inactive)
REMARK    1  A    between atoms: C_3  and  C_21
REMARK    2  A    between atoms: C_8  and  C_14
REMARK    3  A    between atoms: C_17  and  S_18
REMARK    4  A    between atoms: C_21  and  O_22
REMARK    5  A    between atoms: O_22  and  C_23
REMARK                            x       y       z     vdW  Elec       q    Type
REMARK                         _______ _______ _______ _____ _____    ______ ____
ROOT
ATOM      1  O   UNL     1     -34.358  26.485   0.362  0.00  0.00    -0.269 OA
ATOM      2  N   UNL     1     -34.944  25.326   2.315  0.00  0.00    -0.263 N 
ATOM      3  C   UNL     1     -35.643  24.267   1.587  0.00  0.00    +0.179 C 
ATOM      4  C   UNL     1     -35.275  22.873   2.086  0.00  0.00    +0.057 C 
ATOM      5  C   UNL     1     -34.979  25.280   3.788  0.00  0.00    +0.121 C 
ATOM      6  C   UNL     1     -35.265  22.762   3.587  0.00  0.00    -0.022 C 
ATOM      7  C   UNL     1     -35.102  23.902   4.387  0.00  0.00    -0.006 C 
ATOM      8  C   UNL     1     -34.408  26.402   1.588  0.00  0.00    +0.256 C 
ATOM      9  C   UNL     1     -35.368  21.500   4.191  0.00  0.00    -0.004 C 
ATOM     10  C   UNL     1     -35.072  23.765   5.782  0.00  0.00    -0.003 C 
ATOM     11  C   UNL     1     -35.333  21.375   5.579  0.00  0.00    -0.000 C 
ATOM     12  C   UNL     1     -35.188  22.508   6.375  0.00  0.00    -0.000 C 
ENDROOT
BRANCH   8  14
ATOM     13  S   UNL     1     -32.238  27.466   2.890  0.00  0.00    -0.076 S 
ATOM     14  C   UNL     1     -33.856  27.539   2.339  0.00  0.00    +0.083 C 
ATOM     15  C   UNL     1     -34.470  28.721   2.691  0.00  0.00    +0.012 C 
ATOM     16  C   UNL     1     -33.599  29.579   3.421  0.00  0.00    +0.013 C 
ATOM     17  C   UNL     1     -32.352  29.020   3.601  0.00  0.00    +0.055 C 
BRANCH  17  18
ATOM     18  S   UNL     1     -31.004  29.755   4.446  0.00  0.00    -0.106 S 
ATOM     19  C   UNL     1     -31.813  30.548   5.872  0.00  0.00    +0.075 C 
ENDBRANCH  17  18
ENDBRANCH   8  14
BRANCH   3  21
ATOM     20  O   UNL     1     -37.576  25.649   1.990  0.00  0.00    -0.248 OA
ATOM     21  C   UNL     1     -37.113  24.555   1.698  0.00  0.00    +0.336 C 
BRANCH  21  22
ATOM     22  O   UNL     1     -37.823  23.424   1.425  0.00  0.00    -0.447 OA
BRANCH  22  23
ATOM     23  C   UNL     1     -38.971  23.203   2.250  0.00  0.00    +0.209 C 
ATOM     24  C   UNL     1     -39.456  21.783   2.050  0.00  0.00    +0.051 C 
ENDBRANCH  22  23
ENDBRANCH  21  22
ENDBRANCH   3  21
TORSDOF 5
ENDMDL
MODEL 6
REMARK VINA RESULT:      -5.4      3.916      5.607
REMARK  Name = 53393127
REMARK  5 active torsions:
REMARK  status: ('A' for Active; 'I' for Inactive)
REMARK    1  A    between atoms: C_3  and  C_21
REMARK    2  A    between atoms: C_8  and  C_14
REMARK    3  A    between atoms: C_17  and  S_18
REMARK    4  A    between atoms: C_21  and  O_22
REMARK    5  A    between atoms: O_22  and  C_23
REMARK                            x       y       z     vdW  Elec       q    Type
REMARK                         _______ _______ _______ _____ _____    ______ ____
ROOT
ATOM      1  O   UNL     1     -36.905  20.879   0.342  0.00  0.00    -0.269 OA
ATOM      2  N   UNL     1     -36.016  22.573   1.698  0.00  0.00    -0.263 N 
ATOM      3  C   UNL     1     -37.240  23.374   1.661  0.00  0.00    +0.179 C 
ATOM      4  C   UNL     1     -37.648  23.886   3.039  0.00  0.00    +0.057 C 
ATOM      5  C   UNL     1     -34.852  23.139   2.404  0.00  0.00    +0.121 C 
ATOM      6  C   UNL     1     -36.498  24.455   3.825  0.00  0.00    -0.022 C 
ATOM      7  C   UNL     1     -35.178  24.080   3.535  0.00  0.00    -0.006 C 
ATOM      8  C   UNL     1     -35.962  21.389   0.946  0.00  0.00    +0.256 C 
ATOM      9  C   UNL     1     -36.752  25.328   4.894  0.00  0.00    -0.004 C 
ATOM     10  C   UNL     1     -34.129  24.608   4.301  0.00  0.00    -0.003 C 
ATOM     11  C   UNL     1     -35.702  25.843   5.652  0.00  0.00    -0.000 C 
ATOM     12  C   UNL     1     -34.390  25.485   5.354  0.00  0.00    -0.000 C 
ENDROOT
BRANCH   8  14
ATOM     13  S   UNL     1     -33.486  21.250  -0.231  0.00  0.00    -0.076 S 
ATOM     14  C   UNL     1     -34.677  20.681   0.859  0.00  0.00    +0.083 C 
ATOM     15  C   UNL     1     -34.254  19.570   1.555  0.00  0.00    +0.012 C 
ATOM     16  C   UNL     1     -32.933  19.180   1.188  0.00  0.00    +0.013 C 
ATOM     17  C   UNL     1     -32.397  20.009   0.226  0.00  0.00    +0.055 C 
BRANCH  17  18
ATOM     18  S   UNL     1     -30.802  19.864  -0.487  0.00  0.00    -0.106 S 
ATOM     19  C   UNL     1     -30.131  18.386   0.337  0.00  0.00    +0.075 C 
ENDBRANCH  17  18
ENDBRANCH   8  14
BRANCH   3  21
ATOM     20  O   UNL     1     -36.220  24.414  -0.260  0.00  0.00    -0.248 OA
ATOM     21  C   UNL     1     -37.009  24.482   0.673  0.00  0.00    +0.336 C 
BRANCH  21  22
ATOM     22  O   UNL     1     -37.804  25.545   0.984  0.00  0.00    -0.447 OA
BRANCH  22  23
ATOM     23  C   UNL     1     -37.291  26.827   0.611  0.00  0.00    +0.209 C 
ATOM     24  C   UNL     1     -36.438  27.364   1.741  0.00  0.00    +0.051 C 
ENDBRANCH  22  23
ENDBRANCH  21  22
ENDBRANCH   3  21
TORSDOF 5
ENDMDL
MODEL 7
REMARK VINA RESULT:      -5.4      3.626      6.609
REMARK  Name = 53393127
REMARK  5 active torsions:
REMARK  status: ('A' for Active; 'I' for Inactive)
REMARK    1  A    between atoms: C_3  and  C_21
REMARK    2  A    between atoms: C_8  and  C_14
REMARK    3  A    between atoms: C_17  and  S_18
REMARK    4  A    between atoms: C_21  and  O_22
REMARK    5  A    between atoms: O_22  and  C_23
REMARK                            x       y       z     vdW  Elec       q    Type
REMARK                         _______ _______ _______ _____ _____    ______ ____
ROOT
ATOM      1  O   UNL     1     -34.632  28.001   0.521  0.00  0.00    -0.269 OA
ATOM      2  N   UNL     1     -35.178  26.605   2.324  0.00  0.00    -0.263 N 
ATOM      3  C   UNL     1     -35.888  25.641   1.483  0.00  0.00    +0.179 C 
ATOM      4  C   UNL     1     -35.508  24.198   1.796  0.00  0.00    +0.057 C 
ATOM      5  C   UNL     1     -35.185  26.374   3.780  0.00  0.00    +0.121 C 
ATOM      6  C   UNL     1     -35.470  23.901   3.271  0.00  0.00    -0.022 C 
ATOM      7  C   UNL     1     -35.294  24.932   4.204  0.00  0.00    -0.006 C 
ATOM      8  C   UNL     1     -34.659  27.765   1.728  0.00  0.00    +0.256 C 
ATOM      9  C   UNL     1     -35.558  22.572   3.714  0.00  0.00    -0.004 C 
ATOM     10  C   UNL     1     -35.237  24.622   5.570  0.00  0.00    -0.003 C 
ATOM     11  C   UNL     1     -35.497  22.275   5.075  0.00  0.00    -0.000 C 
ATOM     12  C   UNL     1     -35.339  23.300   6.003  0.00  0.00    -0.000 C 
ENDROOT
BRANCH   8  14
ATOM     13  S   UNL     1     -32.567  28.539   3.329  0.00  0.00    -0.076 S 
ATOM     14  C   UNL     1     -34.095  28.802   2.605  0.00  0.00    +0.083 C 
ATOM     15  C   UNL     1     -34.631  30.021   2.956  0.00  0.00    +0.012 C 
ATOM     16  C   UNL     1     -33.776  30.749   3.832  0.00  0.00    +0.013 C 
ATOM     17  C   UNL     1     -32.617  30.059   4.117  0.00  0.00    +0.055 C 
BRANCH  17  18
ATOM     18  S   UNL     1     -31.316  30.611   5.153  0.00  0.00    -0.106 S 
ATOM     19  C   UNL     1     -31.516  29.570   6.633  0.00  0.00    +0.075 C 
ENDBRANCH  17  18
ENDBRANCH   8  14
BRANCH   3  21
ATOM     20  O   UNL     1     -37.830  27.011   1.891  0.00  0.00    -0.248 OA
ATOM     21  C   UNL     1     -37.357  25.907   1.656  0.00  0.00    +0.336 C 
BRANCH  21  22
ATOM     22  O   UNL     1     -38.052  24.744   1.510  0.00  0.00    -0.447 OA
BRANCH  22  23
ATOM     23  C   UNL     1     -39.118  24.542   2.443  0.00  0.00    +0.209 C 
ATOM     24  C   UNL     1     -39.686  23.152   2.250  0.00  0.00    +0.051 C 
ENDBRANCH  22  23
ENDBRANCH  21  22
ENDBRANCH   3  21
TORSDOF 5
ENDMDL
MODEL 8
REMARK VINA RESULT:      -5.4      3.627      5.365
REMARK  Name = 53393127
REMARK  5 active torsions:
REMARK  status: ('A' for Active; 'I' for Inactive)
REMARK    1  A    between atoms: C_3  and  C_21
REMARK    2  A    between atoms: C_8  and  C_14
REMARK    3  A    between atoms: C_17  and  S_18
REMARK    4  A    between atoms: C_21  and  O_22
REMARK    5  A    between atoms: O_22  and  C_23
REMARK                            x       y       z     vdW  Elec       q    Type
REMARK                         _______ _______ _______ _____ _____    ______ ____
ROOT
ATOM      1  O   UNL     1     -35.441  20.605   4.173  0.00  0.00    -0.269 OA
ATOM      2  N   UNL     1     -35.118  22.473   2.793  0.00  0.00    -0.263 N 
ATOM      3  C   UNL     1     -35.437  23.428   3.855  0.00  0.00    +0.179 C 
ATOM      4  C   UNL     1     -34.438  24.579   3.927  0.00  0.00    +0.057 C 
ATOM      5  C   UNL     1     -34.853  23.012   1.448  0.00  0.00    +0.121 C 
ATOM      6  C   UNL     1     -34.103  25.160   2.580  0.00  0.00    -0.022 C 
ATOM      7  C   UNL     1     -34.280  24.405   1.412  0.00  0.00    -0.006 C 
ATOM      8  C   UNL     1     -35.222  21.100   3.069  0.00  0.00    +0.256 C 
ATOM      9  C   UNL     1     -33.558  26.451   2.497  0.00  0.00    -0.004 C 
ATOM     10  C   UNL     1     -33.935  24.965   0.173  0.00  0.00    -0.003 C 
ATOM     11  C   UNL     1     -33.215  26.995   1.260  0.00  0.00    -0.000 C 
ATOM     12  C   UNL     1     -33.406  26.253   0.098  0.00  0.00    -0.000 C 
ENDROOT
BRANCH   8  14
ATOM     13  S   UNL     1     -36.422  19.761   0.994  0.00  0.00    -0.076 S 
ATOM     14  C   UNL     1     -35.061  20.156   1.954  0.00  0.00    +0.083 C 
ATOM     15  C   UNL     1     -33.925  19.500   1.535  0.00  0.00    +0.012 C 
ATOM     16  C   UNL     1     -34.174  18.663   0.410  0.00  0.00    +0.013 C 
ATOM     17  C   UNL     1     -35.492  18.711   0.012  0.00  0.00    +0.055 C 
BRANCH  17  18
ATOM     18  S   UNL     1     -36.197  17.826  -1.328  0.00  0.00    -0.106 S 
ATOM     19  C   UNL     1     -36.166  16.107  -0.730  0.00  0.00    +0.075 C 
ENDBRANCH  17  18
ENDBRANCH   8  14
BRANCH   3  21
ATOM     20  O   UNL     1     -37.759  23.159   3.267  0.00  0.00    -0.248 OA
ATOM     21  C   UNL     1     -36.845  23.894   3.616  0.00  0.00    +0.336 C 
BRANCH  21  22
ATOM     22  O   UNL     1     -36.929  25.235   3.849  0.00  0.00    -0.447 OA
BRANCH  22  23
ATOM     23  C   UNL     1     -37.978  25.915   3.154  0.00  0.00    +0.209 C 
ATOM     24  C   UNL     1     -37.437  26.444   1.841  0.00  0.00    +0.051 C 
ENDBRANCH  22  23
ENDBRANCH  21  22
ENDBRANCH   3  21
TORSDOF 5
ENDMDL
MODEL 9
REMARK VINA RESULT:      -5.3      2.601      2.816
REMARK  Name = 53393127
REMARK  5 active torsions:
REMARK  status: ('A' for Active; 'I' for Inactive)
REMARK    1  A    between atoms: C_3  and  C_21
REMARK    2  A    between atoms: C_8  and  C_14
REMARK    3  A    between atoms: C_17  and  S_18
REMARK    4  A    between atoms: C_21  and  O_22
REMARK    5  A    between atoms: O_22  and  C_23
REMARK                            x       y       z     vdW  Elec       q    Type
REMARK                         _______ _______ _______ _____ _____    ______ ____
ROOT
ATOM      1  O   UNL     1     -35.872  28.199   2.455  0.00  0.00    -0.269 OA
ATOM      2  N   UNL     1     -35.371  25.997   3.084  0.00  0.00    -0.263 N 
ATOM      3  C   UNL     1     -34.805  26.395   4.373  0.00  0.00    +0.179 C 
ATOM      4  C   UNL     1     -35.308  25.531   5.525  0.00  0.00    +0.057 C 
ATOM      5  C   UNL     1     -35.310  24.569   2.723  0.00  0.00    +0.121 C 
ATOM      6  C   UNL     1     -35.297  24.059   5.213  0.00  0.00    -0.022 C 
ATOM      7  C   UNL     1     -35.321  23.610   3.886  0.00  0.00    -0.006 C 
ATOM      8  C   UNL     1     -35.804  26.998   2.200  0.00  0.00    +0.256 C 
ATOM      9  C   UNL     1     -35.317  23.127   6.262  0.00  0.00    -0.004 C 
ATOM     10  C   UNL     1     -35.335  22.231   3.627  0.00  0.00    -0.003 C 
ATOM     11  C   UNL     1     -35.335  21.759   5.993  0.00  0.00    -0.000 C 
ATOM     12  C   UNL     1     -35.341  21.311   4.675  0.00  0.00    -0.000 C 
ENDROOT
BRANCH   8  14
ATOM     13  S   UNL     1     -35.053  26.593  -0.410  0.00  0.00    -0.076 S 
ATOM     14  C   UNL     1     -36.215  26.598   0.847  0.00  0.00    +0.083 C 
ATOM     15  C   UNL     1     -37.458  26.203   0.404  0.00  0.00    +0.012 C 
ATOM     16  C   UNL     1     -37.457  25.892  -0.987  0.00  0.00    +0.013 C 
ATOM     17  C   UNL     1     -36.211  26.061  -1.553  0.00  0.00    +0.055 C 
BRANCH  17  18
ATOM     18  S   UNL     1     -35.797  25.784  -3.234  0.00  0.00    -0.106 S 
ATOM     19  C   UNL     1     -36.955  24.464  -3.717  0.00  0.00    +0.075 C 
ENDBRANCH  17  18
ENDBRANCH   8  14
BRANCH   3  21
ATOM     20  O   UNL     1     -32.730  25.905   3.248  0.00  0.00    -0.248 OA
ATOM     21  C   UNL     1     -33.310  26.355   4.226  0.00  0.00    +0.336 C 
BRANCH  21  22
ATOM     22  O   UNL     1     -32.728  26.893   5.335  0.00  0.00    -0.447 OA
BRANCH  22  23
ATOM     23  C   UNL     1     -32.257  28.236   5.194  0.00  0.00    +0.209 C 
ATOM     24  C   UNL     1     -31.811  28.747   6.548  0.00  0.00    +0.051 C 
ENDBRANCH  22  23
ENDBRANCH  21  22
ENDBRANCH   3  21
TORSDOF 5
ENDMDL
