MODEL 1
REMARK VINA RESULT:      -6.9      0.000      0.000
REMARK  Name = 5489185
REMARK  9 active torsions:
REMARK  status: ('A' for Active; 'I' for Inactive)
REMARK    1  A    between atoms: N_1  and  C_34
REMARK    2  A    between atoms: C_14  and  O_17
REMARK    3  A    between atoms: O_17  and  C_19
REMARK    4  A    between atoms: C_20  and  O_24
REMARK    5  A    between atoms: C_21  and  O_26
REMARK    6  A    between atoms: C_22  and  O_28
REMARK    7  A    between atoms: C_23  and  C_31
REMARK    8  A    between atoms: C_31  and  O_32
REMARK    9  A    between atoms: C_34  and  C_35
REMARK                            x       y       z     vdW  Elec       q    Type
REMARK                         _______ _______ _______ _____ _____    ______ ____
ROOT
ATOM      1  N   UNL     1     -33.631  26.997   3.856  0.00  0.00    +0.391 N 
ATOM      2  C   UNL     1     -35.301  25.199   2.254  0.00  0.00    +0.015 C 
ATOM      3  C   UNL     1     -35.895  26.420   3.030  0.00  0.00    -0.015 C 
ATOM      4  C   UNL     1     -35.010  26.673   4.272  0.00  0.00    -0.053 C 
ATOM      5  C   UNL     1     -33.826  25.500   1.879  0.00  0.00    -0.019 C 
ATOM      6  C   UNL     1     -35.309  23.962   3.181  0.00  0.00    -0.024 C 
ATOM      7  C   UNL     1     -35.174  25.481   5.238  0.00  0.00    +0.005 C 
ATOM      8  C   UNL     1     -32.976  25.944   3.078  0.00  0.00    -0.076 C 
ATOM      9  C   UNL     1     -35.226  24.122   4.582  0.00  0.00    -0.028 C 
ATOM     10  C   UNL     1     -36.109  24.955   0.961  0.00  0.00    +0.004 C 
ATOM     11  C   UNL     1     -36.057  27.711   2.208  0.00  0.00    -0.002 C 
ATOM     12  C   UNL     1     -35.331  22.653   2.665  0.00  0.00    +0.032 C 
ATOM     13  C   UNL     1     -35.215  22.992   5.419  0.00  0.00    -0.002 C 
ATOM     14  C   UNL     1     -35.311  21.539   3.508  0.00  0.00    +0.141 C 
ATOM     15  C   UNL     1     -35.259  21.707   4.884  0.00  0.00    +0.037 C 
ATOM     16  H   UNL     1     -33.748  27.788   3.223  0.00  0.00    -0.079 HD
ENDROOT
BRANCH  14  17
ATOM     17  O   UNL     1     -35.339  20.285   2.977  0.00  0.00    -0.451 OA
BRANCH  17  19
ATOM     18  O   UNL     1     -36.835  19.836   1.244  0.00  0.00    -0.307 OA
ATOM     19  C   UNL     1     -35.490  20.183   1.561  0.00  0.00    +0.318 C 
ATOM     20  C   UNL     1     -34.529  19.104   1.062  0.00  0.00    +0.210 C 
ATOM     21  C   UNL     1     -34.725  18.835  -0.430  0.00  0.00    +0.173 C 
ATOM     22  C   UNL     1     -36.202  18.633  -0.771  0.00  0.00    +0.178 C 
ATOM     23  C   UNL     1     -37.053  19.739  -0.159  0.00  0.00    +0.246 C 
BRANCH  20  24
ATOM     24  O   UNL     1     -33.193  19.552   1.291  0.00  0.00    -0.377 OA
ATOM     25  H   UNL     1     -32.570  18.857   1.026  0.00  0.00    +0.211 HD
ENDBRANCH  20  24
BRANCH  21  26
ATOM     26  O   UNL     1     -34.021  17.648  -0.798  0.00  0.00    -0.379 OA
ATOM     27  H   UNL     1     -34.432  16.882  -0.367  0.00  0.00    +0.211 HD
ENDBRANCH  21  26
BRANCH  22  28
ATOM     28  O   UNL     1     -36.361  18.665  -2.189  0.00  0.00    -0.379 OA
ATOM     29  H   UNL     1     -36.594  17.779  -2.508  0.00  0.00    +0.211 HD
ENDBRANCH  22  28
BRANCH  23  31
ATOM     30  O   UNL     1     -38.974  18.457  -0.862  0.00  0.00    -0.247 OA
ATOM     31  C   UNL     1     -38.508  19.411  -0.258  0.00  0.00    +0.344 C 
BRANCH  31  32
ATOM     32  O   UNL     1     -39.250  20.325   0.415  0.00  0.00    -0.478 OA
ATOM     33  H   UNL     1     -38.874  20.800   1.129  0.00  0.00    +0.295 HD
ENDBRANCH  31  32
ENDBRANCH  23  31
ENDBRANCH  17  19
ENDBRANCH  14  17
BRANCH   1  34
ATOM     34  C   UNL     1     -32.784  27.446   4.957  0.00  0.00    -0.051 C 
BRANCH  34  35
ATOM     35  C   UNL     1     -32.221  28.812   4.692  0.00  0.00    -0.058 C 
ATOM     36  C   UNL     1     -31.743  29.704   5.580  0.00  0.00    -0.050 C 
ATOM     37  C   UNL     1     -31.191  31.061   5.245  0.00  0.00    +0.026 C 
ATOM     38  C   UNL     1     -31.733  29.381   7.052  0.00  0.00    +0.026 C 
ENDBRANCH  34  35
ENDBRANCH   1  34
TORSDOF 9
ENDMDL
MODEL 2
REMARK VINA RESULT:      -6.9      4.386      9.221
REMARK  Name = 5489185
REMARK  9 active torsions:
REMARK  status: ('A' for Active; 'I' for Inactive)
REMARK    1  A    between atoms: N_1  and  C_34
REMARK    2  A    between atoms: C_14  and  O_17
REMARK    3  A    between atoms: O_17  and  C_19
REMARK    4  A    between atoms: C_20  and  O_24
REMARK    5  A    between atoms: C_21  and  O_26
REMARK    6  A    between atoms: C_22  and  O_28
REMARK    7  A    between atoms: C_23  and  C_31
REMARK    8  A    between atoms: C_31  and  O_32
REMARK    9  A    between atoms: C_34  and  C_35
REMARK                            x       y       z     vdW  Elec       q    Type
REMARK                         _______ _______ _______ _____ _____    ______ ____
ROOT
ATOM      1  N   UNL     1     -29.696  17.761  -1.717  0.00  0.00    +0.391 N 
ATOM      2  C   UNL     1     -30.659  20.428  -0.978  0.00  0.00    +0.015 C 
ATOM      3  C   UNL     1     -29.328  19.835  -0.410  0.00  0.00    -0.015 C 
ATOM      4  C   UNL     1     -29.475  18.297  -0.358  0.00  0.00    -0.053 C 
ATOM      5  C   UNL     1     -30.939  19.812  -2.374  0.00  0.00    -0.019 C 
ATOM      6  C   UNL     1     -31.825  20.031  -0.045  0.00  0.00    -0.024 C 
ATOM      7  C   UNL     1     -30.541  17.946   0.700  0.00  0.00    +0.005 C 
ATOM      8  C   UNL     1     -30.895  18.278  -2.378  0.00  0.00    -0.076 C 
ATOM      9  C   UNL     1     -31.754  18.845   0.719  0.00  0.00    -0.028 C 
ATOM     10  C   UNL     1     -30.533  21.961  -1.121  0.00  0.00    +0.004 C 
ATOM     11  C   UNL     1     -28.051  20.232  -1.170  0.00  0.00    -0.002 C 
ATOM     12  C   UNL     1     -33.008  20.791   0.023  0.00  0.00    +0.032 C 
ATOM     13  C   UNL     1     -32.826  18.478   1.551  0.00  0.00    -0.002 C 
ATOM     14  C   UNL     1     -34.070  20.411   0.849  0.00  0.00    +0.141 C 
ATOM     15  C   UNL     1     -33.977  19.259   1.618  0.00  0.00    +0.037 C 
ATOM     16  H   UNL     1     -28.901  18.116  -2.249  0.00  0.00    -0.079 HD
ENDROOT
BRANCH  14  17
ATOM     17  O   UNL     1     -35.198  21.171   0.897  0.00  0.00    -0.451 OA
BRANCH  17  19
ATOM     18  O   UNL     1     -35.381  21.686   3.165  0.00  0.00    -0.307 OA
ATOM     19  C   UNL     1     -35.229  22.228   1.856  0.00  0.00    +0.318 C 
ATOM     20  C   UNL     1     -36.409  23.138   1.517  0.00  0.00    +0.210 C 
ATOM     21  C   UNL     1     -36.595  24.222   2.578  0.00  0.00    +0.173 C 
ATOM     22  C   UNL     1     -36.584  23.631   3.988  0.00  0.00    +0.178 C 
ATOM     23  C   UNL     1     -35.397  22.694   4.171  0.00  0.00    +0.246 C 
BRANCH  20  24
ATOM     24  O   UNL     1     -36.153  23.752   0.253  0.00  0.00    -0.377 OA
ATOM     25  H   UNL     1     -36.859  23.516  -0.369  0.00  0.00    +0.211 HD
ENDBRANCH  20  24
BRANCH  21  26
ATOM     26  O   UNL     1     -37.853  24.872   2.381  0.00  0.00    -0.379 OA
ATOM     27  H   UNL     1     -37.933  25.613   3.001  0.00  0.00    +0.211 HD
ENDBRANCH  21  26
BRANCH  22  28
ATOM     28  O   UNL     1     -36.481  24.690   4.938  0.00  0.00    -0.379 OA
ATOM     29  H   UNL     1     -36.797  25.515   4.538  0.00  0.00    +0.211 HD
ENDBRANCH  22  28
BRANCH  23  31
ATOM     30  O   UNL     1     -35.936  22.355   6.499  0.00  0.00    -0.247 OA
ATOM     31  C   UNL     1     -35.522  21.912   5.438  0.00  0.00    +0.344 C 
BRANCH  31  32
ATOM     32  O   UNL     1     -35.109  20.634   5.254  0.00  0.00    -0.478 OA
ATOM     33  H   UNL     1     -35.553  20.081   4.641  0.00  0.00    +0.295 HD
ENDBRANCH  31  32
ENDBRANCH  23  31
ENDBRANCH  17  19
ENDBRANCH  14  17
BRANCH   1  34
ATOM     34  C   UNL     1     -29.643  16.304  -1.780  0.00  0.00    -0.051 C 
BRANCH  34  35
ATOM     35  C   UNL     1     -31.005  15.715  -2.001  0.00  0.00    -0.058 C 
ATOM     36  C   UNL     1     -31.650  14.799  -1.254  0.00  0.00    -0.050 C 
ATOM     37  C   UNL     1     -33.021  14.250  -1.534  0.00  0.00    +0.026 C 
ATOM     38  C   UNL     1     -31.000  14.231  -0.020  0.00  0.00    +0.026 C 
ENDBRANCH  34  35
ENDBRANCH   1  34
TORSDOF 9
ENDMDL
MODEL 3
REMARK VINA RESULT:      -6.9      5.596      8.836
REMARK  Name = 5489185
REMARK  9 active torsions:
REMARK  status: ('A' for Active; 'I' for Inactive)
REMARK    1  A    between atoms: N_1  and  C_34
REMARK    2  A    between atoms: C_14  and  O_17
REMARK    3  A    between atoms: O_17  and  C_19
REMARK    4  A    between atoms: C_20  and  O_24
REMARK    5  A    between atoms: C_21  and  O_26
REMARK    6  A    between atoms: C_22  and  O_28
REMARK    7  A    between atoms: C_23  and  C_31
REMARK    8  A    between atoms: C_31  and  O_32
REMARK    9  A    between atoms: C_34  and  C_35
REMARK                            x       y       z     vdW  Elec       q    Type
REMARK                         _______ _______ _______ _____ _____    ______ ____
ROOT
ATOM      1  N   UNL     1     -35.053  22.671   2.145  0.00  0.00    +0.391 N 
ATOM      2  C   UNL     1     -36.434  24.499   3.970  0.00  0.00    +0.015 C 
ATOM      3  C   UNL     1     -36.072  23.032   4.375  0.00  0.00    -0.015 C 
ATOM      4  C   UNL     1     -36.070  22.171   3.091  0.00  0.00    -0.053 C 
ATOM      5  C   UNL     1     -35.413  25.007   2.918  0.00  0.00    -0.019 C 
ATOM      6  C   UNL     1     -37.833  24.509   3.314  0.00  0.00    -0.024 C 
ATOM      7  C   UNL     1     -37.516  22.083   2.562  0.00  0.00    +0.005 C 
ATOM      8  C   UNL     1     -35.256  24.058   1.722  0.00  0.00    -0.076 C 
ATOM      9  C   UNL     1     -38.311  23.365   2.637  0.00  0.00    -0.028 C 
ATOM     10  C   UNL     1     -36.374  25.416   5.212  0.00  0.00    +0.004 C 
ATOM     11  C   UNL     1     -34.749  22.865   5.142  0.00  0.00    -0.002 C 
ATOM     12  C   UNL     1     -38.639  25.664   3.310  0.00  0.00    +0.032 C 
ATOM     13  C   UNL     1     -39.576  23.386   2.026  0.00  0.00    -0.002 C 
ATOM     14  C   UNL     1     -39.892  25.674   2.692  0.00  0.00    +0.141 C 
ATOM     15  C   UNL     1     -40.363  24.534   2.055  0.00  0.00    +0.037 C 
ATOM     16  H   UNL     1     -34.190  22.662   2.689  0.00  0.00    -0.079 HD
ENDROOT
BRANCH  14  17
ATOM     17  O   UNL     1     -40.649  26.805   2.711  0.00  0.00    -0.451 OA
BRANCH  17  19
ATOM     18  O   UNL     1     -42.840  26.170   2.224  0.00  0.00    -0.307 OA
ATOM     19  C   UNL     1     -41.974  26.690   3.229  0.00  0.00    +0.318 C 
ATOM     20  C   UNL     1     -42.434  28.083   3.659  0.00  0.00    +0.210 C 
ATOM     21  C   UNL     1     -43.897  28.072   4.101  0.00  0.00    +0.173 C 
ATOM     22  C   UNL     1     -44.782  27.355   3.080  0.00  0.00    +0.178 C 
ATOM     23  C   UNL     1     -44.177  26.013   2.689  0.00  0.00    +0.246 C 
BRANCH  20  24
ATOM     24  O   UNL     1     -41.615  28.510   4.748  0.00  0.00    -0.377 OA
ATOM     25  H   UNL     1     -40.918  27.853   4.903  0.00  0.00    +0.211 HD
ENDBRANCH  20  24
BRANCH  21  26
ATOM     26  O   UNL     1     -44.368  29.414   4.228  0.00  0.00    -0.379 OA
ATOM     27  H   UNL     1     -44.045  29.942   3.481  0.00  0.00    +0.211 HD
ENDBRANCH  21  26
BRANCH  22  28
ATOM     28  O   UNL     1     -46.067  27.126   3.657  0.00  0.00    -0.379 OA
ATOM     29  H   UNL     1     -46.315  26.196   3.539  0.00  0.00    +0.211 HD
ENDBRANCH  22  28
BRANCH  23  31
ATOM     30  O   UNL     1     -45.922  25.860   1.029  0.00  0.00    -0.247 OA
ATOM     31  C   UNL     1     -44.884  25.430   1.509  0.00  0.00    +0.344 C 
BRANCH  31  32
ATOM     32  O   UNL     1     -44.216  24.348   1.038  0.00  0.00    -0.478 OA
ATOM     33  H   UNL     1     -43.871  23.714   1.635  0.00  0.00    +0.295 HD
ENDBRANCH  31  32
ENDBRANCH  23  31
ENDBRANCH  17  19
ENDBRANCH  14  17
BRANCH   1  34
ATOM     34  C   UNL     1     -34.847  21.792   0.997  0.00  0.00    -0.051 C 
BRANCH  34  35
ATOM     35  C   UNL     1     -34.402  20.425   1.427  0.00  0.00    -0.058 C 
ATOM     36  C   UNL     1     -33.308  19.743   1.038  0.00  0.00    -0.050 C 
ATOM     37  C   UNL     1     -32.919  18.370   1.511  0.00  0.00    +0.026 C 
ATOM     38  C   UNL     1     -32.350  20.346   0.043  0.00  0.00    +0.026 C 
ENDBRANCH  34  35
ENDBRANCH   1  34
TORSDOF 9
ENDMDL
MODEL 4
REMARK VINA RESULT:      -6.8      1.856      3.154
REMARK  Name = 5489185
REMARK  9 active torsions:
REMARK  status: ('A' for Active; 'I' for Inactive)
REMARK    1  A    between atoms: N_1  and  C_34
REMARK    2  A    between atoms: C_14  and  O_17
REMARK    3  A    between atoms: O_17  and  C_19
REMARK    4  A    between atoms: C_20  and  O_24
REMARK    5  A    between atoms: C_21  and  O_26
REMARK    6  A    between atoms: C_22  and  O_28
REMARK    7  A    between atoms: C_23  and  C_31
REMARK    8  A    between atoms: C_31  and  O_32
REMARK    9  A    between atoms: C_34  and  C_35
REMARK                            x       y       z     vdW  Elec       q    Type
REMARK                         _______ _______ _______ _____ _____    ______ ____
ROOT
ATOM      1  N   UNL     1     -35.456  27.021   3.539  0.00  0.00    +0.391 N 
ATOM      2  C   UNL     1     -35.293  24.292   4.593  0.00  0.00    +0.015 C 
ATOM      3  C   UNL     1     -34.117  25.314   4.738  0.00  0.00    -0.015 C 
ATOM      4  C   UNL     1     -34.177  26.282   3.535  0.00  0.00    -0.053 C 
ATOM      5  C   UNL     1     -36.636  25.064   4.520  0.00  0.00    -0.019 C 
ATOM      6  C   UNL     1     -35.123  23.515   3.268  0.00  0.00    -0.024 C 
ATOM      7  C   UNL     1     -33.847  25.489   2.254  0.00  0.00    +0.005 C 
ATOM      8  C   UNL     1     -36.642  26.168   3.453  0.00  0.00    -0.076 C 
ATOM      9  C   UNL     1     -34.457  24.110   2.174  0.00  0.00    -0.028 C 
ATOM     10  C   UNL     1     -35.321  23.347   5.815  0.00  0.00    +0.004 C 
ATOM     11  C   UNL     1     -34.081  26.096   6.062  0.00  0.00    -0.002 C 
ATOM     12  C   UNL     1     -35.677  22.233   3.087  0.00  0.00    +0.032 C 
ATOM     13  C   UNL     1     -34.322  23.405   0.964  0.00  0.00    -0.002 C 
ATOM     14  C   UNL     1     -35.542  21.547   1.877  0.00  0.00    +0.141 C 
ATOM     15  C   UNL     1     -34.860  22.130   0.818  0.00  0.00    +0.037 C 
ATOM     16  H   UNL     1     -35.482  27.455   4.463  0.00  0.00    -0.079 HD
ENDROOT
BRANCH  14  17
ATOM     17  O   UNL     1     -36.084  20.306   1.737  0.00  0.00    -0.451 OA
BRANCH  17  19
ATOM     18  O   UNL     1     -38.123  20.470   0.615  0.00  0.00    -0.307 OA
ATOM     19  C   UNL     1     -36.771  20.032   0.516  0.00  0.00    +0.318 C 
ATOM     20  C   UNL     1     -36.717  18.524   0.274  0.00  0.00    +0.210 C 
ATOM     21  C   UNL     1     -37.547  18.128  -0.946  0.00  0.00    +0.173 C 
ATOM     22  C   UNL     1     -38.942  18.754  -0.898  0.00  0.00    +0.178 C 
ATOM     23  C   UNL     1     -38.856  20.242  -0.584  0.00  0.00    +0.246 C 
BRANCH  20  24
ATOM     24  O   UNL     1     -35.355  18.153   0.059  0.00  0.00    -0.377 OA
ATOM     25  H   UNL     1     -34.885  18.884  -0.373  0.00  0.00    +0.211 HD
ENDBRANCH  20  24
BRANCH  21  26
ATOM     26  O   UNL     1     -37.701  16.708  -0.980  0.00  0.00    -0.379 OA
ATOM     27  H   UNL     1     -38.535  16.464  -0.550  0.00  0.00    +0.211 HD
ENDBRANCH  21  26
BRANCH  22  28
ATOM     28  O   UNL     1     -39.571  18.590  -2.168  0.00  0.00    -0.379 OA
ATOM     29  H   UNL     1     -40.391  18.083  -2.061  0.00  0.00    +0.211 HD
ENDBRANCH  22  28
BRANCH  23  31
ATOM     30  O   UNL     1     -41.022  21.172  -1.103  0.00  0.00    -0.247 OA
ATOM     31  C   UNL     1     -40.206  20.803  -0.273  0.00  0.00    +0.344 C 
BRANCH  31  32
ATOM     32  O   UNL     1     -40.406  20.850   1.068  0.00  0.00    -0.478 OA
ATOM     33  H   UNL     1     -40.964  20.221   1.481  0.00  0.00    +0.295 HD
ENDBRANCH  31  32
ENDBRANCH  23  31
ENDBRANCH  17  19
ENDBRANCH  14  17
BRANCH   1  34
ATOM     34  C   UNL     1     -35.506  28.099   2.555  0.00  0.00    -0.051 C 
BRANCH  34  35
ATOM     35  C   UNL     1     -34.448  29.130   2.819  0.00  0.00    -0.058 C 
ATOM     36  C   UNL     1     -34.557  30.471   2.764  0.00  0.00    -0.050 C 
ATOM     37  C   UNL     1     -33.451  31.450   3.041  0.00  0.00    +0.026 C 
ATOM     38  C   UNL     1     -35.870  31.112   2.398  0.00  0.00    +0.026 C 
ENDBRANCH  34  35
ENDBRANCH   1  34
TORSDOF 9
ENDMDL
MODEL 5
REMARK VINA RESULT:      -6.8      5.562      9.465
REMARK  Name = 5489185
REMARK  9 active torsions:
REMARK  status: ('A' for Active; 'I' for Inactive)
REMARK    1  A    between atoms: N_1  and  C_34
REMARK    2  A    between atoms: C_14  and  O_17
REMARK    3  A    between atoms: O_17  and  C_19
REMARK    4  A    between atoms: C_20  and  O_24
REMARK    5  A    between atoms: C_21  and  O_26
REMARK    6  A    between atoms: C_22  and  O_28
REMARK    7  A    between atoms: C_23  and  C_31
REMARK    8  A    between atoms: C_31  and  O_32
REMARK    9  A    between atoms: C_34  and  C_35
REMARK                            x       y       z     vdW  Elec       q    Type
REMARK                         _______ _______ _______ _____ _____    ______ ____
ROOT
ATOM      1  N   UNL     1     -36.852  23.929   1.417  0.00  0.00    +0.391 N 
ATOM      2  C   UNL     1     -34.223  25.151   1.836  0.00  0.00    +0.015 C 
ATOM      3  C   UNL     1     -34.393  23.632   1.503  0.00  0.00    -0.015 C 
ATOM      4  C   UNL     1     -35.759  23.173   2.061  0.00  0.00    -0.053 C 
ATOM      5  C   UNL     1     -35.408  25.945   1.227  0.00  0.00    -0.019 C 
ATOM      6  C   UNL     1     -34.267  25.338   3.369  0.00  0.00    -0.024 C 
ATOM      7  C   UNL     1     -35.700  23.229   3.601  0.00  0.00    +0.005 C 
ATOM      8  C   UNL     1     -36.779  25.377   1.618  0.00  0.00    -0.076 C 
ATOM      9  C   UNL     1     -34.989  24.430   4.177  0.00  0.00    -0.028 C 
ATOM     10  C   UNL     1     -32.902  25.676   1.230  0.00  0.00    +0.004 C 
ATOM     11  C   UNL     1     -34.263  23.263   0.015  0.00  0.00    -0.002 C 
ATOM     12  C   UNL     1     -33.656  26.440   3.997  0.00  0.00    +0.032 C 
ATOM     13  C   UNL     1     -35.041  24.616   5.569  0.00  0.00    -0.002 C 
ATOM     14  C   UNL     1     -33.723  26.616   5.382  0.00  0.00    +0.141 C 
ATOM     15  C   UNL     1     -34.410  25.703   6.168  0.00  0.00    +0.037 C 
ATOM     16  H   UNL     1     -36.702  23.771   0.421  0.00  0.00    -0.079 HD
ENDROOT
BRANCH  14  17
ATOM     17  O   UNL     1     -33.116  27.690   5.959  0.00  0.00    -0.451 OA
BRANCH  17  19
ATOM     18  O   UNL     1     -30.798  27.718   6.220  0.00  0.00    -0.307 OA
ATOM     19  C   UNL     1     -31.882  28.122   5.388  0.00  0.00    +0.318 C 
ATOM     20  C   UNL     1     -31.924  29.646   5.273  0.00  0.00    +0.210 C 
ATOM     21  C   UNL     1     -30.584  30.203   4.795  0.00  0.00    +0.173 C 
ATOM     22  C   UNL     1     -29.419  29.620   5.597  0.00  0.00    +0.178 C 
ATOM     23  C   UNL     1     -29.534  28.104   5.690  0.00  0.00    +0.246 C 
BRANCH  20  24
ATOM     24  O   UNL     1     -32.943  29.997   4.337  0.00  0.00    -0.377 OA
ATOM     25  H   UNL     1     -33.304  30.868   4.564  0.00  0.00    +0.211 HD
ENDBRANCH  20  24
BRANCH  21  26
ATOM     26  O   UNL     1     -30.569  31.622   4.963  0.00  0.00    -0.379 OA
ATOM     27  H   UNL     1     -31.072  32.038   4.246  0.00  0.00    +0.211 HD
ENDBRANCH  21  26
BRANCH  22  28
ATOM     28  O   UNL     1     -28.194  29.947   4.944  0.00  0.00    -0.379 OA
ATOM     29  H   UNL     1     -28.240  29.677   4.014  0.00  0.00    +0.211 HD
ENDBRANCH  22  28
BRANCH  23  31
ATOM     30  O   UNL     1     -28.008  26.468   6.596  0.00  0.00    -0.247 OA
ATOM     31  C   UNL     1     -28.563  27.553   6.683  0.00  0.00    +0.344 C 
BRANCH  31  32
ATOM     32  O   UNL     1     -28.378  28.425   7.705  0.00  0.00    -0.478 OA
ATOM     33  H   UNL     1     -29.117  28.838   8.108  0.00  0.00    +0.295 HD
ENDBRANCH  31  32
ENDBRANCH  23  31
ENDBRANCH  17  19
ENDBRANCH  14  17
BRANCH   1  34
ATOM     34  C   UNL     1     -38.180  23.415   1.740  0.00  0.00    -0.051 C 
BRANCH  34  35
ATOM     35  C   UNL     1     -38.969  24.405   2.546  0.00  0.00    -0.058 C 
ATOM     36  C   UNL     1     -40.209  24.873   2.312  0.00  0.00    -0.050 C 
ATOM     37  C   UNL     1     -40.944  25.868   3.165  0.00  0.00    +0.026 C 
ATOM     38  C   UNL     1     -40.984  24.404   1.108  0.00  0.00    +0.026 C 
ENDBRANCH  34  35
ENDBRANCH   1  34
TORSDOF 9
ENDMDL
MODEL 6
REMARK VINA RESULT:      -6.8      2.947      4.659
REMARK  Name = 5489185
REMARK  9 active torsions:
REMARK  status: ('A' for Active; 'I' for Inactive)
REMARK    1  A    between atoms: N_1  and  C_34
REMARK    2  A    between atoms: C_14  and  O_17
REMARK    3  A    between atoms: O_17  and  C_19
REMARK    4  A    between atoms: C_20  and  O_24
REMARK    5  A    between atoms: C_21  and  O_26
REMARK    6  A    between atoms: C_22  and  O_28
REMARK    7  A    between atoms: C_23  and  C_31
REMARK    8  A    between atoms: C_31  and  O_32
REMARK    9  A    between atoms: C_34  and  C_35
REMARK                            x       y       z     vdW  Elec       q    Type
REMARK                         _______ _______ _______ _____ _____    ______ ____
ROOT
ATOM      1  N   UNL     1     -30.309  28.947   3.574  0.00  0.00    +0.391 N 
ATOM      2  C   UNL     1     -32.573  27.648   2.243  0.00  0.00    +0.015 C 
ATOM      3  C   UNL     1     -32.571  29.173   2.589  0.00  0.00    -0.015 C 
ATOM      4  C   UNL     1     -31.695  29.377   3.845  0.00  0.00    -0.053 C 
ATOM      5  C   UNL     1     -31.112  27.169   2.031  0.00  0.00    -0.019 C 
ATOM      6  C   UNL     1     -33.157  26.862   3.439  0.00  0.00    -0.024 C 
ATOM      7  C   UNL     1     -32.399  28.707   5.044  0.00  0.00    +0.005 C 
ATOM      8  C   UNL     1     -30.181  27.539   3.193  0.00  0.00    -0.076 C 
ATOM      9  C   UNL     1     -33.043  27.373   4.751  0.00  0.00    -0.028 C 
ATOM     10  C   UNL     1     -33.376  27.403   0.946  0.00  0.00    +0.004 C 
ATOM     11  C   UNL     1     -32.117  30.107   1.454  0.00  0.00    -0.002 C 
ATOM     12  C   UNL     1     -33.754  25.598   3.271  0.00  0.00    +0.032 C 
ATOM     13  C   UNL     1     -33.560  26.644   5.837  0.00  0.00    -0.002 C 
ATOM     14  C   UNL     1     -34.257  24.882   4.360  0.00  0.00    +0.141 C 
ATOM     15  C   UNL     1     -34.165  25.406   5.642  0.00  0.00    +0.037 C 
ATOM     16  H   UNL     1     -30.043  29.490   2.752  0.00  0.00    -0.079 HD
ENDROOT
BRANCH  14  17
ATOM     17  O   UNL     1     -34.834  23.664   4.164  0.00  0.00    -0.451 OA
BRANCH  17  19
ATOM     18  O   UNL     1     -36.930  24.438   3.494  0.00  0.00    -0.307 OA
ATOM     19  C   UNL     1     -35.844  23.580   3.159  0.00  0.00    +0.318 C 
ATOM     20  C   UNL     1     -36.316  22.127   3.086  0.00  0.00    +0.210 C 
ATOM     21  C   UNL     1     -37.496  21.975   2.127  0.00  0.00    +0.173 C 
ATOM     22  C   UNL     1     -38.576  23.023   2.401  0.00  0.00    +0.178 C 
ATOM     23  C   UNL     1     -37.964  24.413   2.515  0.00  0.00    +0.246 C 
BRANCH  20  24
ATOM     24  O   UNL     1     -35.228  21.325   2.629  0.00  0.00    -0.377 OA
ATOM     25  H   UNL     1     -35.572  20.577   2.115  0.00  0.00    +0.211 HD
ENDBRANCH  20  24
BRANCH  21  26
ATOM     26  O   UNL     1     -38.082  20.683   2.291  0.00  0.00    -0.379 OA
ATOM     27  H   UNL     1     -38.530  20.638   3.151  0.00  0.00    +0.211 HD
ENDBRANCH  21  26
BRANCH  22  28
ATOM     28  O   UNL     1     -39.511  23.021   1.324  0.00  0.00    -0.379 OA
ATOM     29  H   UNL     1     -39.313  22.286   0.724  0.00  0.00    +0.211 HD
ENDBRANCH  22  28
BRANCH  23  31
ATOM     30  O   UNL     1     -39.044  26.563   2.697  0.00  0.00    -0.247 OA
ATOM     31  C   UNL     1     -38.960  25.395   3.042  0.00  0.00    +0.344 C 
BRANCH  31  32
ATOM     32  O   UNL     1     -39.764  24.812   3.966  0.00  0.00    -0.478 OA
ATOM     33  H   UNL     1     -39.453  24.081   4.463  0.00  0.00    +0.295 HD
ENDBRANCH  31  32
ENDBRANCH  23  31
ENDBRANCH  17  19
ENDBRANCH  14  17
BRANCH   1  34
ATOM     34  C   UNL     1     -29.375  29.294   4.641  0.00  0.00    -0.051 C 
BRANCH  34  35
ATOM     35  C   UNL     1     -28.791  28.067   5.278  0.00  0.00    -0.058 C 
ATOM     36  C   UNL     1     -28.355  27.909   6.543  0.00  0.00    -0.050 C 
ATOM     37  C   UNL     1     -27.779  26.646   7.118  0.00  0.00    +0.026 C 
ATOM     38  C   UNL     1     -28.420  29.056   7.517  0.00  0.00    +0.026 C 
ENDBRANCH  34  35
ENDBRANCH   1  34
TORSDOF 9
ENDMDL
MODEL 7
REMARK VINA RESULT:      -6.8      4.329      8.874
REMARK  Name = 5489185
REMARK  9 active torsions:
REMARK  status: ('A' for Active; 'I' for Inactive)
REMARK    1  A    between atoms: N_1  and  C_34
REMARK    2  A    between atoms: C_14  and  O_17
REMARK    3  A    between atoms: O_17  and  C_19
REMARK    4  A    between atoms: C_20  and  O_24
REMARK    5  A    between atoms: C_21  and  O_26
REMARK    6  A    between atoms: C_22  and  O_28
REMARK    7  A    between atoms: C_23  and  C_31
REMARK    8  A    between atoms: C_31  and  O_32
REMARK    9  A    between atoms: C_34  and  C_35
REMARK                            x       y       z     vdW  Elec       q    Type
REMARK                         _______ _______ _______ _____ _____    ______ ____
ROOT
ATOM      1  N   UNL     1     -31.387  17.223  -1.144  0.00  0.00    +0.391 N 
ATOM      2  C   UNL     1     -31.205  20.115  -0.712  0.00  0.00    +0.015 C 
ATOM      3  C   UNL     1     -30.264  19.101   0.019  0.00  0.00    -0.015 C 
ATOM      4  C   UNL     1     -31.032  17.770   0.181  0.00  0.00    -0.053 C 
ATOM      5  C   UNL     1     -31.644  19.515  -2.074  0.00  0.00    -0.019 C 
ATOM      6  C   UNL     1     -32.476  20.327   0.142  0.00  0.00    -0.024 C 
ATOM      7  C   UNL     1     -32.199  17.996   1.164  0.00  0.00    +0.005 C 
ATOM      8  C   UNL     1     -32.234  18.104  -1.950  0.00  0.00    -0.076 C 
ATOM      9  C   UNL     1     -32.935  19.305   1.002  0.00  0.00    -0.028 C 
ATOM     10  C   UNL     1     -30.454  21.441  -0.965  0.00  0.00    +0.004 C 
ATOM     11  C   UNL     1     -28.901  18.863  -0.652  0.00  0.00    -0.002 C 
ATOM     12  C   UNL     1     -33.244  21.502   0.043  0.00  0.00    +0.032 C 
ATOM     13  C   UNL     1     -34.103  19.496   1.762  0.00  0.00    -0.002 C 
ATOM     14  C   UNL     1     -34.407  21.676   0.798  0.00  0.00    +0.141 C 
ATOM     15  C   UNL     1     -34.833  20.677   1.662  0.00  0.00    +0.037 C 
ATOM     16  H   UNL     1     -30.491  17.165  -1.630  0.00  0.00    -0.079 HD
ENDROOT
BRANCH  14  17
ATOM     17  O   UNL     1     -35.125  22.828   0.684  0.00  0.00    -0.451 OA
BRANCH  17  19
ATOM     18  O   UNL     1     -37.294  22.728   1.534  0.00  0.00    -0.307 OA
ATOM     19  C   UNL     1     -35.966  23.180   1.781  0.00  0.00    +0.318 C 
ATOM     20  C   UNL     1     -35.940  24.702   1.925  0.00  0.00    +0.210 C 
ATOM     21  C   UNL     1     -36.924  25.174   2.994  0.00  0.00    +0.173 C 
ATOM     22  C   UNL     1     -38.302  24.539   2.804  0.00  0.00    +0.178 C 
ATOM     23  C   UNL     1     -38.179  23.033   2.607  0.00  0.00    +0.246 C 
BRANCH  20  24
ATOM     24  O   UNL     1     -34.617  25.095   2.293  0.00  0.00    -0.377 OA
ATOM     25  H   UNL     1     -34.588  25.278   3.245  0.00  0.00    +0.211 HD
ENDBRANCH  20  24
BRANCH  21  26
ATOM     26  O   UNL     1     -37.076  26.592   2.911  0.00  0.00    -0.379 OA
ATOM     27  H   UNL     1     -36.555  26.930   2.166  0.00  0.00    +0.211 HD
ENDBRANCH  21  26
BRANCH  22  28
ATOM     28  O   UNL     1     -39.093  24.785   3.966  0.00  0.00    -0.379 OA
ATOM     29  H   UNL     1     -39.282  23.946   4.413  0.00  0.00    +0.211 HD
ENDBRANCH  22  28
BRANCH  23  31
ATOM     30  O   UNL     1     -40.443  23.085   1.769  0.00  0.00    -0.247 OA
ATOM     31  C   UNL     1     -39.478  22.445   2.158  0.00  0.00    +0.344 C 
BRANCH  31  32
ATOM     32  O   UNL     1     -39.444  21.092   2.244  0.00  0.00    -0.478 OA
ATOM     33  H   UNL     1     -39.196  20.679   3.048  0.00  0.00    +0.295 HD
ENDBRANCH  31  32
ENDBRANCH  23  31
ENDBRANCH  17  19
ENDBRANCH  14  17
BRANCH   1  34
ATOM     34  C   UNL     1     -31.933  15.870  -1.086  0.00  0.00    -0.051 C 
BRANCH  34  35
ATOM     35  C   UNL     1     -33.141  15.729  -1.965  0.00  0.00    -0.058 C 
ATOM     36  C   UNL     1     -34.437  15.676  -1.602  0.00  0.00    -0.050 C 
ATOM     37  C   UNL     1     -35.603  15.534  -2.539  0.00  0.00    +0.026 C 
ATOM     38  C   UNL     1     -34.822  15.759  -0.147  0.00  0.00    +0.026 C 
ENDBRANCH  34  35
ENDBRANCH   1  34
TORSDOF 9
ENDMDL
MODEL 8
REMARK VINA RESULT:      -6.8      4.422      9.111
REMARK  Name = 5489185
REMARK  9 active torsions:
REMARK  status: ('A' for Active; 'I' for Inactive)
REMARK    1  A    between atoms: N_1  and  C_34
REMARK    2  A    between atoms: C_14  and  O_17
REMARK    3  A    between atoms: O_17  and  C_19
REMARK    4  A    between atoms: C_20  and  O_24
REMARK    5  A    between atoms: C_21  and  O_26
REMARK    6  A    between atoms: C_22  and  O_28
REMARK    7  A    between atoms: C_23  and  C_31
REMARK    8  A    between atoms: C_31  and  O_32
REMARK    9  A    between atoms: C_34  and  C_35
REMARK                            x       y       z     vdW  Elec       q    Type
REMARK                         _______ _______ _______ _____ _____    ______ ____
ROOT
ATOM      1  N   UNL     1     -31.689  17.222  -0.948  0.00  0.00    +0.391 N 
ATOM      2  C   UNL     1     -31.529  20.129  -0.620  0.00  0.00    +0.015 C 
ATOM      3  C   UNL     1     -30.550  19.152   0.111  0.00  0.00    -0.015 C 
ATOM      4  C   UNL     1     -31.295  17.818   0.345  0.00  0.00    -0.053 C 
ATOM      5  C   UNL     1     -32.008  19.479  -1.944  0.00  0.00    -0.019 C 
ATOM      6  C   UNL     1     -32.771  20.356   0.271  0.00  0.00    -0.024 C 
ATOM      7  C   UNL     1     -32.429  18.065   1.361  0.00  0.00    +0.005 C 
ATOM      8  C   UNL     1     -32.575  18.066  -1.752  0.00  0.00    -0.076 C 
ATOM      9  C   UNL     1     -33.187  19.359   1.181  0.00  0.00    -0.028 C 
ATOM     10  C   UNL     1     -30.803  21.454  -0.944  0.00  0.00    +0.004 C 
ATOM     11  C   UNL     1     -29.208  18.906  -0.600  0.00  0.00    -0.002 C 
ATOM     12  C   UNL     1     -33.557  21.519   0.160  0.00  0.00    +0.032 C 
ATOM     13  C   UNL     1     -34.329  19.563   1.975  0.00  0.00    -0.002 C 
ATOM     14  C   UNL     1     -34.694  21.705   0.950  0.00  0.00    +0.141 C 
ATOM     15  C   UNL     1     -35.077  20.731   1.861  0.00  0.00    +0.037 C 
ATOM     16  H   UNL     1     -30.810  17.158  -1.463  0.00  0.00    -0.079 HD
ENDROOT
BRANCH  14  17
ATOM     17  O   UNL     1     -35.430  22.844   0.822  0.00  0.00    -0.451 OA
BRANCH  17  19
ATOM     18  O   UNL     1     -37.660  22.759   1.501  0.00  0.00    -0.307 OA
ATOM     19  C   UNL     1     -36.342  23.149   1.876  0.00  0.00    +0.318 C 
ATOM     20  C   UNL     1     -36.285  24.656   2.127  0.00  0.00    +0.210 C 
ATOM     21  C   UNL     1     -37.334  25.087   3.151  0.00  0.00    +0.173 C 
ATOM     22  C   UNL     1     -38.711  24.512   2.816  0.00  0.00    +0.178 C 
ATOM     23  C   UNL     1     -38.615  23.020   2.524  0.00  0.00    +0.246 C 
BRANCH  20  24
ATOM     24  O   UNL     1     -34.984  24.980   2.618  0.00  0.00    -0.377 OA
ATOM     25  H   UNL     1     -34.558  24.177   2.958  0.00  0.00    +0.211 HD
ENDBRANCH  20  24
BRANCH  21  26
ATOM     26  O   UNL     1     -37.440  26.512   3.156  0.00  0.00    -0.379 OA
ATOM     27  H   UNL     1     -36.763  26.888   2.572  0.00  0.00    +0.211 HD
ENDBRANCH  21  26
BRANCH  22  28
ATOM     28  O   UNL     1     -39.581  24.705   3.930  0.00  0.00    -0.379 OA
ATOM     29  H   UNL     1     -39.750  25.652   4.049  0.00  0.00    +0.211 HD
ENDBRANCH  22  28
BRANCH  23  31
ATOM     30  O   UNL     1     -40.743  23.193   1.398  0.00  0.00    -0.247 OA
ATOM     31  C   UNL     1     -39.892  22.506   1.941  0.00  0.00    +0.344 C 
BRANCH  31  32
ATOM     32  O   UNL     1     -39.982  21.162   2.099  0.00  0.00    -0.478 OA
ATOM     33  H   UNL     1     -39.926  20.597   1.353  0.00  0.00    +0.295 HD
ENDBRANCH  31  32
ENDBRANCH  23  31
ENDBRANCH  17  19
ENDBRANCH  14  17
BRANCH   1  34
ATOM     34  C   UNL     1     -32.216  15.866  -0.824  0.00  0.00    -0.051 C 
BRANCH  34  35
ATOM     35  C   UNL     1     -31.205  14.940  -0.216  0.00  0.00    -0.058 C 
ATOM     36  C   UNL     1     -31.068  13.613  -0.404  0.00  0.00    -0.050 C 
ATOM     37  C   UNL     1     -30.027  12.741   0.240  0.00  0.00    +0.026 C 
ATOM     38  C   UNL     1     -32.005  12.876  -1.325  0.00  0.00    +0.026 C 
ENDBRANCH  34  35
ENDBRANCH   1  34
TORSDOF 9
ENDMDL
MODEL 9
REMARK VINA RESULT:      -6.7      4.577      8.806
REMARK  Name = 5489185
REMARK  9 active torsions:
REMARK  status: ('A' for Active; 'I' for Inactive)
REMARK    1  A    between atoms: N_1  and  C_34
REMARK    2  A    between atoms: C_14  and  O_17
REMARK    3  A    between atoms: O_17  and  C_19
REMARK    4  A    between atoms: C_20  and  O_24
REMARK    5  A    between atoms: C_21  and  O_26
REMARK    6  A    between atoms: C_22  and  O_28
REMARK    7  A    between atoms: C_23  and  C_31
REMARK    8  A    between atoms: C_31  and  O_32
REMARK    9  A    between atoms: C_34  and  C_35
REMARK                            x       y       z     vdW  Elec       q    Type
REMARK                         _______ _______ _______ _____ _____    ______ ____
ROOT
ATOM      1  N   UNL     1     -29.372  19.793  -2.891  0.00  0.00    +0.391 N 
ATOM      2  C   UNL     1     -31.064  21.443  -1.161  0.00  0.00    +0.015 C 
ATOM      3  C   UNL     1     -29.504  21.448  -1.051  0.00  0.00    -0.015 C 
ATOM      4  C   UNL     1     -28.992  20.057  -1.488  0.00  0.00    -0.053 C 
ATOM      5  C   UNL     1     -31.474  21.092  -2.615  0.00  0.00    -0.019 C 
ATOM      6  C   UNL     1     -31.631  20.346  -0.232  0.00  0.00    -0.024 C 
ATOM      7  C   UNL     1     -29.452  19.018  -0.445  0.00  0.00    +0.005 C 
ATOM      8  C   UNL     1     -30.815  19.807  -3.135  0.00  0.00    -0.076 C 
ATOM      9  C   UNL     1     -30.859  19.202   0.071  0.00  0.00    -0.028 C 
ATOM     10  C   UNL     1     -31.620  22.840  -0.805  0.00  0.00    +0.004 C 
ATOM     11  C   UNL     1     -28.789  22.561  -1.836  0.00  0.00    -0.002 C 
ATOM     12  C   UNL     1     -32.940  20.414   0.280  0.00  0.00    +0.032 C 
ATOM     13  C   UNL     1     -31.387  18.197   0.901  0.00  0.00    -0.002 C 
ATOM     14  C   UNL     1     -33.455  19.405   1.097  0.00  0.00    +0.141 C 
ATOM     15  C   UNL     1     -32.678  18.299   1.413  0.00  0.00    +0.037 C 
ATOM     16  H   UNL     1     -28.988  20.590  -3.400  0.00  0.00    -0.079 HD
ENDROOT
BRANCH  14  17
ATOM     17  O   UNL     1     -34.724  19.504   1.581  0.00  0.00    -0.451 OA
BRANCH  17  19
ATOM     18  O   UNL     1     -35.220  20.849   3.421  0.00  0.00    -0.307 OA
ATOM     19  C   UNL     1     -35.160  20.797   1.998  0.00  0.00    +0.318 C 
ATOM     20  C   UNL     1     -36.544  21.045   1.398  0.00  0.00    +0.210 C 
ATOM     21  C   UNL     1     -37.143  22.355   1.908  0.00  0.00    +0.173 C 
ATOM     22  C   UNL     1     -37.040  22.460   3.430  0.00  0.00    +0.178 C 
ATOM     23  C   UNL     1     -35.630  22.126   3.900  0.00  0.00    +0.246 C 
BRANCH  20  24
ATOM     24  O   UNL     1     -36.411  21.107  -0.022  0.00  0.00    -0.377 OA
ATOM     25  H   UNL     1     -36.020  20.280  -0.346  0.00  0.00    +0.211 HD
ENDBRANCH  20  24
BRANCH  21  26
ATOM     26  O   UNL     1     -38.525  22.419   1.553  0.00  0.00    -0.379 OA
ATOM     27  H   UNL     1     -39.064  22.444   2.359  0.00  0.00    +0.211 HD
ENDBRANCH  21  26
BRANCH  22  28
ATOM     28  O   UNL     1     -37.350  23.795   3.828  0.00  0.00    -0.379 OA
ATOM     29  H   UNL     1     -38.301  23.869   4.000  0.00  0.00    +0.211 HD
ENDBRANCH  22  28
BRANCH  23  31
ATOM     30  O   UNL     1     -35.826  22.848   6.195  0.00  0.00    -0.247 OA
ATOM     31  C   UNL     1     -35.585  21.965   5.386  0.00  0.00    +0.344 C 
BRANCH  31  32
ATOM     32  O   UNL     1     -35.235  20.698   5.719  0.00  0.00    -0.478 OA
ATOM     33  H   UNL     1     -34.351  20.504   5.959  0.00  0.00    +0.295 HD
ENDBRANCH  31  32
ENDBRANCH  23  31
ENDBRANCH  17  19
ENDBRANCH  14  17
BRANCH   1  34
ATOM     34  C   UNL     1     -28.753  18.591  -3.443  0.00  0.00    -0.051 C 
BRANCH  34  35
ATOM     35  C   UNL     1     -29.764  17.501  -3.650  0.00  0.00    -0.058 C 
ATOM     36  C   UNL     1     -29.794  16.274  -3.097  0.00  0.00    -0.050 C 
ATOM     37  C   UNL     1     -30.841  15.226  -3.349  0.00  0.00    +0.026 C 
ATOM     38  C   UNL     1     -28.715  15.848  -2.135  0.00  0.00    +0.026 C 
ENDBRANCH  34  35
ENDBRANCH   1  34
TORSDOF 9
ENDMDL
