MODEL 1
REMARK VINA RESULT:      -5.3      0.000      0.000
REMARK  Name = 5289518
REMARK  6 active torsions:
REMARK  status: ('A' for Active; 'I' for Inactive)
REMARK    1  A    between atoms: C_4  and  C_8
REMARK    2  A    between atoms: C_5  and  C_12
REMARK    3  A    between atoms: C_12  and  CA_13
REMARK    4  A    between atoms: CA_13  and  N_14
REMARK    5  A    between atoms: CA_13  and  C_19
REMARK    6  A    between atoms: C_19  and  O_20
REMARK                            x       y       z     vdW  Elec       q    Type
REMARK                         _______ _______ _______ _____ _____    ______ ____
ROOT
ATOM      1  S   UNL     1     -36.390  27.042   2.238  0.00  0.00    -0.015 S 
ATOM      2  O   UNL     1     -38.733  24.534   3.802  0.00  0.00    -0.267 OA
ATOM      3  N   UNL     1     -37.839  26.211   2.465  0.00  0.00    -0.292 N 
ATOM      4  C   UNL     1     -35.637  26.119   3.513  0.00  0.00    +0.023 A 
ATOM      5  C   UNL     1     -36.452  25.217   4.085  0.00  0.00    +0.036 A 
ATOM      6  C   UNL     1     -37.808  25.257   3.459  0.00  0.00    +0.259 A 
ATOM      7  H   UNL     1     -38.646  26.394   1.929  0.00  0.00    +0.177 HD
ENDROOT
BRANCH   4   8
ATOM      8  C   UNL     1     -34.197  26.398   3.850  0.00  0.00    +0.026 C 
ATOM      9  C   UNL     1     -33.869  27.818   3.384  0.00  0.00    +0.005 C 
ATOM     10  C   UNL     1     -33.312  25.381   3.124  0.00  0.00    +0.005 C 
ATOM     11  C   UNL     1     -34.009  26.278   5.364  0.00  0.00    +0.005 C 
ENDBRANCH   4   8
BRANCH   5  12
ATOM     12  C   UNL     1     -36.189  24.253   5.188  0.00  0.00    +0.020 C 
BRANCH  12  13
ATOM     13  CA  UNL     1     -35.678  22.923   4.624  0.00  0.00    +0.040 C 
BRANCH  13  14
ATOM     14  N   UNL     1     -36.715  22.285   3.815  0.00  0.00    +0.389 N 
ATOM     15  H1  UNL     1     -37.618  22.712   4.022  0.00  0.00    -0.088 HD
ATOM     16  H2  UNL     1     -36.752  21.289   4.033  0.00  0.00    -0.088 HD
ATOM     17  H3  UNL     1     -36.500  22.409   2.826  0.00  0.00    -0.088 HD
ENDBRANCH  13  14
BRANCH  13  19
ATOM     18  OXT UNL     1     -35.146  22.210   6.898  0.00  0.00    -0.253 OA
ATOM     19  C   UNL     1     -35.318  21.930   5.719  0.00  0.00    +0.293 C 
BRANCH  19  20
ATOM     20  O   UNL     1     -35.183  20.665   5.239  0.00  0.00    -0.482 OA
ATOM     21  H   UNL     1     -35.054  20.524   4.321  0.00  0.00    +0.295 HD
ENDBRANCH  19  20
ENDBRANCH  13  19
ENDBRANCH  12  13
ENDBRANCH   5  12
TORSDOF 6
ENDMDL
MODEL 2
REMARK VINA RESULT:      -5.1      2.708      4.029
REMARK  Name = 5289518
REMARK  6 active torsions:
REMARK  status: ('A' for Active; 'I' for Inactive)
REMARK    1  A    between atoms: C_4  and  C_8
REMARK    2  A    between atoms: C_5  and  C_12
REMARK    3  A    between atoms: C_12  and  CA_13
REMARK    4  A    between atoms: CA_13  and  N_14
REMARK    5  A    between atoms: CA_13  and  C_19
REMARK    6  A    between atoms: C_19  and  O_20
REMARK                            x       y       z     vdW  Elec       q    Type
REMARK                         _______ _______ _______ _____ _____    ______ ____
ROOT
ATOM      1  S   UNL     1     -38.741  22.554   2.266  0.00  0.00    -0.015 S 
ATOM      2  O   UNL     1     -38.780  26.244   3.042  0.00  0.00    -0.267 OA
ATOM      3  N   UNL     1     -39.420  24.081   2.485  0.00  0.00    -0.292 N 
ATOM      4  C   UNL     1     -37.158  23.179   2.645  0.00  0.00    +0.023 A 
ATOM      5  C   UNL     1     -37.146  24.493   2.926  0.00  0.00    +0.036 A 
ATOM      6  C   UNL     1     -38.522  25.066   2.833  0.00  0.00    +0.259 A 
ATOM      7  H   UNL     1     -40.383  24.255   2.372  0.00  0.00    +0.177 HD
ENDROOT
BRANCH   4   8
ATOM      8  C   UNL     1     -35.986  22.234   2.625  0.00  0.00    +0.026 C 
ATOM      9  C   UNL     1     -36.440  20.933   1.961  0.00  0.00    +0.005 C 
ATOM     10  C   UNL     1     -35.539  21.970   4.065  0.00  0.00    +0.005 C 
ATOM     11  C   UNL     1     -34.847  22.872   1.826  0.00  0.00    +0.005 C 
ENDBRANCH   4   8
BRANCH   5  12
ATOM     12  C   UNL     1     -36.011  25.383   3.292  0.00  0.00    +0.020 C 
BRANCH  12  13
ATOM     13  CA  UNL     1     -35.848  25.443   4.814  0.00  0.00    +0.040 C 
BRANCH  13  14
ATOM     14  N   UNL     1     -36.620  26.557   5.362  0.00  0.00    +0.389 N 
ATOM     15  H1  UNL     1     -36.813  27.232   4.622  0.00  0.00    -0.088 HD
ATOM     16  H2  UNL     1     -36.084  27.009   6.104  0.00  0.00    -0.088 HD
ATOM     17  H3  UNL     1     -37.499  26.208   5.742  0.00  0.00    -0.088 HD
ENDBRANCH  13  14
BRANCH  13  19
ATOM     18  OXT UNL     1     -34.026  26.538   6.015  0.00  0.00    -0.253 OA
ATOM     19  C   UNL     1     -34.404  25.675   5.234  0.00  0.00    +0.293 C 
BRANCH  19  20
ATOM     20  O   UNL     1     -33.548  24.814   4.620  0.00  0.00    -0.482 OA
ATOM     21  H   UNL     1     -33.233  24.060   5.079  0.00  0.00    +0.295 HD
ENDBRANCH  19  20
ENDBRANCH  13  19
ENDBRANCH  12  13
ENDBRANCH   5  12
TORSDOF 6
ENDMDL
MODEL 3
REMARK VINA RESULT:      -5.0      1.960      2.993
REMARK  Name = 5289518
REMARK  6 active torsions:
REMARK  status: ('A' for Active; 'I' for Inactive)
REMARK    1  A    between atoms: C_4  and  C_8
REMARK    2  A    between atoms: C_5  and  C_12
REMARK    3  A    between atoms: C_12  and  CA_13
REMARK    4  A    between atoms: CA_13  and  N_14
REMARK    5  A    between atoms: CA_13  and  C_19
REMARK    6  A    between atoms: C_19  and  O_20
REMARK                            x       y       z     vdW  Elec       q    Type
REMARK                         _______ _______ _______ _____ _____    ______ ____
ROOT
ATOM      1  S   UNL     1     -34.637  27.676   2.960  0.00  0.00    -0.015 S 
ATOM      2  O   UNL     1     -34.145  25.739   6.159  0.00  0.00    -0.267 OA
ATOM      3  N   UNL     1     -33.903  27.262   4.420  0.00  0.00    -0.292 N 
ATOM      4  C   UNL     1     -35.827  26.419   3.177  0.00  0.00    +0.023 A 
ATOM      5  C   UNL     1     -35.673  25.715   4.311  0.00  0.00    +0.036 A 
ATOM      6  C   UNL     1     -34.499  26.214   5.088  0.00  0.00    +0.259 A 
ATOM      7  H   UNL     1     -33.110  27.731   4.768  0.00  0.00    +0.177 HD
ENDROOT
BRANCH   4   8
ATOM      8  C   UNL     1     -36.882  26.235   2.119  0.00  0.00    +0.026 C 
ATOM      9  C   UNL     1     -36.963  27.528   1.303  0.00  0.00    +0.005 C 
ATOM     10  C   UNL     1     -38.222  25.950   2.801  0.00  0.00    +0.005 C 
ATOM     11  C   UNL     1     -36.485  25.062   1.219  0.00  0.00    +0.005 C 
ENDBRANCH   4   8
BRANCH   5  12
ATOM     12  C   UNL     1     -36.471  24.580   4.848  0.00  0.00    +0.020 C 
BRANCH  12  13
ATOM     13  CA  UNL     1     -35.955  23.250   4.287  0.00  0.00    +0.040 C 
BRANCH  13  14
ATOM     14  N   UNL     1     -37.027  22.551   3.579  0.00  0.00    +0.389 N 
ATOM     15  H1  UNL     1     -37.917  22.738   4.041  0.00  0.00    -0.088 HD
ATOM     16  H2  UNL     1     -36.842  21.547   3.590  0.00  0.00    -0.088 HD
ATOM     17  H3  UNL     1     -37.068  22.878   2.615  0.00  0.00    -0.088 HD
ENDBRANCH  13  14
BRANCH  13  19
ATOM     18  OXT UNL     1     -35.212  22.634   6.529  0.00  0.00    -0.253 OA
ATOM     19  C   UNL     1     -35.477  22.307   5.380  0.00  0.00    +0.293 C 
BRANCH  19  20
ATOM     20  O   UNL     1     -35.350  21.028   4.933  0.00  0.00    -0.482 OA
ATOM     21  H   UNL     1     -36.003  20.662   4.370  0.00  0.00    +0.295 HD
ENDBRANCH  19  20
ENDBRANCH  13  19
ENDBRANCH  12  13
ENDBRANCH   5  12
TORSDOF 6
ENDMDL
MODEL 4
REMARK VINA RESULT:      -5.0      2.723      4.071
REMARK  Name = 5289518
REMARK  6 active torsions:
REMARK  status: ('A' for Active; 'I' for Inactive)
REMARK    1  A    between atoms: C_4  and  C_8
REMARK    2  A    between atoms: C_5  and  C_12
REMARK    3  A    between atoms: C_12  and  CA_13
REMARK    4  A    between atoms: CA_13  and  N_14
REMARK    5  A    between atoms: CA_13  and  C_19
REMARK    6  A    between atoms: C_19  and  O_20
REMARK                            x       y       z     vdW  Elec       q    Type
REMARK                         _______ _______ _______ _____ _____    ______ ____
ROOT
ATOM      1  S   UNL     1     -38.820  22.581   2.206  0.00  0.00    -0.015 S 
ATOM      2  O   UNL     1     -38.857  26.263   3.024  0.00  0.00    -0.267 OA
ATOM      3  N   UNL     1     -39.499  24.105   2.450  0.00  0.00    -0.292 N 
ATOM      4  C   UNL     1     -37.233  23.206   2.572  0.00  0.00    +0.023 A 
ATOM      5  C   UNL     1     -37.221  24.517   2.868  0.00  0.00    +0.036 A 
ATOM      6  C   UNL     1     -38.599  25.088   2.799  0.00  0.00    +0.259 A 
ATOM      7  H   UNL     1     -40.464  24.278   2.351  0.00  0.00    +0.177 HD
ENDROOT
BRANCH   4   8
ATOM      8  C   UNL     1     -36.060  22.264   2.528  0.00  0.00    +0.026 C 
ATOM      9  C   UNL     1     -35.621  21.987   3.967  0.00  0.00    +0.005 C 
ATOM     10  C   UNL     1     -34.925  22.924   1.741  0.00  0.00    +0.005 C 
ATOM     11  C   UNL     1     -36.492  20.965   1.843  0.00  0.00    +0.005 C 
ENDBRANCH   4   8
BRANCH   5  12
ATOM     12  C   UNL     1     -36.083  25.405   3.230  0.00  0.00    +0.020 C 
BRANCH  12  13
ATOM     13  CA  UNL     1     -35.863  25.401   4.747  0.00  0.00    +0.040 C 
BRANCH  13  14
ATOM     14  N   UNL     1     -36.526  26.553   5.356  0.00  0.00    +0.389 N 
ATOM     15  H1  UNL     1     -35.834  27.127   5.838  0.00  0.00    -0.088 HD
ATOM     16  H2  UNL     1     -37.224  26.228   6.026  0.00  0.00    -0.088 HD
ATOM     17  H3  UNL     1     -36.982  27.106   4.632  0.00  0.00    -0.088 HD
ENDBRANCH  13  14
BRANCH  13  19
ATOM     18  OXT UNL     1     -33.502  24.782   4.693  0.00  0.00    -0.253 OA
ATOM     19  C   UNL     1     -34.392  25.506   5.119  0.00  0.00    +0.293 C 
BRANCH  19  20
ATOM     20  O   UNL     1     -34.161  26.502   6.015  0.00  0.00    -0.482 OA
ATOM     21  H   UNL     1     -33.980  26.294   6.911  0.00  0.00    +0.295 HD
ENDBRANCH  19  20
ENDBRANCH  13  19
ENDBRANCH  12  13
ENDBRANCH   5  12
TORSDOF 6
ENDMDL
MODEL 5
REMARK VINA RESULT:      -5.0      2.874      4.679
REMARK  Name = 5289518
REMARK  6 active torsions:
REMARK  status: ('A' for Active; 'I' for Inactive)
REMARK    1  A    between atoms: C_4  and  C_8
REMARK    2  A    between atoms: C_5  and  C_12
REMARK    3  A    between atoms: C_12  and  CA_13
REMARK    4  A    between atoms: CA_13  and  N_14
REMARK    5  A    between atoms: CA_13  and  C_19
REMARK    6  A    between atoms: C_19  and  O_20
REMARK                            x       y       z     vdW  Elec       q    Type
REMARK                         _______ _______ _______ _____ _____    ______ ____
ROOT
ATOM      1  S   UNL     1     -39.351  21.753   1.822  0.00  0.00    -0.015 S 
ATOM      2  O   UNL     1     -35.791  21.644   3.062  0.00  0.00    -0.267 OA
ATOM      3  N   UNL     1     -37.893  21.040   2.275  0.00  0.00    -0.292 N 
ATOM      4  C   UNL     1     -38.712  23.337   2.176  0.00  0.00    +0.023 A 
ATOM      5  C   UNL     1     -37.443  23.324   2.619  0.00  0.00    +0.036 A 
ATOM      6  C   UNL     1     -36.921  21.927   2.688  0.00  0.00    +0.259 A 
ATOM      7  H   UNL     1     -37.746  20.066   2.247  0.00  0.00    +0.177 HD
ENDROOT
BRANCH   4   8
ATOM      8  C   UNL     1     -39.598  24.535   1.964  0.00  0.00    +0.026 C 
ATOM      9  C   UNL     1     -38.776  25.612   1.252  0.00  0.00    +0.005 C 
ATOM     10  C   UNL     1     -40.077  25.044   3.327  0.00  0.00    +0.005 C 
ATOM     11  C   UNL     1     -40.794  24.123   1.103  0.00  0.00    +0.005 C 
ENDBRANCH   4   8
BRANCH   5  12
ATOM     12  C   UNL     1     -36.559  24.451   3.021  0.00  0.00    +0.020 C 
BRANCH  12  13
ATOM     13  CA  UNL     1     -36.764  24.790   4.501  0.00  0.00    +0.040 C 
BRANCH  13  14
ATOM     14  N   UNL     1     -36.752  26.239   4.694  0.00  0.00    +0.389 N 
ATOM     15  H1  UNL     1     -37.435  26.492   5.409  0.00  0.00    -0.088 HD
ATOM     16  H2  UNL     1     -36.993  26.701   3.816  0.00  0.00    -0.088 HD
ATOM     17  H3  UNL     1     -35.823  26.536   4.991  0.00  0.00    -0.088 HD
ENDBRANCH  13  14
BRANCH  13  19
ATOM     18  OXT UNL     1     -34.600  24.798   5.632  0.00  0.00    -0.253 OA
ATOM     19  C   UNL     1     -35.656  24.232   5.382  0.00  0.00    +0.293 C 
BRANCH  19  20
ATOM     20  O   UNL     1     -35.957  22.996   5.862  0.00  0.00    -0.482 OA
ATOM     21  H   UNL     1     -36.204  22.312   5.271  0.00  0.00    +0.295 HD
ENDBRANCH  19  20
ENDBRANCH  13  19
ENDBRANCH  12  13
ENDBRANCH   5  12
TORSDOF 6
ENDMDL
MODEL 6
REMARK VINA RESULT:      -4.8      2.074      2.730
REMARK  Name = 5289518
REMARK  6 active torsions:
REMARK  status: ('A' for Active; 'I' for Inactive)
REMARK    1  A    between atoms: C_4  and  C_8
REMARK    2  A    between atoms: C_5  and  C_12
REMARK    3  A    between atoms: C_12  and  CA_13
REMARK    4  A    between atoms: CA_13  and  N_14
REMARK    5  A    between atoms: CA_13  and  C_19
REMARK    6  A    between atoms: C_19  and  O_20
REMARK                            x       y       z     vdW  Elec       q    Type
REMARK                         _______ _______ _______ _____ _____    ______ ____
ROOT
ATOM      1  S   UNL     1     -34.959  27.010   2.715  0.00  0.00    -0.015 S 
ATOM      2  O   UNL     1     -36.158  25.600   6.000  0.00  0.00    -0.267 OA
ATOM      3  N   UNL     1     -35.270  26.999   4.371  0.00  0.00    -0.292 N 
ATOM      4  C   UNL     1     -35.607  25.398   2.559  0.00  0.00    +0.023 A 
ATOM      5  C   UNL     1     -36.042  24.874   3.718  0.00  0.00    +0.036 A 
ATOM      6  C   UNL     1     -35.845  25.837   4.842  0.00  0.00    +0.259 A 
ATOM      7  H   UNL     1     -35.058  27.762   4.957  0.00  0.00    +0.177 HD
ENDROOT
BRANCH   4   8
ATOM      8  C   UNL     1     -35.624  24.756   1.198  0.00  0.00    +0.026 C 
ATOM      9  C   UNL     1     -34.438  23.793   1.115  0.00  0.00    +0.005 C 
ATOM     10  C   UNL     1     -35.500  25.849   0.134  0.00  0.00    +0.005 C 
ATOM     11  C   UNL     1     -36.941  23.995   1.024  0.00  0.00    +0.005 C 
ENDBRANCH   4   8
BRANCH   5  12
ATOM     12  C   UNL     1     -36.653  23.546   3.997  0.00  0.00    +0.020 C 
BRANCH  12  13
ATOM     13  CA  UNL     1     -35.562  22.488   4.194  0.00  0.00    +0.040 C 
BRANCH  13  14
ATOM     14  N   UNL     1     -35.778  21.365   3.283  0.00  0.00    +0.389 N 
ATOM     15  H1  UNL     1     -35.342  21.569   2.383  0.00  0.00    -0.088 HD
ATOM     16  H2  UNL     1     -36.779  21.222   3.151  0.00  0.00    -0.088 HD
ATOM     17  H3  UNL     1     -35.363  20.522   3.678  0.00  0.00    -0.088 HD
ENDBRANCH  13  14
BRANCH  13  19
ATOM     18  OXT UNL     1     -35.920  22.500   6.610  0.00  0.00    -0.253 OA
ATOM     19  C   UNL     1     -35.567  21.905   5.599  0.00  0.00    +0.293 C 
BRANCH  19  20
ATOM     20  O   UNL     1     -35.108  20.625   5.625  0.00  0.00    -0.482 OA
ATOM     21  H   UNL     1     -34.847  20.206   4.828  0.00  0.00    +0.295 HD
ENDBRANCH  19  20
ENDBRANCH  13  19
ENDBRANCH  12  13
ENDBRANCH   5  12
TORSDOF 6
ENDMDL
MODEL 7
REMARK VINA RESULT:      -4.8      2.603      3.263
REMARK  Name = 5289518
REMARK  6 active torsions:
REMARK  status: ('A' for Active; 'I' for Inactive)
REMARK    1  A    between atoms: C_4  and  C_8
REMARK    2  A    between atoms: C_5  and  C_12
REMARK    3  A    between atoms: C_12  and  CA_13
REMARK    4  A    between atoms: CA_13  and  N_14
REMARK    5  A    between atoms: CA_13  and  C_19
REMARK    6  A    between atoms: C_19  and  O_20
REMARK                            x       y       z     vdW  Elec       q    Type
REMARK                         _______ _______ _______ _____ _____    ______ ____
ROOT
ATOM      1  S   UNL     1     -37.775  25.278   3.474  0.00  0.00    -0.015 S 
ATOM      2  O   UNL     1     -38.439  21.844   2.064  0.00  0.00    -0.267 OA
ATOM      3  N   UNL     1     -38.597  24.102   2.591  0.00  0.00    -0.292 N 
ATOM      4  C   UNL     1     -36.573  24.109   3.954  0.00  0.00    +0.023 A 
ATOM      5  C   UNL     1     -36.788  22.876   3.463  0.00  0.00    +0.036 A 
ATOM      6  C   UNL     1     -38.023  22.849   2.625  0.00  0.00    +0.259 A 
ATOM      7  H   UNL     1     -39.423  24.295   2.090  0.00  0.00    +0.177 HD
ENDROOT
BRANCH   4   8
ATOM      8  C   UNL     1     -35.443  24.559   4.841  0.00  0.00    +0.026 C 
ATOM      9  C   UNL     1     -35.857  25.875   5.503  0.00  0.00    +0.005 C 
ATOM     10  C   UNL     1     -34.192  24.764   3.984  0.00  0.00    +0.005 C 
ATOM     11  C   UNL     1     -35.188  23.486   5.903  0.00  0.00    +0.005 C 
ENDBRANCH   4   8
BRANCH   5  12
ATOM     12  C   UNL     1     -36.001  21.626   3.639  0.00  0.00    +0.020 C 
BRANCH  12  13
ATOM     13  CA  UNL     1     -35.165  21.339   2.388  0.00  0.00    +0.040 C 
BRANCH  13  14
ATOM     14  N   UNL     1     -35.388  22.376   1.382  0.00  0.00    +0.389 N 
ATOM     15  H1  UNL     1     -34.725  22.255   0.616  0.00  0.00    -0.088 HD
ATOM     16  H2  UNL     1     -35.254  23.295   1.806  0.00  0.00    -0.088 HD
ATOM     17  H3  UNL     1     -36.339  22.303   1.023  0.00  0.00    -0.088 HD
ENDBRANCH  13  14
BRANCH  13  19
ATOM     18  OXT UNL     1     -34.909  19.472   0.834  0.00  0.00    -0.253 OA
ATOM     19  C   UNL     1     -35.539  20.019   1.731  0.00  0.00    +0.293 C 
BRANCH  19  20
ATOM     20  O   UNL     1     -36.687  19.500   2.242  0.00  0.00    -0.482 OA
ATOM     21  H   UNL     1     -36.965  19.737   3.105  0.00  0.00    +0.295 HD
ENDBRANCH  19  20
ENDBRANCH  13  19
ENDBRANCH  12  13
ENDBRANCH   5  12
TORSDOF 6
ENDMDL
MODEL 8
REMARK VINA RESULT:      -4.7      3.036      5.146
REMARK  Name = 5289518
REMARK  6 active torsions:
REMARK  status: ('A' for Active; 'I' for Inactive)
REMARK    1  A    between atoms: C_4  and  C_8
REMARK    2  A    between atoms: C_5  and  C_12
REMARK    3  A    between atoms: C_12  and  CA_13
REMARK    4  A    between atoms: CA_13  and  N_14
REMARK    5  A    between atoms: CA_13  and  C_19
REMARK    6  A    between atoms: C_19  and  O_20
REMARK                            x       y       z     vdW  Elec       q    Type
REMARK                         _______ _______ _______ _____ _____    ______ ____
ROOT
ATOM      1  S   UNL     1     -35.466  21.767   5.008  0.00  0.00    -0.015 S 
ATOM      2  O   UNL     1     -36.291  25.441   5.214  0.00  0.00    -0.267 OA
ATOM      3  N   UNL     1     -35.768  23.244   5.761  0.00  0.00    -0.292 N 
ATOM      4  C   UNL     1     -35.701  22.494   3.440  0.00  0.00    +0.023 A 
ATOM      5  C   UNL     1     -35.996  23.804   3.487  0.00  0.00    +0.036 A 
ATOM      6  C   UNL     1     -36.043  24.285   4.900  0.00  0.00    +0.259 A 
ATOM      7  H   UNL     1     -35.749  23.354   6.740  0.00  0.00    +0.177 HD
ENDROOT
BRANCH   4   8
ATOM      8  C   UNL     1     -35.561  21.628   2.216  0.00  0.00    +0.026 C 
ATOM      9  C   UNL     1     -36.965  21.295   1.709  0.00  0.00    +0.005 C 
ATOM     10  C   UNL     1     -34.814  20.348   2.598  0.00  0.00    +0.005 C 
ATOM     11  C   UNL     1     -34.778  22.399   1.150  0.00  0.00    +0.005 C 
ENDBRANCH   4   8
BRANCH   5  12
ATOM     12  C   UNL     1     -36.263  24.765   2.383  0.00  0.00    +0.020 C 
BRANCH  12  13
ATOM     13  CA  UNL     1     -37.764  24.830   2.082  0.00  0.00    +0.040 C 
BRANCH  13  14
ATOM     14  N   UNL     1     -38.007  24.556   0.666  0.00  0.00    +0.389 N 
ATOM     15  H1  UNL     1     -38.482  23.658   0.571  0.00  0.00    -0.088 HD
ATOM     16  H2  UNL     1     -37.117  24.525   0.168  0.00  0.00    -0.088 HD
ATOM     17  H3  UNL     1     -38.591  25.292   0.273  0.00  0.00    -0.088 HD
ENDBRANCH  13  14
BRANCH  13  19
ATOM     18  OXT UNL     1     -38.477  27.099   1.532  0.00  0.00    -0.253 OA
ATOM     19  C   UNL     1     -38.352  26.205   2.359  0.00  0.00    +0.293 C 
BRANCH  19  20
ATOM     20  O   UNL     1     -38.716  26.353   3.660  0.00  0.00    -0.482 OA
ATOM     21  H   UNL     1     -38.069  26.552   4.308  0.00  0.00    +0.295 HD
ENDBRANCH  19  20
ENDBRANCH  13  19
ENDBRANCH  12  13
ENDBRANCH   5  12
TORSDOF 6
ENDMDL
MODEL 9
REMARK VINA RESULT:      -4.7      2.970      3.828
REMARK  Name = 5289518
REMARK  6 active torsions:
REMARK  status: ('A' for Active; 'I' for Inactive)
REMARK    1  A    between atoms: C_4  and  C_8
REMARK    2  A    between atoms: C_5  and  C_12
REMARK    3  A    between atoms: C_12  and  CA_13
REMARK    4  A    between atoms: CA_13  and  N_14
REMARK    5  A    between atoms: CA_13  and  C_19
REMARK    6  A    between atoms: C_19  and  O_20
REMARK                            x       y       z     vdW  Elec       q    Type
REMARK                         _______ _______ _______ _____ _____    ______ ____
ROOT
ATOM      1  S   UNL     1     -33.856  25.995   2.787  0.00  0.00    -0.015 S 
ATOM      2  O   UNL     1     -34.250  23.089   0.416  0.00  0.00    -0.267 OA
ATOM      3  N   UNL     1     -33.706  25.152   1.335  0.00  0.00    -0.292 N 
ATOM      4  C   UNL     1     -34.674  24.637   3.515  0.00  0.00    +0.023 A 
ATOM      5  C   UNL     1     -34.826  23.588   2.689  0.00  0.00    +0.036 A 
ATOM      6  C   UNL     1     -34.240  23.882   1.347  0.00  0.00    +0.259 A 
ATOM      7  H   UNL     1     -33.270  25.538   0.540  0.00  0.00    +0.177 HD
ENDROOT
BRANCH   4   8
ATOM      8  C   UNL     1     -35.123  24.750   4.948  0.00  0.00    +0.026 C 
ATOM      9  C   UNL     1     -34.967  23.375   5.602  0.00  0.00    +0.005 C 
ATOM     10  C   UNL     1     -36.589  25.189   4.974  0.00  0.00    +0.005 C 
ATOM     11  C   UNL     1     -34.248  25.783   5.662  0.00  0.00    +0.005 C 
ENDBRANCH   4   8
BRANCH   5  12
ATOM     12  C   UNL     1     -35.461  22.264   2.931  0.00  0.00    +0.020 C 
BRANCH  12  13
ATOM     13  CA  UNL     1     -36.802  22.172   2.195  0.00  0.00    +0.040 C 
BRANCH  13  14
ATOM     14  N   UNL     1     -37.899  22.515   3.098  0.00  0.00    +0.389 N 
ATOM     15  H1  UNL     1     -38.789  22.368   2.623  0.00  0.00    -0.088 HD
ATOM     16  H2  UNL     1     -37.818  23.494   3.374  0.00  0.00    -0.088 HD
ATOM     17  H3  UNL     1     -37.854  21.924   3.928  0.00  0.00    -0.088 HD
ENDBRANCH  13  14
BRANCH  13  19
ATOM     18  OXT UNL     1     -37.555  20.495   0.589  0.00  0.00    -0.253 OA
ATOM     19  C   UNL     1     -37.089  20.767   1.687  0.00  0.00    +0.293 C 
BRANCH  19  20
ATOM     20  O   UNL     1     -36.785  19.817   2.612  0.00  0.00    -0.482 OA
ATOM     21  H   UNL     1     -35.892  19.576   2.759  0.00  0.00    +0.295 HD
ENDBRANCH  19  20
ENDBRANCH  13  19
ENDBRANCH  12  13
ENDBRANCH   5  12
TORSDOF 6
ENDMDL
