MODEL 1
REMARK VINA RESULT:      -6.1      0.000      0.000
REMARK  Name = 53360350
REMARK  11 active torsions:
REMARK  status: ('A' for Active; 'I' for Inactive)
REMARK    1  A    between atoms: CA_1  and  N_3
REMARK    2  A    between atoms: CA_1  and  C_18
REMARK    3  A    between atoms: CA_1  and  CB_21
REMARK    4  A    between atoms: C_4  and  C_6
REMARK    5  A    between atoms: C_7  and  C_9
REMARK    6  A    between atoms: C_12  and  O_15
REMARK    7  A    between atoms: C_18  and  O_19
REMARK    8  A    between atoms: CB_21  and  CG_22
REMARK    9  A    between atoms: CG_22  and  CD_23
REMARK   10  A    between atoms: CD_23  and  NE_24
REMARK   11  A    between atoms: NE_24  and  CZ_27
REMARK                            x       y       z     vdW  Elec       q    Type
REMARK                         _______ _______ _______ _____ _____    ______ ____
ROOT
ATOM      1  CA  ARG A   1     -35.599  24.854   5.197  0.00  0.00    +0.172 C 
ENDROOT
BRANCH   1   3
ATOM      2  O   UNK A   0     -35.995  22.198   6.284  0.00  0.00    -0.270 OA
ATOM      3  N   ARG A   1     -35.361  23.596   4.536  0.00  0.00    -0.293 N 
ATOM      4  C   UNK A   0     -35.580  22.367   5.141  0.00  0.00    +0.246 C 
ATOM      5  H   ARG A   1     -35.026  23.609   3.610  0.00  0.00    +0.150 HD
BRANCH   4   6
ATOM      6  C   UNK A   0     -35.253  21.231   4.231  0.00  0.00    +0.058 C 
ATOM      7  C   UNK A   0     -35.550  21.315   2.926  0.00  0.00    +0.005 C 
BRANCH   7   9
ATOM      8 BR   UNK A   0     -31.986  17.943   0.865  0.00  0.00    -0.046 Br
ATOM      9  C   UNK A   0     -35.265  20.261   1.936  0.00  0.00    +0.001 C 
ATOM     10  C   UNK A   0     -33.993  19.692   1.867  0.00  0.00    +0.010 C 
ATOM     11  C   UNK A   0     -36.268  19.833   1.066  0.00  0.00    +0.003 C 
ATOM     12  C   UNK A   0     -34.728  18.268   0.058  0.00  0.00    +0.145 C 
ATOM     13  C   UNK A   0     -33.724  18.695   0.928  0.00  0.00    +0.068 C 
ATOM     14  C   UNK A   0     -36.000  18.837   0.128  0.00  0.00    +0.037 C 
BRANCH  12  15
ATOM     15  O   UNK A   0     -34.497  17.297  -0.869  0.00  0.00    -0.471 OA
ATOM     16  C   UNK A   0     -34.939  15.979  -0.550  0.00  0.00    +0.252 C 
ENDBRANCH  12  15
ENDBRANCH   7   9
ENDBRANCH   4   6
ENDBRANCH   1   3
BRANCH   1  18
ATOM     17  OXT ARG A   1     -34.040  26.513   6.068  0.00  0.00    -0.248 OA
ATOM     18  C   ARG A   1     -34.279  25.596   5.293  0.00  0.00    +0.332 C 
BRANCH  18  19
ATOM     19  O   ARG A   1     -33.352  25.097   4.434  0.00  0.00    -0.479 OA
ATOM     20  H   ARG A   1     -32.446  25.301   4.553  0.00  0.00    +0.295 HD
ENDBRANCH  18  19
ENDBRANCH   1  18
BRANCH   1  21
ATOM     21  CB  ARG A   1     -36.685  25.685   4.508  0.00  0.00    +0.033 C 
BRANCH  21  22
ATOM     22  CG  ARG A   1     -37.030  25.216   3.090  0.00  0.00    +0.029 C 
BRANCH  22  23
ATOM     23  CD  ARG A   1     -38.448  24.656   3.026  0.00  0.00    +0.129 C 
BRANCH  23  24
ATOM     24  NE  ARG A   1     -38.381  23.195   2.972  0.00  0.00    -0.240 NA
BRANCH  24  27
ATOM     25  NH1 ARG A   1     -39.327  21.220   2.211  0.00  0.00    -0.370 N 
ATOM     26  NH2 ARG A   1     -40.389  23.159   1.654  0.00  0.00    -0.370 N 
ATOM     27  CZ  ARG A   1     -39.321  22.592   2.313  0.00  0.00    +0.189 C 
ATOM     28 HH11 ARG A   1     -38.616  20.692   2.640  0.00  0.00    +0.159 HD
ATOM     29 HH12 ARG A   1     -40.043  20.767   1.709  0.00  0.00    +0.159 HD
ATOM     30 HH21 ARG A   1     -40.501  24.137   1.650  0.00  0.00    +0.159 HD
ATOM     31 HH22 ARG A   1     -41.039  22.586   1.186  0.00  0.00    +0.159 HD
ENDBRANCH  24  27
ENDBRANCH  23  24
ENDBRANCH  22  23
ENDBRANCH  21  22
ENDBRANCH   1  21
TORSDOF 11
ENDMDL
MODEL 2
REMARK VINA RESULT:      -5.9      1.236      1.694
REMARK  Name = 53360350
REMARK  11 active torsions:
REMARK  status: ('A' for Active; 'I' for Inactive)
REMARK    1  A    between atoms: CA_1  and  N_3
REMARK    2  A    between atoms: CA_1  and  C_18
REMARK    3  A    between atoms: CA_1  and  CB_21
REMARK    4  A    between atoms: C_4  and  C_6
REMARK    5  A    between atoms: C_7  and  C_9
REMARK    6  A    between atoms: C_12  and  O_15
REMARK    7  A    between atoms: C_18  and  O_19
REMARK    8  A    between atoms: CB_21  and  CG_22
REMARK    9  A    between atoms: CG_22  and  CD_23
REMARK   10  A    between atoms: CD_23  and  NE_24
REMARK   11  A    between atoms: NE_24  and  CZ_27
REMARK                            x       y       z     vdW  Elec       q    Type
REMARK                         _______ _______ _______ _____ _____    ______ ____
ROOT
ATOM      1  CA  ARG A   1     -35.365  24.776   5.266  0.00  0.00    +0.172 C 
ENDROOT
BRANCH   1   3
ATOM      2  O   UNK A   0     -35.904  22.147   6.355  0.00  0.00    -0.270 OA
ATOM      3  N   ARG A   1     -35.242  23.509   4.591  0.00  0.00    -0.293 N 
ATOM      4  C   UNK A   0     -35.524  22.295   5.198  0.00  0.00    +0.246 C 
ATOM      5  H   ARG A   1     -34.943  23.506   3.652  0.00  0.00    +0.150 HD
BRANCH   4   6
ATOM      6  C   UNK A   0     -35.313  21.146   4.270  0.00  0.00    +0.058 C 
ATOM      7  C   UNK A   0     -35.459  21.319   2.948  0.00  0.00    +0.005 C 
BRANCH   7   9
ATOM      8 BR   UNK A   0     -37.657  18.240  -0.794  0.00  0.00    -0.046 Br
ATOM      9  C   UNK A   0     -35.268  20.260   1.941  0.00  0.00    +0.001 C 
ATOM     10  C   UNK A   0     -36.349  19.818   1.179  0.00  0.00    +0.010 C 
ATOM     11  C   UNK A   0     -34.004  19.700   1.752  0.00  0.00    +0.003 C 
ATOM     12  C   UNK A   0     -34.903  18.253   0.038  0.00  0.00    +0.145 C 
ATOM     13  C   UNK A   0     -36.166  18.814   0.226  0.00  0.00    +0.068 C 
ATOM     14  C   UNK A   0     -33.822  18.697   0.800  0.00  0.00    +0.037 C 
BRANCH  12  15
ATOM     15  O   UNK A   0     -34.692  17.272  -0.884  0.00  0.00    -0.471 OA
ATOM     16  C   UNK A   0     -34.310  15.990  -0.389  0.00  0.00    +0.252 C 
ENDBRANCH  12  15
ENDBRANCH   7   9
ENDBRANCH   4   6
ENDBRANCH   1   3
BRANCH   1  18
ATOM     17  OXT ARG A   1     -33.219  25.286   4.229  0.00  0.00    -0.248 OA
ATOM     18  C   ARG A   1     -34.075  25.548   5.064  0.00  0.00    +0.332 C 
BRANCH  18  19
ATOM     19  O   ARG A   1     -33.984  26.614   5.903  0.00  0.00    -0.479 OA
ATOM     20  H   ARG A   1     -34.566  27.342   5.799  0.00  0.00    +0.295 HD
ENDBRANCH  18  19
ENDBRANCH   1  18
BRANCH   1  21
ATOM     21  CB  ARG A   1     -36.595  25.569   4.813  0.00  0.00    +0.033 C 
BRANCH  21  22
ATOM     22  CG  ARG A   1     -36.961  25.371   3.338  0.00  0.00    +0.029 C 
BRANCH  22  23
ATOM     23  CD  ARG A   1     -38.356  24.771   3.193  0.00  0.00    +0.129 C 
BRANCH  23  24
ATOM     24  NE  ARG A   1     -38.244  23.312   3.136  0.00  0.00    -0.240 NA
BRANCH  24  27
ATOM     25  NH1 ARG A   1     -39.234  21.390   2.300  0.00  0.00    -0.370 N 
ATOM     26  NH2 ARG A   1     -39.294  23.246   0.977  0.00  0.00    -0.370 N 
ATOM     27  CZ  ARG A   1     -38.884  22.715   2.180  0.00  0.00    +0.189 C 
ATOM     28 HH11 ARG A   1     -38.999  20.891   3.115  0.00  0.00    +0.159 HD
ATOM     29 HH12 ARG A   1     -39.720  20.941   1.571  0.00  0.00    +0.159 HD
ATOM     30 HH21 ARG A   1     -39.105  24.188   0.765  0.00  0.00    +0.159 HD
ATOM     31 HH22 ARG A   1     -39.775  22.682   0.329  0.00  0.00    +0.159 HD
ENDBRANCH  24  27
ENDBRANCH  23  24
ENDBRANCH  22  23
ENDBRANCH  21  22
ENDBRANCH   1  21
TORSDOF 11
ENDMDL
MODEL 3
REMARK VINA RESULT:      -5.9      4.448      6.612
REMARK  Name = 53360350
REMARK  11 active torsions:
REMARK  status: ('A' for Active; 'I' for Inactive)
REMARK    1  A    between atoms: CA_1  and  N_3
REMARK    2  A    between atoms: CA_1  and  C_18
REMARK    3  A    between atoms: CA_1  and  CB_21
REMARK    4  A    between atoms: C_4  and  C_6
REMARK    5  A    between atoms: C_7  and  C_9
REMARK    6  A    between atoms: C_12  and  O_15
REMARK    7  A    between atoms: C_18  and  O_19
REMARK    8  A    between atoms: CB_21  and  CG_22
REMARK    9  A    between atoms: CG_22  and  CD_23
REMARK   10  A    between atoms: CD_23  and  NE_24
REMARK   11  A    between atoms: NE_24  and  CZ_27
REMARK                            x       y       z     vdW  Elec       q    Type
REMARK                         _______ _______ _______ _____ _____    ______ ____
ROOT
ATOM      1  CA  ARG A   1     -31.706  29.092   6.346  0.00  0.00    +0.172 C 
ENDROOT
BRANCH   1   3
ATOM      2  O   UNK A   0     -33.021  26.708   7.335  0.00  0.00    -0.270 OA
ATOM      3  N   ARG A   1     -32.530  28.176   5.600  0.00  0.00    -0.293 N 
ATOM      4  C   UNK A   0     -33.121  27.054   6.162  0.00  0.00    +0.246 C 
ATOM      5  H   ARG A   1     -32.682  28.355   4.643  0.00  0.00    +0.150 HD
BRANCH   4   6
ATOM      6  C   UNK A   0     -33.920  26.286   5.165  0.00  0.00    +0.058 C 
ATOM      7  C   UNK A   0     -34.831  25.394   5.583  0.00  0.00    +0.005 C 
BRANCH   7   9
ATOM      8 BR   UNK A   0     -35.438  20.872   2.846  0.00  0.00    -0.046 Br
ATOM      9  C   UNK A   0     -35.681  24.588   4.690  0.00  0.00    +0.001 C 
ATOM     10  C   UNK A   0     -35.249  23.334   4.258  0.00  0.00    +0.010 C 
ATOM     11  C   UNK A   0     -36.919  25.080   4.275  0.00  0.00    +0.003 C 
ATOM     12  C   UNK A   0     -37.292  23.065   2.995  0.00  0.00    +0.145 C 
ATOM     13  C   UNK A   0     -36.055  22.572   3.410  0.00  0.00    +0.068 C 
ATOM     14  C   UNK A   0     -37.725  24.319   3.428  0.00  0.00    +0.037 C 
BRANCH  12  15
ATOM     15  O   UNK A   0     -38.102  22.346   2.168  0.00  0.00    -0.471 OA
ATOM     16  C   UNK A   0     -39.480  22.712   2.134  0.00  0.00    +0.252 C 
ENDBRANCH  12  15
ENDBRANCH   7   9
ENDBRANCH   4   6
ENDBRANCH   1   3
BRANCH   1  18
ATOM     17  OXT ARG A   1     -29.811  27.890   5.395  0.00  0.00    -0.248 OA
ATOM     18  C   ARG A   1     -30.271  28.603   6.276  0.00  0.00    +0.332 C 
BRANCH  18  19
ATOM     19  O   ARG A   1     -29.520  29.085   7.301  0.00  0.00    -0.479 OA
ATOM     20  H   ARG A   1     -28.767  28.609   7.594  0.00  0.00    +0.295 HD
ENDBRANCH  18  19
ENDBRANCH   1  18
BRANCH   1  21
ATOM     21  CB  ARG A   1     -31.851  30.540   5.869  0.00  0.00    +0.033 C 
BRANCH  21  22
ATOM     22  CG  ARG A   1     -31.468  30.758   4.401  0.00  0.00    +0.029 C 
BRANCH  22  23
ATOM     23  CD  ARG A   1     -32.690  31.125   3.563  0.00  0.00    +0.129 C 
BRANCH  23  24
ATOM     24  NE  ARG A   1     -33.336  29.896   3.099  0.00  0.00    -0.240 NA
BRANCH  24  27
ATOM     25  NH1 ARG A   1     -35.288  28.650   3.005  0.00  0.00    -0.370 N 
ATOM     26  NH2 ARG A   1     -35.494  30.858   3.534  0.00  0.00    -0.370 N 
ATOM     27  CZ  ARG A   1     -34.626  29.837   3.214  0.00  0.00    +0.189 C 
ATOM     28 HH11 ARG A   1     -34.782  27.839   2.769  0.00  0.00    +0.159 HD
ATOM     29 HH12 ARG A   1     -36.268  28.610   3.093  0.00  0.00    +0.159 HD
ATOM     30 HH21 ARG A   1     -35.147  31.762   3.708  0.00  0.00    +0.159 HD
ATOM     31 HH22 ARG A   1     -36.462  30.682   3.588  0.00  0.00    +0.159 HD
ENDBRANCH  24  27
ENDBRANCH  23  24
ENDBRANCH  22  23
ENDBRANCH  21  22
ENDBRANCH   1  21
TORSDOF 11
ENDMDL
MODEL 4
REMARK VINA RESULT:      -5.9      1.994      3.234
REMARK  Name = 53360350
REMARK  11 active torsions:
REMARK  status: ('A' for Active; 'I' for Inactive)
REMARK    1  A    between atoms: CA_1  and  N_3
REMARK    2  A    between atoms: CA_1  and  C_18
REMARK    3  A    between atoms: CA_1  and  CB_21
REMARK    4  A    between atoms: C_4  and  C_6
REMARK    5  A    between atoms: C_7  and  C_9
REMARK    6  A    between atoms: C_12  and  O_15
REMARK    7  A    between atoms: C_18  and  O_19
REMARK    8  A    between atoms: CB_21  and  CG_22
REMARK    9  A    between atoms: CG_22  and  CD_23
REMARK   10  A    between atoms: CD_23  and  NE_24
REMARK   11  A    between atoms: NE_24  and  CZ_27
REMARK                            x       y       z     vdW  Elec       q    Type
REMARK                         _______ _______ _______ _____ _____    ______ ____
ROOT
ATOM      1  CA  ARG A   1     -35.619  24.880   5.231  0.00  0.00    +0.172 C 
ENDROOT
BRANCH   1   3
ATOM      2  O   UNK A   0     -35.978  22.205   6.281  0.00  0.00    -0.270 OA
ATOM      3  N   ARG A   1     -35.366  23.635   4.553  0.00  0.00    -0.293 N 
ATOM      4  C   UNK A   0     -35.568  22.395   5.141  0.00  0.00    +0.246 C 
ATOM      5  H   ARG A   1     -35.033  23.665   3.626  0.00  0.00    +0.150 HD
BRANCH   4   6
ATOM      6  C   UNK A   0     -35.230  21.277   4.214  0.00  0.00    +0.058 C 
ATOM      7  C   UNK A   0     -35.639  21.319   2.937  0.00  0.00    +0.005 C 
BRANCH   7   9
ATOM      8 BR   UNK A   0     -32.087  17.948   0.856  0.00  0.00    -0.046 Br
ATOM      9  C   UNK A   0     -35.355  20.278   1.934  0.00  0.00    +0.001 C 
ATOM     10  C   UNK A   0     -34.087  19.699   1.867  0.00  0.00    +0.010 C 
ATOM     11  C   UNK A   0     -36.355  19.872   1.050  0.00  0.00    +0.003 C 
ATOM     12  C   UNK A   0     -34.819  18.309   0.031  0.00  0.00    +0.145 C 
ATOM     13  C   UNK A   0     -33.819  18.714   0.916  0.00  0.00    +0.068 C 
ATOM     14  C   UNK A   0     -36.087  18.887   0.099  0.00  0.00    +0.037 C 
BRANCH  12  15
ATOM     15  O   UNK A   0     -34.589  17.350  -0.909  0.00  0.00    -0.471 OA
ATOM     16  C   UNK A   0     -35.627  16.396  -1.127  0.00  0.00    +0.252 C 
ENDBRANCH  12  15
ENDBRANCH   7   9
ENDBRANCH   4   6
ENDBRANCH   1   3
BRANCH   1  18
ATOM     17  OXT ARG A   1     -34.042  26.393   6.311  0.00  0.00    -0.248 OA
ATOM     18  C   ARG A   1     -34.294  25.596   5.417  0.00  0.00    +0.332 C 
BRANCH  18  19
ATOM     19  O   ARG A   1     -33.379  25.219   4.486  0.00  0.00    -0.479 OA
ATOM     20  H   ARG A   1     -32.810  25.859   4.103  0.00  0.00    +0.295 HD
ENDBRANCH  18  19
ENDBRANCH   1  18
BRANCH   1  21
ATOM     21  CB  ARG A   1     -36.652  25.748   4.507  0.00  0.00    +0.033 C 
BRANCH  21  22
ATOM     22  CG  ARG A   1     -36.626  25.612   2.980  0.00  0.00    +0.029 C 
BRANCH  22  23
ATOM     23  CD  ARG A   1     -36.327  26.952   2.314  0.00  0.00    +0.129 C 
BRANCH  23  24
ATOM     24  NE  ARG A   1     -34.891  27.221   2.407  0.00  0.00    -0.240 NA
BRANCH  24  27
ATOM     25  NH1 ARG A   1     -35.321  29.404   3.057  0.00  0.00    -0.370 N 
ATOM     26  NH2 ARG A   1     -33.413  28.444   3.852  0.00  0.00    -0.370 N 
ATOM     27  CZ  ARG A   1     -34.536  28.274   3.074  0.00  0.00    +0.189 C 
ATOM     28 HH11 ARG A   1     -36.157  29.414   2.537  0.00  0.00    +0.159 HD
ATOM     29 HH12 ARG A   1     -35.048  30.201   3.566  0.00  0.00    +0.159 HD
ATOM     30 HH21 ARG A   1     -32.766  27.708   3.948  0.00  0.00    +0.159 HD
ATOM     31 HH22 ARG A   1     -33.256  29.301   4.311  0.00  0.00    +0.159 HD
ENDBRANCH  24  27
ENDBRANCH  23  24
ENDBRANCH  22  23
ENDBRANCH  21  22
ENDBRANCH   1  21
TORSDOF 11
ENDMDL
MODEL 5
REMARK VINA RESULT:      -5.9      2.558      4.451
REMARK  Name = 53360350
REMARK  11 active torsions:
REMARK  status: ('A' for Active; 'I' for Inactive)
REMARK    1  A    between atoms: CA_1  and  N_3
REMARK    2  A    between atoms: CA_1  and  C_18
REMARK    3  A    between atoms: CA_1  and  CB_21
REMARK    4  A    between atoms: C_4  and  C_6
REMARK    5  A    between atoms: C_7  and  C_9
REMARK    6  A    between atoms: C_12  and  O_15
REMARK    7  A    between atoms: C_18  and  O_19
REMARK    8  A    between atoms: CB_21  and  CG_22
REMARK    9  A    between atoms: CG_22  and  CD_23
REMARK   10  A    between atoms: CD_23  and  NE_24
REMARK   11  A    between atoms: NE_24  and  CZ_27
REMARK                            x       y       z     vdW  Elec       q    Type
REMARK                         _______ _______ _______ _____ _____    ______ ____
ROOT
ATOM      1  CA  ARG A   1     -35.853  22.231   4.336  0.00  0.00    +0.172 C 
ENDROOT
BRANCH   1   3
ATOM      2  O   UNK A   0     -37.098  21.429   1.847  0.00  0.00    -0.270 OA
ATOM      3  N   ARG A   1     -35.426  21.183   3.444  0.00  0.00    -0.293 N 
ATOM      4  C   UNK A   0     -36.091  20.870   2.268  0.00  0.00    +0.246 C 
ATOM      5  H   ARG A   1     -34.624  20.664   3.682  0.00  0.00    +0.150 HD
BRANCH   4   6
ATOM      6  C   UNK A   0     -35.434  19.747   1.538  0.00  0.00    +0.058 C 
ATOM      7  C   UNK A   0     -34.100  19.612   1.581  0.00  0.00    +0.005 C 
BRANCH   7   9
ATOM      8 BR   UNK A   0     -29.380  17.319   0.701  0.00  0.00    -0.046 Br
ATOM      9  C   UNK A   0     -33.347  18.540   0.908  0.00  0.00    +0.001 C 
ATOM     10  C   UNK A   0     -31.966  18.441   1.081  0.00  0.00    +0.010 C 
ATOM     11  C   UNK A   0     -34.016  17.623   0.096  0.00  0.00    +0.003 C 
ATOM     12  C   UNK A   0     -31.923  16.509  -0.371  0.00  0.00    +0.145 C 
ATOM     13  C   UNK A   0     -31.254  17.425   0.441  0.00  0.00    +0.068 C 
ATOM     14  C   UNK A   0     -33.304  16.608  -0.543  0.00  0.00    +0.037 C 
BRANCH  12  15
ATOM     15  O   UNK A   0     -31.257  15.506  -1.009  0.00  0.00    -0.471 OA
ATOM     16  C   UNK A   0     -31.754  14.182  -0.828  0.00  0.00    +0.252 C 
ENDBRANCH  12  15
ENDBRANCH   7   9
ENDBRANCH   4   6
ENDBRANCH   1   3
BRANCH   1  18
ATOM     17  OXT ARG A   1     -35.801  22.446   6.764  0.00  0.00    -0.248 OA
ATOM     18  C   ARG A   1     -35.581  21.781   5.760  0.00  0.00    +0.332 C 
BRANCH  18  19
ATOM     19  O   ARG A   1     -35.092  20.514   5.807  0.00  0.00    -0.479 OA
ATOM     20  H   ARG A   1     -35.473  19.887   6.390  0.00  0.00    +0.295 HD
ENDBRANCH  18  19
ENDBRANCH   1  18
BRANCH   1  21
ATOM     21  CB  ARG A   1     -35.201  23.579   4.018  0.00  0.00    +0.033 C 
BRANCH  21  22
ATOM     22  CG  ARG A   1     -36.165  24.770   4.062  0.00  0.00    +0.029 C 
BRANCH  22  23
ATOM     23  CD  ARG A   1     -35.882  25.662   5.267  0.00  0.00    +0.129 C 
BRANCH  23  24
ATOM     24  NE  ARG A   1     -34.488  25.481   5.677  0.00  0.00    -0.240 NA
BRANCH  24  27
ATOM     25  NH1 ARG A   1     -33.637  27.341   4.587  0.00  0.00    -0.370 N 
ATOM     26  NH2 ARG A   1     -32.992  27.024   6.750  0.00  0.00    -0.370 N 
ATOM     27  CZ  ARG A   1     -33.745  26.542   5.702  0.00  0.00    +0.189 C 
ATOM     28 HH11 ARG A   1     -34.128  27.108   3.766  0.00  0.00    +0.159 HD
ATOM     29 HH12 ARG A   1     -33.071  28.146   4.610  0.00  0.00    +0.159 HD
ATOM     30 HH21 ARG A   1     -32.981  26.543   7.609  0.00  0.00    +0.159 HD
ATOM     31 HH22 ARG A   1     -32.465  27.848   6.640  0.00  0.00    +0.159 HD
ENDBRANCH  24  27
ENDBRANCH  23  24
ENDBRANCH  22  23
ENDBRANCH  21  22
ENDBRANCH   1  21
TORSDOF 11
ENDMDL
MODEL 6
REMARK VINA RESULT:      -5.8      2.323      3.591
REMARK  Name = 53360350
REMARK  11 active torsions:
REMARK  status: ('A' for Active; 'I' for Inactive)
REMARK    1  A    between atoms: CA_1  and  N_3
REMARK    2  A    between atoms: CA_1  and  C_18
REMARK    3  A    between atoms: CA_1  and  CB_21
REMARK    4  A    between atoms: C_4  and  C_6
REMARK    5  A    between atoms: C_7  and  C_9
REMARK    6  A    between atoms: C_12  and  O_15
REMARK    7  A    between atoms: C_18  and  O_19
REMARK    8  A    between atoms: CB_21  and  CG_22
REMARK    9  A    between atoms: CG_22  and  CD_23
REMARK   10  A    between atoms: CD_23  and  NE_24
REMARK   11  A    between atoms: NE_24  and  CZ_27
REMARK                            x       y       z     vdW  Elec       q    Type
REMARK                         _______ _______ _______ _____ _____    ______ ____
ROOT
ATOM      1  CA  ARG A   1     -35.641  24.935   5.241  0.00  0.00    +0.172 C 
ENDROOT
BRANCH   1   3
ATOM      2  O   UNK A   0     -35.870  22.291   6.401  0.00  0.00    -0.270 OA
ATOM      3  N   ARG A   1     -35.446  23.671   4.578  0.00  0.00    -0.293 N 
ATOM      4  C   UNK A   0     -35.577  22.449   5.220  0.00  0.00    +0.246 C 
ATOM      5  H   ARG A   1     -35.207  23.676   3.622  0.00  0.00    +0.150 HD
BRANCH   4   6
ATOM      6  C   UNK A   0     -35.322  21.305   4.297  0.00  0.00    +0.058 C 
ATOM      7  C   UNK A   0     -35.615  21.419   2.993  0.00  0.00    +0.005 C 
BRANCH   7   9
ATOM      8 BR   UNK A   0     -37.735  18.258  -0.725  0.00  0.00    -0.046 Br
ATOM      9  C   UNK A   0     -35.397  20.360   1.993  0.00  0.00    +0.001 C 
ATOM     10  C   UNK A   0     -36.467  19.883   1.235  0.00  0.00    +0.010 C 
ATOM     11  C   UNK A   0     -34.119  19.833   1.804  0.00  0.00    +0.003 C 
ATOM     12  C   UNK A   0     -34.981  18.352   0.100  0.00  0.00    +0.145 C 
ATOM     13  C   UNK A   0     -36.259  18.879   0.288  0.00  0.00    +0.068 C 
ATOM     14  C   UNK A   0     -33.911  18.830   0.857  0.00  0.00    +0.037 C 
BRANCH  12  15
ATOM     15  O   UNK A   0     -34.745  17.371  -0.816  0.00  0.00    -0.471 OA
ATOM     16  C   UNK A   0     -34.506  16.059  -0.312  0.00  0.00    +0.252 C 
ENDBRANCH  12  15
ENDBRANCH   7   9
ENDBRANCH   4   6
ENDBRANCH   1   3
BRANCH   1  18
ATOM     17  OXT ARG A   1     -33.994  26.391   6.295  0.00  0.00    -0.248 OA
ATOM     18  C   ARG A   1     -34.286  25.595   5.411  0.00  0.00    +0.332 C 
BRANCH  18  19
ATOM     19  O   ARG A   1     -33.393  25.170   4.479  0.00  0.00    -0.479 OA
ATOM     20  H   ARG A   1     -32.800  25.781   4.086  0.00  0.00    +0.295 HD
ENDBRANCH  18  19
ENDBRANCH   1  18
BRANCH   1  21
ATOM     21  CB  ARG A   1     -36.640  25.837   4.510  0.00  0.00    +0.033 C 
BRANCH  21  22
ATOM     22  CG  ARG A   1     -36.633  25.674   2.986  0.00  0.00    +0.029 C 
BRANCH  22  23
ATOM     23  CD  ARG A   1     -36.290  26.990   2.294  0.00  0.00    +0.129 C 
BRANCH  23  24
ATOM     24  NE  ARG A   1     -34.851  27.232   2.416  0.00  0.00    -0.240 NA
BRANCH  24  27
ATOM     25  NH1 ARG A   1     -35.262  29.412   3.087  0.00  0.00    -0.370 N 
ATOM     26  NH2 ARG A   1     -33.371  28.422   3.886  0.00  0.00    -0.370 N 
ATOM     27  CZ  ARG A   1     -34.490  28.274   3.098  0.00  0.00    +0.189 C 
ATOM     28 HH11 ARG A   1     -36.094  29.437   2.560  0.00  0.00    +0.159 HD
ATOM     29 HH12 ARG A   1     -34.984  30.201   3.606  0.00  0.00    +0.159 HD
ATOM     30 HH21 ARG A   1     -32.733  27.678   3.979  0.00  0.00    +0.159 HD
ATOM     31 HH22 ARG A   1     -33.208  29.273   4.355  0.00  0.00    +0.159 HD
ENDBRANCH  24  27
ENDBRANCH  23  24
ENDBRANCH  22  23
ENDBRANCH  21  22
ENDBRANCH   1  21
TORSDOF 11
ENDMDL
MODEL 7
REMARK VINA RESULT:      -5.8      5.302      8.348
REMARK  Name = 53360350
REMARK  11 active torsions:
REMARK  status: ('A' for Active; 'I' for Inactive)
REMARK    1  A    between atoms: CA_1  and  N_3
REMARK    2  A    between atoms: CA_1  and  C_18
REMARK    3  A    between atoms: CA_1  and  CB_21
REMARK    4  A    between atoms: C_4  and  C_6
REMARK    5  A    between atoms: C_7  and  C_9
REMARK    6  A    between atoms: C_12  and  O_15
REMARK    7  A    between atoms: C_18  and  O_19
REMARK    8  A    between atoms: CB_21  and  CG_22
REMARK    9  A    between atoms: CG_22  and  CD_23
REMARK   10  A    between atoms: CD_23  and  NE_24
REMARK   11  A    between atoms: NE_24  and  CZ_27
REMARK                            x       y       z     vdW  Elec       q    Type
REMARK                         _______ _______ _______ _____ _____    ______ ____
ROOT
ATOM      1  CA  ARG A   1     -36.103  24.387   4.666  0.00  0.00    +0.172 C 
ENDROOT
BRANCH   1   3
ATOM      2  O   UNK A   0     -37.553  24.226   2.164  0.00  0.00    -0.270 OA
ATOM      3  N   ARG A   1     -37.511  24.609   4.457  0.00  0.00    -0.293 N 
ATOM      4  C   UNK A   0     -38.119  24.509   3.215  0.00  0.00    +0.246 C 
ATOM      5  H   ARG A   1     -38.068  24.843   5.235  0.00  0.00    +0.150 HD
BRANCH   4   6
ATOM      6  C   UNK A   0     -39.583  24.787   3.287  0.00  0.00    +0.058 C 
ATOM      7  C   UNK A   0     -40.067  25.946   2.818  0.00  0.00    +0.005 C 
BRANCH   7   9
ATOM      8 BR   UNK A   0     -43.882  29.001   4.921  0.00  0.00    -0.046 Br
ATOM      9  C   UNK A   0     -41.492  26.322   2.829  0.00  0.00    +0.001 C 
ATOM     10  C   UNK A   0     -41.948  27.305   3.707  0.00  0.00    +0.010 C 
ATOM     11  C   UNK A   0     -42.385  25.692   1.961  0.00  0.00    +0.003 C 
ATOM     12  C   UNK A   0     -44.191  27.028   2.851  0.00  0.00    +0.145 C 
ATOM     13  C   UNK A   0     -43.298  27.659   3.718  0.00  0.00    +0.068 C 
ATOM     14  C   UNK A   0     -43.734  26.046   1.972  0.00  0.00    +0.037 C 
BRANCH  12  15
ATOM     15  O   UNK A   0     -45.515  27.351   2.836  0.00  0.00    -0.471 OA
ATOM     16  C   UNK A   0     -46.227  27.109   1.625  0.00  0.00    +0.252 C 
ENDBRANCH  12  15
ENDBRANCH   7   9
ENDBRANCH   4   6
ENDBRANCH   1   3
BRANCH   1  18
ATOM     17  OXT ARG A   1     -34.270  25.903   5.201  0.00  0.00    -0.248 OA
ATOM     18  C   ARG A   1     -35.472  25.704   5.079  0.00  0.00    +0.332 C 
BRANCH  18  19
ATOM     19  O   ARG A   1     -36.402  26.676   5.266  0.00  0.00    -0.479 OA
ATOM     20  H   ARG A   1     -36.913  26.981   4.542  0.00  0.00    +0.295 HD
ENDBRANCH  18  19
ENDBRANCH   1  18
BRANCH   1  21
ATOM     21  CB  ARG A   1     -35.825  23.267   5.673  0.00  0.00    +0.033 C 
BRANCH  21  22
ATOM     22  CG  ARG A   1     -35.280  21.979   5.046  0.00  0.00    +0.029 C 
BRANCH  22  23
ATOM     23  CD  ARG A   1     -35.388  22.020   3.524  0.00  0.00    +0.129 C 
BRANCH  23  24
ATOM     24  NE  ARG A   1     -35.503  20.651   3.018  0.00  0.00    -0.240 NA
BRANCH  24  27
ATOM     25  NH1 ARG A   1     -36.535  19.333   1.415  0.00  0.00    -0.370 N 
ATOM     26  NH2 ARG A   1     -37.771  21.022   2.319  0.00  0.00    -0.370 N 
ATOM     27  CZ  ARG A   1     -36.553  20.377   2.309  0.00  0.00    +0.189 C 
ATOM     28 HH11 ARG A   1     -35.721  18.788   1.311  0.00  0.00    +0.159 HD
ATOM     29 HH12 ARG A   1     -37.335  19.129   0.878  0.00  0.00    +0.159 HD
ATOM     30 HH21 ARG A   1     -37.916  21.790   2.917  0.00  0.00    +0.159 HD
ATOM     31 HH22 ARG A   1     -38.495  20.715   1.726  0.00  0.00    +0.159 HD
ENDBRANCH  24  27
ENDBRANCH  23  24
ENDBRANCH  22  23
ENDBRANCH  21  22
ENDBRANCH   1  21
TORSDOF 11
ENDMDL
MODEL 8
REMARK VINA RESULT:      -5.8      5.484      8.254
REMARK  Name = 53360350
REMARK  11 active torsions:
REMARK  status: ('A' for Active; 'I' for Inactive)
REMARK    1  A    between atoms: CA_1  and  N_3
REMARK    2  A    between atoms: CA_1  and  C_18
REMARK    3  A    between atoms: CA_1  and  CB_21
REMARK    4  A    between atoms: C_4  and  C_6
REMARK    5  A    between atoms: C_7  and  C_9
REMARK    6  A    between atoms: C_12  and  O_15
REMARK    7  A    between atoms: C_18  and  O_19
REMARK    8  A    between atoms: CB_21  and  CG_22
REMARK    9  A    between atoms: CG_22  and  CD_23
REMARK   10  A    between atoms: CD_23  and  NE_24
REMARK   11  A    between atoms: NE_24  and  CZ_27
REMARK                            x       y       z     vdW  Elec       q    Type
REMARK                         _______ _______ _______ _____ _____    ______ ____
ROOT
ATOM      1  CA  ARG A   1     -29.151  28.597   6.684  0.00  0.00    +0.172 C 
ENDROOT
BRANCH   1   3
ATOM      2  O   UNK A   0     -31.864  29.500   7.146  0.00  0.00    -0.270 OA
ATOM      3  N   ARG A   1     -30.362  27.828   6.551  0.00  0.00    -0.293 N 
ATOM      4  C   UNK A   0     -31.623  28.349   6.796  0.00  0.00    +0.246 C 
ATOM      5  H   ARG A   1     -30.289  26.885   6.273  0.00  0.00    +0.150 HD
BRANCH   4   6
ATOM      6  C   UNK A   0     -32.696  27.336   6.580  0.00  0.00    +0.058 C 
ATOM      7  C   UNK A   0     -33.210  27.156   5.354  0.00  0.00    +0.005 C 
BRANCH   7   9
ATOM      8 BR   UNK A   0     -35.212  22.287   6.126  0.00  0.00    -0.046 Br
ATOM      9  C   UNK A   0     -34.263  26.180   5.024  0.00  0.00    +0.001 C 
ATOM     10  C   UNK A   0     -34.255  24.917   5.616  0.00  0.00    +0.010 C 
ATOM     11  C   UNK A   0     -35.268  26.520   4.119  0.00  0.00    +0.003 C 
ATOM     12  C   UNK A   0     -36.257  24.333   4.395  0.00  0.00    +0.145 C 
ATOM     13  C   UNK A   0     -35.252  23.993   5.302  0.00  0.00    +0.068 C 
ATOM     14  C   UNK A   0     -36.265  25.597   3.805  0.00  0.00    +0.037 C 
BRANCH  12  15
ATOM     15  O   UNK A   0     -37.245  23.454   4.067  0.00  0.00    -0.471 OA
ATOM     16  C   UNK A   0     -37.091  22.733   2.847  0.00  0.00    +0.252 C 
ENDBRANCH  12  15
ENDBRANCH   7   9
ENDBRANCH   4   6
ENDBRANCH   1   3
BRANCH   1  18
ATOM     17  OXT ARG A   1     -27.260  27.981   8.093  0.00  0.00    -0.248 OA
ATOM     18  C   ARG A   1     -28.065  27.684   7.220  0.00  0.00    +0.332 C 
BRANCH  18  19
ATOM     19  O   ARG A   1     -28.105  26.454   6.643  0.00  0.00    -0.479 OA
ATOM     20  H   ARG A   1     -27.667  25.732   7.049  0.00  0.00    +0.295 HD
ENDBRANCH  18  19
ENDBRANCH   1  18
BRANCH   1  21
ATOM     21  CB  ARG A   1     -28.741  29.283   5.377  0.00  0.00    +0.033 C 
BRANCH  21  22
ATOM     22  CG  ARG A   1     -29.077  30.778   5.320  0.00  0.00    +0.029 C 
BRANCH  22  23
ATOM     23  CD  ARG A   1     -29.963  31.097   4.119  0.00  0.00    +0.129 C 
BRANCH  23  24
ATOM     24  NE  ARG A   1     -30.832  29.949   3.850  0.00  0.00    -0.240 NA
BRANCH  24  27
ATOM     25  NH1 ARG A   1     -32.555  30.081   2.305  0.00  0.00    -0.370 N 
ATOM     26  NH2 ARG A   1     -33.055  30.620   4.463  0.00  0.00    -0.370 N 
ATOM     27  CZ  ARG A   1     -32.075  30.208   3.588  0.00  0.00    +0.189 C 
ATOM     28 HH11 ARG A   1     -31.954  29.791   1.581  0.00  0.00    +0.159 HD
ATOM     29 HH12 ARG A   1     -33.500  30.278   2.111  0.00  0.00    +0.159 HD
ATOM     30 HH21 ARG A   1     -32.842  30.751   5.414  0.00  0.00    +0.159 HD
ATOM     31 HH22 ARG A   1     -33.969  30.786   4.135  0.00  0.00    +0.159 HD
ENDBRANCH  24  27
ENDBRANCH  23  24
ENDBRANCH  22  23
ENDBRANCH  21  22
ENDBRANCH   1  21
TORSDOF 11
ENDMDL
MODEL 9
REMARK VINA RESULT:      -5.7      3.239      4.830
REMARK  Name = 53360350
REMARK  11 active torsions:
REMARK  status: ('A' for Active; 'I' for Inactive)
REMARK    1  A    between atoms: CA_1  and  N_3
REMARK    2  A    between atoms: CA_1  and  C_18
REMARK    3  A    between atoms: CA_1  and  CB_21
REMARK    4  A    between atoms: C_4  and  C_6
REMARK    5  A    between atoms: C_7  and  C_9
REMARK    6  A    between atoms: C_12  and  O_15
REMARK    7  A    between atoms: C_18  and  O_19
REMARK    8  A    between atoms: CB_21  and  CG_22
REMARK    9  A    between atoms: CG_22  and  CD_23
REMARK   10  A    between atoms: CD_23  and  NE_24
REMARK   11  A    between atoms: NE_24  and  CZ_27
REMARK                            x       y       z     vdW  Elec       q    Type
REMARK                         _______ _______ _______ _____ _____    ______ ____
ROOT
ATOM      1  CA  ARG A   1     -36.062  21.983   3.509  0.00  0.00    +0.172 C 
ENDROOT
BRANCH   1   3
ATOM      2  O   UNK A   0     -36.434  19.946   1.485  0.00  0.00    -0.270 OA
ATOM      3  N   ARG A   1     -35.057  21.118   2.947  0.00  0.00    -0.293 N 
ATOM      4  C   UNK A   0     -35.332  20.166   1.976  0.00  0.00    +0.246 C 
ATOM      5  H   ARG A   1     -34.130  21.206   3.268  0.00  0.00    +0.150 HD
BRANCH   4   6
ATOM      6  C   UNK A   0     -34.109  19.412   1.573  0.00  0.00    +0.058 C 
ATOM      7  C   UNK A   0     -33.106  20.050   0.953  0.00  0.00    +0.005 C 
BRANCH   7   9
ATOM      8 BR   UNK A   0     -28.656  20.409  -1.943  0.00  0.00    -0.046 Br
ATOM      9  C   UNK A   0     -31.851  19.410   0.519  0.00  0.00    +0.001 C 
ATOM     10  C   UNK A   0     -30.990  20.078  -0.351  0.00  0.00    +0.010 C 
ATOM     11  C   UNK A   0     -31.526  18.133   0.978  0.00  0.00    +0.003 C 
ATOM     12  C   UNK A   0     -29.479  18.193  -0.304  0.00  0.00    +0.145 C 
ATOM     13  C   UNK A   0     -29.803  19.470  -0.763  0.00  0.00    +0.068 C 
ATOM     14  C   UNK A   0     -30.340  17.525   0.567  0.00  0.00    +0.037 C 
BRANCH  12  15
ATOM     15  O   UNK A   0     -28.328  17.572  -0.686  0.00  0.00    -0.471 OA
ATOM     16  C   UNK A   0     -27.635  16.824   0.310  0.00  0.00    +0.252 C 
ENDBRANCH  12  15
ENDBRANCH   7   9
ENDBRANCH   4   6
ENDBRANCH   1   3
BRANCH   1  18
ATOM     17  OXT ARG A   1     -35.972  23.162   5.641  0.00  0.00    -0.248 OA
ATOM     18  C   ARG A   1     -35.775  22.144   4.990  0.00  0.00    +0.332 C 
BRANCH  18  19
ATOM     19  O   ARG A   1     -35.300  20.997   5.543  0.00  0.00    -0.479 OA
ATOM     20  H   ARG A   1     -34.548  20.577   5.175  0.00  0.00    +0.295 HD
ENDBRANCH  18  19
ENDBRANCH   1  18
BRANCH   1  21
ATOM     21  CB  ARG A   1     -36.153  23.330   2.785  0.00  0.00    +0.033 C 
BRANCH  21  22
ATOM     22  CG  ARG A   1     -34.818  23.833   2.224  0.00  0.00    +0.029 C 
BRANCH  22  23
ATOM     23  CD  ARG A   1     -34.703  25.349   2.355  0.00  0.00    +0.129 C 
BRANCH  23  24
ATOM     24  NE  ARG A   1     -34.493  25.691   3.763  0.00  0.00    -0.240 NA
BRANCH  24  27
ATOM     25  NH1 ARG A   1     -35.230  27.885   3.872  0.00  0.00    -0.370 N 
ATOM     26  NH2 ARG A   1     -36.268  26.376   5.229  0.00  0.00    -0.370 N 
ATOM     27  CZ  ARG A   1     -35.294  26.572   4.275  0.00  0.00    +0.189 C 
ATOM     28 HH11 ARG A   1     -34.574  28.160   3.191  0.00  0.00    +0.159 HD
ATOM     29 HH12 ARG A   1     -35.841  28.551   4.264  0.00  0.00    +0.159 HD
ATOM     30 HH21 ARG A   1     -36.417  25.478   5.602  0.00  0.00    +0.159 HD
ATOM     31 HH22 ARG A   1     -36.814  27.135   5.538  0.00  0.00    +0.159 HD
ENDBRANCH  24  27
ENDBRANCH  23  24
ENDBRANCH  22  23
ENDBRANCH  21  22
ENDBRANCH   1  21
TORSDOF 11
ENDMDL
