MODEL 1
REMARK VINA RESULT:      -6.6      0.000      0.000
REMARK  Name = 57775240
REMARK  7 active torsions:
REMARK  status: ('A' for Active; 'I' for Inactive)
REMARK    1  A    between atoms: C_1  and  C_16
REMARK    2  A    between atoms: C_2  and  O_20
REMARK    3  A    between atoms: C_4  and  N_9
REMARK    4  A    between atoms: C_5  and  C_22
REMARK    5  A    between atoms: C_23  and  C_24
REMARK    6  A    between atoms: C_27  and  N_30
REMARK    7  A    between atoms: N_30  and  S_32
REMARK                            x       y       z     vdW  Elec       q    Type
REMARK                         _______ _______ _______ _____ _____    ______ ____
ROOT
ATOM      1  C   UNL     1     -37.729  22.427   1.857  0.00  0.00    +0.012 C 
ATOM      2  C   UNL     1     -37.041  21.261   1.521  0.00  0.00    +0.135 C 
ATOM      3  C   UNL     1     -37.101  23.411   2.621  0.00  0.00    +0.014 C 
ATOM      4  C   UNL     1     -35.786  23.229   3.048  0.00  0.00    +0.059 C 
ATOM      5  C   UNL     1     -35.726  21.079   1.949  0.00  0.00    +0.035 C 
ATOM      6  C   UNL     1     -35.099  22.063   2.712  0.00  0.00    +0.018 C 
ENDROOT
BRANCH   4   9
ATOM      7  O   UNL     1     -35.904  23.420   5.923  0.00  0.00    -0.251 OA
ATOM      8  O   UNL     1     -33.285  27.183   5.986  0.00  0.00    -0.270 OA
ATOM      9  N   UNL     1     -35.134  24.251   3.844  0.00  0.00    -0.220 N 
ATOM     10  N   UNL     1     -34.659  25.325   5.914  0.00  0.00    -0.235 N 
ATOM     11  C   UNL     1     -35.301  24.264   5.256  0.00  0.00    +0.318 C 
ATOM     12  C   UNL     1     -34.329  25.212   3.241  0.00  0.00    +0.078 C 
ATOM     13  C   UNL     1     -33.701  26.190   3.895  0.00  0.00    +0.075 C 
ATOM     14  C   UNL     1     -33.849  26.296   5.354  0.00  0.00    +0.254 C 
ATOM     15  H   UNL     1     -34.802  25.384   6.885  0.00  0.00    +0.159 HD
ENDBRANCH   4   9
BRANCH   1  16
ATOM     16  C   UNL     1     -39.179  22.647   1.397  0.00  0.00    +0.022 C 
ATOM     17  C   UNL     1     -39.192  23.124  -0.072  0.00  0.00    +0.004 C 
ATOM     18  C   UNL     1     -40.058  21.378   1.473  0.00  0.00    +0.004 C 
ATOM     19  C   UNL     1     -39.849  23.719   2.283  0.00  0.00    +0.004 C 
ENDBRANCH   1  16
BRANCH   2  20
ATOM     20  O   UNL     1     -37.664  20.303   0.775  0.00  0.00    -0.472 OA
ATOM     21  C   UNL     1     -37.263  20.183  -0.587  0.00  0.00    +0.252 C 
ENDBRANCH   2  20
BRANCH   5  22
ATOM     22  C   UNL     1     -34.985  19.870   1.612  0.00  0.00    +0.003 C 
ATOM     23  C   UNL     1     -33.733  19.841   1.103  0.00  0.00    +0.000 C 
BRANCH  23  24
ATOM     24  C   UNL     1     -32.978  18.618   0.779  0.00  0.00    +0.000 C 
ATOM     25  C   UNL     1     -33.656  17.448   0.440  0.00  0.00    +0.001 C 
ATOM     26  C   UNL     1     -31.583  18.632   0.810  0.00  0.00    +0.001 C 
ATOM     27  C   UNL     1     -31.545  16.304   0.164  0.00  0.00    +0.064 C 
ATOM     28  C   UNL     1     -32.940  16.291   0.133  0.00  0.00    +0.016 C 
ATOM     29  C   UNL     1     -30.867  17.475   0.503  0.00  0.00    +0.016 C 
BRANCH  27  30
ATOM     30  N   UNL     1     -30.814  15.120  -0.150  0.00  0.00    -0.219 N 
ATOM     31  H   UNL     1     -30.323  14.627   0.548  0.00  0.00    +0.173 HD
BRANCH  30  32
ATOM     32  S   UNL     1     -30.812  14.574  -1.784  0.00  0.00    +0.056 S 
ATOM     33  O   UNL     1     -31.800  13.520  -1.916  0.00  0.00    -0.154 OA
ATOM     34  O   UNL     1     -30.801  15.693  -2.704  0.00  0.00    -0.154 OA
ATOM     35  C   UNL     1     -29.215  13.794  -1.852  0.00  0.00    +0.200 C 
ENDBRANCH  30  32
ENDBRANCH  27  30
ENDBRANCH  23  24
ENDBRANCH   5  22
TORSDOF 7
ENDMDL
MODEL 2
REMARK VINA RESULT:      -6.6      4.202      9.400
REMARK  Name = 57775240
REMARK  7 active torsions:
REMARK  status: ('A' for Active; 'I' for Inactive)
REMARK    1  A    between atoms: C_1  and  C_16
REMARK    2  A    between atoms: C_2  and  O_20
REMARK    3  A    between atoms: C_4  and  N_9
REMARK    4  A    between atoms: C_5  and  C_22
REMARK    5  A    between atoms: C_23  and  C_24
REMARK    6  A    between atoms: C_27  and  N_30
REMARK    7  A    between atoms: N_30  and  S_32
REMARK                            x       y       z     vdW  Elec       q    Type
REMARK                         _______ _______ _______ _____ _____    ______ ____
ROOT
ATOM      1  C   UNL     1     -37.837  23.926   1.573  0.00  0.00    +0.012 C 
ATOM      2  C   UNL     1     -36.999  24.849   2.197  0.00  0.00    +0.135 C 
ATOM      3  C   UNL     1     -37.330  22.695   1.156  0.00  0.00    +0.014 C 
ATOM      4  C   UNL     1     -35.986  22.387   1.365  0.00  0.00    +0.059 C 
ATOM      5  C   UNL     1     -35.654  24.541   2.405  0.00  0.00    +0.035 C 
ATOM      6  C   UNL     1     -35.148  23.310   1.989  0.00  0.00    +0.018 C 
ENDROOT
BRANCH   4   9
ATOM      7  O   UNL     1     -35.207  20.233   3.115  0.00  0.00    -0.251 OA
ATOM      8  O   UNL     1     -33.966  17.556  -0.395  0.00  0.00    -0.270 OA
ATOM      9  N   UNL     1     -35.460  21.108   0.931  0.00  0.00    -0.220 N 
ATOM     10  N   UNL     1     -34.536  18.956   1.355  0.00  0.00    -0.235 N 
ATOM     11  C   UNL     1     -35.070  20.137   1.893  0.00  0.00    +0.318 C 
ATOM     12  C   UNL     1     -35.349  20.811  -0.424  0.00  0.00    +0.078 C 
ATOM     13  C   UNL     1     -34.870  19.665  -0.910  0.00  0.00    +0.075 C 
ATOM     14  C   UNL     1     -34.412  18.622   0.019  0.00  0.00    +0.254 C 
ATOM     15  H   UNL     1     -34.212  18.290   2.003  0.00  0.00    +0.159 HD
ENDBRANCH   4   9
BRANCH   1  16
ATOM     16  C   UNL     1     -39.322  24.246   1.333  0.00  0.00    +0.022 C 
ATOM     17  C   UNL     1     -39.956  24.778   2.637  0.00  0.00    +0.004 C 
ATOM     18  C   UNL     1     -39.563  25.312   0.240  0.00  0.00    +0.004 C 
ATOM     19  C   UNL     1     -40.065  22.966   0.893  0.00  0.00    +0.004 C 
ENDBRANCH   1  16
BRANCH   2  20
ATOM     20  O   UNL     1     -37.503  26.053   2.600  0.00  0.00    -0.472 OA
ATOM     21  C   UNL     1     -37.123  27.198   1.842  0.00  0.00    +0.252 C 
ENDBRANCH   2  20
BRANCH   5  22
ATOM     22  C   UNL     1     -34.757  25.489   3.055  0.00  0.00    +0.003 C 
ATOM     23  C   UNL     1     -34.567  25.590   4.390  0.00  0.00    +0.000 C 
BRANCH  23  24
ATOM     24  C   UNL     1     -33.646  26.535   5.045  0.00  0.00    +0.000 C 
ATOM     25  C   UNL     1     -32.974  27.495   4.287  0.00  0.00    +0.001 C 
ATOM     26  C   UNL     1     -33.448  26.473   6.425  0.00  0.00    +0.001 C 
ATOM     27  C   UNL     1     -31.905  28.327   6.289  0.00  0.00    +0.064 C 
ATOM     28  C   UNL     1     -32.103  28.390   4.909  0.00  0.00    +0.016 C 
ATOM     29  C   UNL     1     -32.577  27.367   7.047  0.00  0.00    +0.016 C 
BRANCH  27  30
ATOM     30  N   UNL     1     -31.014  29.242   6.924  0.00  0.00    -0.219 N 
ATOM     31  H   UNL     1     -31.356  30.026   7.412  0.00  0.00    +0.173 HD
BRANCH  30  32
ATOM     32  S   UNL     1     -29.322  28.939   6.813  0.00  0.00    +0.056 S 
ATOM     33  O   UNL     1     -28.674  29.528   7.971  0.00  0.00    -0.154 OA
ATOM     34  O   UNL     1     -29.065  27.561   6.447  0.00  0.00    -0.154 OA
ATOM     35  C   UNL     1     -28.910  29.961   5.417  0.00  0.00    +0.200 C 
ENDBRANCH  30  32
ENDBRANCH  27  30
ENDBRANCH  23  24
ENDBRANCH   5  22
TORSDOF 7
ENDMDL
MODEL 3
REMARK VINA RESULT:      -6.5      1.208      1.854
REMARK  Name = 57775240
REMARK  7 active torsions:
REMARK  status: ('A' for Active; 'I' for Inactive)
REMARK    1  A    between atoms: C_1  and  C_16
REMARK    2  A    between atoms: C_2  and  O_20
REMARK    3  A    between atoms: C_4  and  N_9
REMARK    4  A    between atoms: C_5  and  C_22
REMARK    5  A    between atoms: C_23  and  C_24
REMARK    6  A    between atoms: C_27  and  N_30
REMARK    7  A    between atoms: N_30  and  S_32
REMARK                            x       y       z     vdW  Elec       q    Type
REMARK                         _______ _______ _______ _____ _____    ______ ____
ROOT
ATOM      1  C   UNL     1     -37.764  22.897   2.243  0.00  0.00    +0.012 C 
ATOM      2  C   UNL     1     -37.135  21.691   1.935  0.00  0.00    +0.135 C 
ATOM      3  C   UNL     1     -37.055  23.905   2.898  0.00  0.00    +0.014 C 
ATOM      4  C   UNL     1     -35.718  23.707   3.242  0.00  0.00    +0.059 C 
ATOM      5  C   UNL     1     -35.798  21.493   2.281  0.00  0.00    +0.035 C 
ATOM      6  C   UNL     1     -35.090  22.500   2.934  0.00  0.00    +0.018 C 
ENDROOT
BRANCH   4   9
ATOM      7  O   UNL     1     -33.976  25.614   1.961  0.00  0.00    -0.251 OA
ATOM      8  O   UNL     1     -32.938  27.647   5.937  0.00  0.00    -0.270 OA
ATOM      9  N   UNL     1     -34.982  24.754   3.924  0.00  0.00    -0.220 N 
ATOM     10  N   UNL     1     -33.429  26.556   3.959  0.00  0.00    -0.235 N 
ATOM     11  C   UNL     1     -34.120  25.610   3.186  0.00  0.00    +0.318 C 
ATOM     12  C   UNL     1     -35.126  24.943   5.294  0.00  0.00    +0.078 C 
ATOM     13  C   UNL     1     -34.483  25.875   6.000  0.00  0.00    +0.075 C 
ATOM     14  C   UNL     1     -33.545  26.779   5.318  0.00  0.00    +0.254 C 
ATOM     15  H   UNL     1     -32.787  27.126   3.477  0.00  0.00    +0.159 HD
ENDBRANCH   4   9
BRANCH   1  16
ATOM     16  C   UNL     1     -39.237  23.136   1.873  0.00  0.00    +0.022 C 
ATOM     17  C   UNL     1     -39.793  24.320   2.693  0.00  0.00    +0.004 C 
ATOM     18  C   UNL     1     -39.460  23.469   0.380  0.00  0.00    +0.004 C 
ATOM     19  C   UNL     1     -40.063  21.870   2.186  0.00  0.00    +0.004 C 
ENDBRANCH   1  16
BRANCH   2  20
ATOM     20  O   UNL     1     -37.837  20.709   1.297  0.00  0.00    -0.472 OA
ATOM     21  C   UNL     1     -37.547  20.501  -0.082  0.00  0.00    +0.252 C 
ENDBRANCH   2  20
BRANCH   5  22
ATOM     22  C   UNL     1     -35.118  20.241   1.971  0.00  0.00    +0.003 C 
ATOM     23  C   UNL     1     -34.050  20.119   1.151  0.00  0.00    +0.000 C 
BRANCH  23  24
ATOM     24  C   UNL     1     -33.352  18.856   0.852  0.00  0.00    +0.000 C 
ATOM     25  C   UNL     1     -31.974  18.757   1.047  0.00  0.00    +0.001 C 
ATOM     26  C   UNL     1     -34.070  17.759   0.376  0.00  0.00    +0.001 C 
ATOM     27  C   UNL     1     -32.033  16.463   0.288  0.00  0.00    +0.064 C 
ATOM     28  C   UNL     1     -31.314  17.561   0.764  0.00  0.00    +0.016 C 
ATOM     29  C   UNL     1     -33.410  16.562   0.094  0.00  0.00    +0.016 C 
BRANCH  27  30
ATOM     30  N   UNL     1     -31.357  15.240  -0.001  0.00  0.00    -0.219 N 
ATOM     31  H   UNL     1     -31.504  14.437   0.550  0.00  0.00    +0.173 HD
BRANCH  30  32
ATOM     32  S   UNL     1     -30.277  15.205  -1.343  0.00  0.00    +0.056 S 
ATOM     33  O   UNL     1     -30.868  15.969  -2.426  0.00  0.00    -0.154 OA
ATOM     34  O   UNL     1     -28.915  15.460  -0.919  0.00  0.00    -0.154 OA
ATOM     35  C   UNL     1     -30.396  13.489  -1.797  0.00  0.00    +0.200 C 
ENDBRANCH  30  32
ENDBRANCH  27  30
ENDBRANCH  23  24
ENDBRANCH   5  22
TORSDOF 7
ENDMDL
MODEL 4
REMARK VINA RESULT:      -6.4      5.732      8.901
REMARK  Name = 57775240
REMARK  7 active torsions:
REMARK  status: ('A' for Active; 'I' for Inactive)
REMARK    1  A    between atoms: C_1  and  C_16
REMARK    2  A    between atoms: C_2  and  O_20
REMARK    3  A    between atoms: C_4  and  N_9
REMARK    4  A    between atoms: C_5  and  C_22
REMARK    5  A    between atoms: C_23  and  C_24
REMARK    6  A    between atoms: C_27  and  N_30
REMARK    7  A    between atoms: N_30  and  S_32
REMARK                            x       y       z     vdW  Elec       q    Type
REMARK                         _______ _______ _______ _____ _____    ______ ____
ROOT
ATOM      1  C   UNL     1     -32.572  30.275   3.117  0.00  0.00    +0.012 C 
ATOM      2  C   UNL     1     -33.503  29.245   2.981  0.00  0.00    +0.135 C 
ATOM      3  C   UNL     1     -31.499  30.133   3.998  0.00  0.00    +0.014 C 
ATOM      4  C   UNL     1     -31.356  28.960   4.740  0.00  0.00    +0.059 C 
ATOM      5  C   UNL     1     -33.360  28.073   3.724  0.00  0.00    +0.035 C 
ATOM      6  C   UNL     1     -32.287  27.931   4.603  0.00  0.00    +0.018 C 
ENDROOT
BRANCH   4   9
ATOM      7  O   UNL     1     -31.363  29.775   7.505  0.00  0.00    -0.251 OA
ATOM      8  O   UNL     1     -27.043  28.377   8.141  0.00  0.00    -0.270 OA
ATOM      9  N   UNL     1     -30.242  28.813   5.655  0.00  0.00    -0.220 N 
ATOM     10  N   UNL     1     -29.195  29.134   7.768  0.00  0.00    -0.235 N 
ATOM     11  C   UNL     1     -30.352  29.293   6.989  0.00  0.00    +0.318 C 
ATOM     12  C   UNL     1     -29.068  28.188   5.247  0.00  0.00    +0.078 C 
ATOM     13  C   UNL     1     -27.994  28.019   6.020  0.00  0.00    +0.075 C 
ATOM     14  C   UNL     1     -28.013  28.517   7.403  0.00  0.00    +0.254 C 
ATOM     15  H   UNL     1     -29.230  29.505   8.679  0.00  0.00    +0.159 HD
ENDBRANCH   4   9
BRANCH   1  16
ATOM     16  C   UNL     1     -32.711  31.576   2.309  0.00  0.00    +0.022 C 
ATOM     17  C   UNL     1     -32.263  31.332   0.851  0.00  0.00    +0.004 C 
ATOM     18  C   UNL     1     -34.153  32.129   2.258  0.00  0.00    +0.004 C 
ATOM     19  C   UNL     1     -31.824  32.673   2.935  0.00  0.00    +0.004 C 
ENDBRANCH   1  16
BRANCH   2  20
ATOM     20  O   UNL     1     -34.551  29.395   2.119  0.00  0.00    -0.472 OA
ATOM     21  C   UNL     1     -34.460  28.717   0.869  0.00  0.00    +0.252 C 
ENDBRANCH   2  20
BRANCH   5  22
ATOM     22  C   UNL     1     -34.319  26.983   3.600  0.00  0.00    +0.003 C 
ATOM     23  C   UNL     1     -34.073  25.794   3.003  0.00  0.00    +0.000 C 
BRANCH  23  24
ATOM     24  C   UNL     1     -35.036  24.685   2.894  0.00  0.00    +0.000 C 
ATOM     25  C   UNL     1     -34.872  23.711   1.910  0.00  0.00    +0.001 C 
ATOM     26  C   UNL     1     -36.113  24.608   3.778  0.00  0.00    +0.001 C 
ATOM     27  C   UNL     1     -36.862  22.584   2.692  0.00  0.00    +0.064 C 
ATOM     28  C   UNL     1     -35.785  22.661   1.808  0.00  0.00    +0.016 C 
ATOM     29  C   UNL     1     -37.026  23.559   3.677  0.00  0.00    +0.016 C 
BRANCH  27  30
ATOM     30  N   UNL     1     -37.795  21.510   2.587  0.00  0.00    -0.219 N 
ATOM     31  H   UNL     1     -37.660  20.671   3.085  0.00  0.00    +0.173 HD
BRANCH  30  32
ATOM     32  S   UNL     1     -39.166  21.721   1.566  0.00  0.00    +0.056 S 
ATOM     33  O   UNL     1     -40.303  21.064   2.183  0.00  0.00    -0.154 OA
ATOM     34  O   UNL     1     -39.266  23.093   1.109  0.00  0.00    -0.154 OA
ATOM     35  C   UNL     1     -38.682  20.717   0.179  0.00  0.00    +0.200 C 
ENDBRANCH  30  32
ENDBRANCH  27  30
ENDBRANCH  23  24
ENDBRANCH   5  22
TORSDOF 7
ENDMDL
MODEL 5
REMARK VINA RESULT:      -6.4      1.729      2.039
REMARK  Name = 57775240
REMARK  7 active torsions:
REMARK  status: ('A' for Active; 'I' for Inactive)
REMARK    1  A    between atoms: C_1  and  C_16
REMARK    2  A    between atoms: C_2  and  O_20
REMARK    3  A    between atoms: C_4  and  N_9
REMARK    4  A    between atoms: C_5  and  C_22
REMARK    5  A    between atoms: C_23  and  C_24
REMARK    6  A    between atoms: C_27  and  N_30
REMARK    7  A    between atoms: N_30  and  S_32
REMARK                            x       y       z     vdW  Elec       q    Type
REMARK                         _______ _______ _______ _____ _____    ______ ____
ROOT
ATOM      1  C   UNL     1     -38.009  23.004   1.460  0.00  0.00    +0.012 C 
ATOM      2  C   UNL     1     -37.112  21.938   1.398  0.00  0.00    +0.135 C 
ATOM      3  C   UNL     1     -37.552  24.281   1.787  0.00  0.00    +0.014 C 
ATOM      4  C   UNL     1     -36.198  24.492   2.050  0.00  0.00    +0.059 C 
ATOM      5  C   UNL     1     -35.758  22.149   1.662  0.00  0.00    +0.035 C 
ATOM      6  C   UNL     1     -35.302  23.425   1.988  0.00  0.00    +0.018 C 
ENDROOT
BRANCH   4   9
ATOM      7  O   UNL     1     -36.038  25.561   4.723  0.00  0.00    -0.251 OA
ATOM      8  O   UNL     1     -34.398  29.577   3.239  0.00  0.00    -0.270 OA
ATOM      9  N   UNL     1     -35.724  25.819   2.391  0.00  0.00    -0.220 N 
ATOM     10  N   UNL     1     -35.291  27.565   3.948  0.00  0.00    -0.235 N 
ATOM     11  C   UNL     1     -35.731  26.248   3.746  0.00  0.00    +0.318 C 
ATOM     12  C   UNL     1     -35.242  26.674   1.404  0.00  0.00    +0.078 C 
ATOM     13  C   UNL     1     -34.796  27.910   1.629  0.00  0.00    +0.075 C 
ATOM     14  C   UNL     1     -34.802  28.444   2.998  0.00  0.00    +0.254 C 
ATOM     15  H   UNL     1     -35.335  27.902   4.871  0.00  0.00    +0.159 HD
ENDBRANCH   4   9
BRANCH   1  16
ATOM     16  C   UNL     1     -39.505  22.794   1.174  0.00  0.00    +0.022 C 
ATOM     17  C   UNL     1     -39.995  21.515   1.889  0.00  0.00    +0.004 C 
ATOM     18  C   UNL     1     -40.403  23.957   1.652  0.00  0.00    +0.004 C 
ATOM     19  C   UNL     1     -39.727  22.641  -0.346  0.00  0.00    +0.004 C 
ENDBRANCH   1  16
BRANCH   2  20
ATOM     20  O   UNL     1     -37.569  20.691   1.080  0.00  0.00    -0.472 OA
ATOM     21  C   UNL     1     -37.305  20.225  -0.240  0.00  0.00    +0.252 C 
ENDBRANCH   2  20
BRANCH   5  22
ATOM     22  C   UNL     1     -34.801  21.051   1.604  0.00  0.00    +0.003 C 
ATOM     23  C   UNL     1     -33.751  20.980   0.756  0.00  0.00    +0.000 C 
BRANCH  23  24
ATOM     24  C   UNL     1     -32.772  19.879   0.710  0.00  0.00    +0.000 C 
ATOM     25  C   UNL     1     -33.031  18.686   1.385  0.00  0.00    +0.001 C 
ATOM     26  C   UNL     1     -31.587  20.029  -0.011  0.00  0.00    +0.001 C 
ATOM     27  C   UNL     1     -30.919  17.794   0.620  0.00  0.00    +0.064 C 
ATOM     28  C   UNL     1     -32.105  17.644   1.341  0.00  0.00    +0.016 C 
ATOM     29  C   UNL     1     -30.660  18.987  -0.055  0.00  0.00    +0.016 C 
BRANCH  27  30
ATOM     30  N   UNL     1     -29.972  16.728   0.575  0.00  0.00    -0.219 N 
ATOM     31  H   UNL     1     -29.147  16.761   1.112  0.00  0.00    +0.173 HD
BRANCH  30  32
ATOM     32  S   UNL     1     -30.311  15.381  -0.444  0.00  0.00    +0.056 S 
ATOM     33  O   UNL     1     -30.522  14.215   0.394  0.00  0.00    -0.154 OA
ATOM     34  O   UNL     1     -31.271  15.735  -1.470  0.00  0.00    -0.154 OA
ATOM     35  C   UNL     1     -28.727  15.173  -1.226  0.00  0.00    +0.200 C 
ENDBRANCH  30  32
ENDBRANCH  27  30
ENDBRANCH  23  24
ENDBRANCH   5  22
TORSDOF 7
ENDMDL
MODEL 6
REMARK VINA RESULT:      -6.3      1.374      1.821
REMARK  Name = 57775240
REMARK  7 active torsions:
REMARK  status: ('A' for Active; 'I' for Inactive)
REMARK    1  A    between atoms: C_1  and  C_16
REMARK    2  A    between atoms: C_2  and  O_20
REMARK    3  A    between atoms: C_4  and  N_9
REMARK    4  A    between atoms: C_5  and  C_22
REMARK    5  A    between atoms: C_23  and  C_24
REMARK    6  A    between atoms: C_27  and  N_30
REMARK    7  A    between atoms: N_30  and  S_32
REMARK                            x       y       z     vdW  Elec       q    Type
REMARK                         _______ _______ _______ _____ _____    ______ ____
ROOT
ATOM      1  C   UNL     1     -37.754  24.159   1.819  0.00  0.00    +0.012 C 
ATOM      2  C   UNL     1     -37.354  22.856   1.523  0.00  0.00    +0.135 C 
ATOM      3  C   UNL     1     -36.953  24.967   2.627  0.00  0.00    +0.014 C 
ATOM      4  C   UNL     1     -35.753  24.472   3.138  0.00  0.00    +0.059 C 
ATOM      5  C   UNL     1     -36.154  22.361   2.034  0.00  0.00    +0.035 C 
ATOM      6  C   UNL     1     -35.354  23.169   2.841  0.00  0.00    +0.018 C 
ENDROOT
BRANCH   4   9
ATOM      7  O   UNL     1     -35.520  24.237   6.002  0.00  0.00    -0.251 OA
ATOM      8  O   UNL     1     -32.574  27.742   6.256  0.00  0.00    -0.270 OA
ATOM      9  N   UNL     1     -34.922  25.311   3.979  0.00  0.00    -0.220 N 
ATOM     10  N   UNL     1     -34.114  26.023   6.100  0.00  0.00    -0.235 N 
ATOM     11  C   UNL     1     -34.923  25.125   5.388  0.00  0.00    +0.318 C 
ATOM     12  C   UNL     1     -34.107  26.289   3.418  0.00  0.00    +0.078 C 
ATOM     13  C   UNL     1     -33.319  27.108   4.117  0.00  0.00    +0.075 C 
ATOM     14  C   UNL     1     -33.288  27.004   5.583  0.00  0.00    +0.254 C 
ATOM     15  H   UNL     1     -34.138  25.947   7.081  0.00  0.00    +0.159 HD
ENDBRANCH   4   9
BRANCH   1  16
ATOM     16  C   UNL     1     -39.073  24.724   1.267  0.00  0.00    +0.022 C 
ATOM     17  C   UNL     1     -39.109  26.254   1.472  0.00  0.00    +0.004 C 
ATOM     18  C   UNL     1     -39.283  24.460  -0.241  0.00  0.00    +0.004 C 
ATOM     19  C   UNL     1     -40.264  24.084   2.013  0.00  0.00    +0.004 C 
ENDBRANCH   1  16
BRANCH   2  20
ATOM     20  O   UNL     1     -38.145  22.072   0.733  0.00  0.00    -0.472 OA
ATOM     21  C   UNL     1     -38.878  21.035   1.380  0.00  0.00    +0.252 C 
ENDBRANCH   2  20
BRANCH   5  22
ATOM     22  C   UNL     1     -35.714  21.003   1.740  0.00  0.00    +0.003 C 
ATOM     23  C   UNL     1     -34.573  20.679   1.090  0.00  0.00    +0.000 C 
BRANCH  23  24
ATOM     24  C   UNL     1     -34.120  19.305   0.809  0.00  0.00    +0.000 C 
ATOM     25  C   UNL     1     -34.863  18.485  -0.040  0.00  0.00    +0.001 C 
ATOM     26  C   UNL     1     -32.946  18.826   1.392  0.00  0.00    +0.001 C 
ATOM     27  C   UNL     1     -33.258  16.705   0.276  0.00  0.00    +0.064 C 
ATOM     28  C   UNL     1     -34.432  17.185  -0.306  0.00  0.00    +0.016 C 
ATOM     29  C   UNL     1     -32.515  17.526   1.126  0.00  0.00    +0.016 C 
BRANCH  27  30
ATOM     30  N   UNL     1     -32.818  15.375   0.004  0.00  0.00    -0.219 N 
ATOM     31  H   UNL     1     -33.398  14.602   0.193  0.00  0.00    +0.173 HD
BRANCH  30  32
ATOM     32  S   UNL     1     -31.246  15.160  -0.665  0.00  0.00    +0.056 S 
ATOM     33  O   UNL     1     -31.052  16.150  -1.708  0.00  0.00    -0.154 OA
ATOM     34  O   UNL     1     -30.257  14.987   0.381  0.00  0.00    -0.154 OA
ATOM     35  C   UNL     1     -31.462  13.592  -1.477  0.00  0.00    +0.200 C 
ENDBRANCH  30  32
ENDBRANCH  27  30
ENDBRANCH  23  24
ENDBRANCH   5  22
TORSDOF 7
ENDMDL
MODEL 7
REMARK VINA RESULT:      -6.3      4.358      9.879
REMARK  Name = 57775240
REMARK  7 active torsions:
REMARK  status: ('A' for Active; 'I' for Inactive)
REMARK    1  A    between atoms: C_1  and  C_16
REMARK    2  A    between atoms: C_2  and  O_20
REMARK    3  A    between atoms: C_4  and  N_9
REMARK    4  A    between atoms: C_5  and  C_22
REMARK    5  A    between atoms: C_23  and  C_24
REMARK    6  A    between atoms: C_27  and  N_30
REMARK    7  A    between atoms: N_30  and  S_32
REMARK                            x       y       z     vdW  Elec       q    Type
REMARK                         _______ _______ _______ _____ _____    ______ ____
ROOT
ATOM      1  C   UNL     1     -34.855  17.143  -0.911  0.00  0.00    +0.012 C 
ATOM      2  C   UNL     1     -34.688  18.312  -0.170  0.00  0.00    +0.135 C 
ATOM      3  C   UNL     1     -36.138  16.666  -1.180  0.00  0.00    +0.014 C 
ATOM      4  C   UNL     1     -37.254  17.360  -0.711  0.00  0.00    +0.059 C 
ATOM      5  C   UNL     1     -35.804  19.005   0.301  0.00  0.00    +0.035 C 
ATOM      6  C   UNL     1     -37.086  18.529   0.031  0.00  0.00    +0.018 C 
ENDROOT
BRANCH   4   9
ATOM      7  O   UNL     1     -39.229  18.719  -2.312  0.00  0.00    -0.251 OA
ATOM      8  O   UNL     1     -42.319  15.389  -1.695  0.00  0.00    -0.270 OA
ATOM      9  N   UNL     1     -38.586  16.863  -0.990  0.00  0.00    -0.220 N 
ATOM     10  N   UNL     1     -40.762  17.082  -1.929  0.00  0.00    -0.235 N 
ATOM     11  C   UNL     1     -39.488  17.646  -1.761  0.00  0.00    +0.318 C 
ATOM     12  C   UNL     1     -38.989  15.614  -0.526  0.00  0.00    +0.078 C 
ATOM     13  C   UNL     1     -40.196  15.086  -0.730  0.00  0.00    +0.075 C 
ATOM     14  C   UNL     1     -41.200  15.846  -1.489  0.00  0.00    +0.254 C 
ATOM     15  H   UNL     1     -41.419  17.629  -2.416  0.00  0.00    +0.159 HD
ENDBRANCH   4   9
BRANCH   1  16
ATOM     16  C   UNL     1     -33.639  16.363  -1.437  0.00  0.00    +0.022 C 
ATOM     17  C   UNL     1     -32.662  17.334  -2.135  0.00  0.00    +0.004 C 
ATOM     18  C   UNL     1     -32.843  15.627  -0.336  0.00  0.00    +0.004 C 
ATOM     19  C   UNL     1     -34.106  15.297  -2.452  0.00  0.00    +0.004 C 
ENDBRANCH   1  16
BRANCH   2  20
ATOM     20  O   UNL     1     -33.429  18.770   0.092  0.00  0.00    -0.472 OA
ATOM     21  C   UNL     1     -32.890  18.480   1.378  0.00  0.00    +0.252 C 
ENDBRANCH   2  20
BRANCH   5  22
ATOM     22  C   UNL     1     -35.656  20.230   1.078  0.00  0.00    +0.003 C 
ATOM     23  C   UNL     1     -35.861  20.334   2.411  0.00  0.00    +0.000 C 
BRANCH  23  24
ATOM     24  C   UNL     1     -35.694  21.568   3.199  0.00  0.00    +0.000 C 
ATOM     25  C   UNL     1     -35.264  21.498   4.524  0.00  0.00    +0.001 C 
ATOM     26  C   UNL     1     -35.965  22.808   2.618  0.00  0.00    +0.001 C 
ATOM     27  C   UNL     1     -35.376  23.906   4.688  0.00  0.00    +0.064 C 
ATOM     28  C   UNL     1     -35.106  22.666   5.269  0.00  0.00    +0.016 C 
ATOM     29  C   UNL     1     -35.807  23.977   3.363  0.00  0.00    +0.016 C 
BRANCH  27  30
ATOM     30  N   UNL     1     -35.215  25.101   5.451  0.00  0.00    -0.219 N 
ATOM     31  H   UNL     1     -35.765  25.271   6.250  0.00  0.00    +0.173 HD
BRANCH  30  32
ATOM     32  S   UNL     1     -34.029  26.240   4.936  0.00  0.00    +0.056 S 
ATOM     33  O   UNL     1     -33.011  25.532   4.182  0.00  0.00    -0.154 OA
ATOM     34  O   UNL     1     -34.654  27.430   4.395  0.00  0.00    -0.154 OA
ATOM     35  C   UNL     1     -33.304  26.668   6.503  0.00  0.00    +0.200 C 
ENDBRANCH  30  32
ENDBRANCH  27  30
ENDBRANCH  23  24
ENDBRANCH   5  22
TORSDOF 7
ENDMDL
MODEL 8
REMARK VINA RESULT:      -6.2      6.636     11.906
REMARK  Name = 57775240
REMARK  7 active torsions:
REMARK  status: ('A' for Active; 'I' for Inactive)
REMARK    1  A    between atoms: C_1  and  C_16
REMARK    2  A    between atoms: C_2  and  O_20
REMARK    3  A    between atoms: C_4  and  N_9
REMARK    4  A    between atoms: C_5  and  C_22
REMARK    5  A    between atoms: C_23  and  C_24
REMARK    6  A    between atoms: C_27  and  N_30
REMARK    7  A    between atoms: N_30  and  S_32
REMARK                            x       y       z     vdW  Elec       q    Type
REMARK                         _______ _______ _______ _____ _____    ______ ____
ROOT
ATOM      1  C   UNL     1     -38.576  23.166   1.606  0.00  0.00    +0.012 C 
ATOM      2  C   UNL     1     -39.796  23.820   1.771  0.00  0.00    +0.135 C 
ATOM      3  C   UNL     1     -37.451  23.604   2.307  0.00  0.00    +0.014 C 
ATOM      4  C   UNL     1     -37.548  24.693   3.173  0.00  0.00    +0.059 C 
ATOM      5  C   UNL     1     -39.893  24.910   2.636  0.00  0.00    +0.035 C 
ATOM      6  C   UNL     1     -38.769  25.346   3.337  0.00  0.00    +0.018 C 
ENDROOT
BRANCH   4   9
ATOM      7  O   UNL     1     -36.339  23.315   5.398  0.00  0.00    -0.251 OA
ATOM      8  O   UNL     1     -33.103  26.526   5.892  0.00  0.00    -0.270 OA
ATOM      9  N   UNL     1     -36.379  25.147   3.899  0.00  0.00    -0.220 N 
ATOM     10  N   UNL     1     -34.789  24.961   5.659  0.00  0.00    -0.235 N 
ATOM     11  C   UNL     1     -35.899  24.400   5.009  0.00  0.00    +0.318 C 
ATOM     12  C   UNL     1     -35.707  26.301   3.509  0.00  0.00    +0.078 C 
ATOM     13  C   UNL     1     -34.631  26.794   4.124  0.00  0.00    +0.075 C 
ATOM     14  C   UNL     1     -34.091  26.100   5.303  0.00  0.00    +0.254 C 
ATOM     15  H   UNL     1     -34.470  24.488   6.462  0.00  0.00    +0.159 HD
ENDBRANCH   4   9
BRANCH   1  16
ATOM     16  C   UNL     1     -38.447  21.964   0.656  0.00  0.00    +0.022 C 
ATOM     17  C   UNL     1     -37.241  21.096   1.077  0.00  0.00    +0.004 C 
ATOM     18  C   UNL     1     -39.688  21.044   0.641  0.00  0.00    +0.004 C 
ATOM     19  C   UNL     1     -38.232  22.465  -0.788  0.00  0.00    +0.004 C 
ENDBRANCH   1  16
BRANCH   2  20
ATOM     20  O   UNL     1     -40.891  23.387   1.079  0.00  0.00    -0.472 OA
ATOM     21  C   UNL     1     -41.310  24.179  -0.028  0.00  0.00    +0.252 C 
ENDBRANCH   2  20
BRANCH   5  22
ATOM     22  C   UNL     1     -41.157  25.611   2.826  0.00  0.00    +0.003 C 
ATOM     23  C   UNL     1     -41.371  26.600   3.723  0.00  0.00    +0.000 C 
BRANCH  23  24
ATOM     24  C   UNL     1     -42.644  27.320   3.901  0.00  0.00    +0.000 C 
ATOM     25  C   UNL     1     -43.849  26.702   3.567  0.00  0.00    +0.001 C 
ATOM     26  C   UNL     1     -42.644  28.621   4.407  0.00  0.00    +0.001 C 
ATOM     27  C   UNL     1     -45.053  28.686   4.243  0.00  0.00    +0.064 C 
ATOM     28  C   UNL     1     -45.054  27.385   3.738  0.00  0.00    +0.016 C 
ATOM     29  C   UNL     1     -43.848  29.304   4.577  0.00  0.00    +0.016 C 
BRANCH  27  30
ATOM     30  N   UNL     1     -46.286  29.384   4.417  0.00  0.00    -0.219 N 
ATOM     31  H   UNL     1     -46.689  29.892   3.676  0.00  0.00    +0.173 HD
BRANCH  30  32
ATOM     32  S   UNL     1     -47.051  29.312   5.959  0.00  0.00    +0.056 S 
ATOM     33  O   UNL     1     -48.469  29.078   5.756  0.00  0.00    -0.154 OA
ATOM     34  O   UNL     1     -46.292  28.487   6.877  0.00  0.00    -0.154 OA
ATOM     35  C   UNL     1     -46.877  31.005   6.474  0.00  0.00    +0.200 C 
ENDBRANCH  30  32
ENDBRANCH  27  30
ENDBRANCH  23  24
ENDBRANCH   5  22
TORSDOF 7
ENDMDL
MODEL 9
REMARK VINA RESULT:      -6.2      5.942     10.580
REMARK  Name = 57775240
REMARK  7 active torsions:
REMARK  status: ('A' for Active; 'I' for Inactive)
REMARK    1  A    between atoms: C_1  and  C_16
REMARK    2  A    between atoms: C_2  and  O_20
REMARK    3  A    between atoms: C_4  and  N_9
REMARK    4  A    between atoms: C_5  and  C_22
REMARK    5  A    between atoms: C_23  and  C_24
REMARK    6  A    between atoms: C_27  and  N_30
REMARK    7  A    between atoms: N_30  and  S_32
REMARK                            x       y       z     vdW  Elec       q    Type
REMARK                         _______ _______ _______ _____ _____    ______ ____
ROOT
ATOM      1  C   UNL     1     -36.342  23.101   2.045  0.00  0.00    +0.012 C 
ATOM      2  C   UNL     1     -37.709  23.364   2.118  0.00  0.00    +0.135 C 
ATOM      3  C   UNL     1     -35.439  23.910   2.735  0.00  0.00    +0.014 C 
ATOM      4  C   UNL     1     -35.903  24.979   3.501  0.00  0.00    +0.059 C 
ATOM      5  C   UNL     1     -38.174  24.435   2.883  0.00  0.00    +0.035 C 
ATOM      6  C   UNL     1     -37.271  25.242   3.574  0.00  0.00    +0.018 C 
ENDROOT
BRANCH   4   9
ATOM      7  O   UNL     1     -34.723  27.399   2.471  0.00  0.00    -0.251 OA
ATOM      8  O   UNL     1     -32.311  28.099   6.308  0.00  0.00    -0.270 OA
ATOM      9  N   UNL     1     -34.964  25.820   4.217  0.00  0.00    -0.220 N 
ATOM     10  N   UNL     1     -33.487  27.680   4.362  0.00  0.00    -0.235 N 
ATOM     11  C   UNL     1     -34.417  26.970   3.586  0.00  0.00    +0.318 C 
ATOM     12  C   UNL     1     -34.605  25.522   5.528  0.00  0.00    +0.078 C 
ATOM     13  C   UNL     1     -33.745  26.235   6.256  0.00  0.00    +0.075 C 
ATOM     14  C   UNL     1     -33.107  27.421   5.665  0.00  0.00    +0.254 C 
ATOM     15  H   UNL     1     -33.057  28.451   3.927  0.00  0.00    +0.159 HD
ENDBRANCH   4   9
BRANCH   1  16
ATOM     16  C   UNL     1     -35.809  21.928   1.206  0.00  0.00    +0.022 C 
ATOM     17  C   UNL     1     -35.933  20.616   2.011  0.00  0.00    +0.004 C 
ATOM     18  C   UNL     1     -36.562  21.719  -0.127  0.00  0.00    +0.004 C 
ATOM     19  C   UNL     1     -34.324  22.170   0.858  0.00  0.00    +0.004 C 
ENDBRANCH   1  16
BRANCH   2  20
ATOM     20  O   UNL     1     -38.586  22.569   1.437  0.00  0.00    -0.472 OA
ATOM     21  C   UNL     1     -39.377  21.671   2.209  0.00  0.00    +0.252 C 
ENDBRANCH   2  20
BRANCH   5  22
ATOM     22  C   UNL     1     -39.598  24.731   2.977  0.00  0.00    +0.003 C 
ATOM     23  C   UNL     1     -40.171  25.909   2.642  0.00  0.00    +0.000 C 
BRANCH  23  24
ATOM     24  C   UNL     1     -41.613  26.202   2.720  0.00  0.00    +0.000 C 
ATOM     25  C   UNL     1     -42.144  26.801   3.862  0.00  0.00    +0.001 C 
ATOM     26  C   UNL     1     -42.447  25.883   1.648  0.00  0.00    +0.001 C 
ATOM     27  C   UNL     1     -44.343  26.759   2.862  0.00  0.00    +0.064 C 
ATOM     28  C   UNL     1     -43.509  27.079   3.934  0.00  0.00    +0.016 C 
ATOM     29  C   UNL     1     -43.812  26.160   1.720  0.00  0.00    +0.016 C 
BRANCH  27  30
ATOM     30  N   UNL     1     -45.740  27.043   2.937  0.00  0.00    -0.219 N 
ATOM     31  H   UNL     1     -46.096  27.914   2.647  0.00  0.00    +0.173 HD
BRANCH  30  32
ATOM     32  S   UNL     1     -46.787  25.819   3.547  0.00  0.00    +0.056 S 
ATOM     33  O   UNL     1     -48.104  26.012   2.968  0.00  0.00    -0.154 OA
ATOM     34  O   UNL     1     -46.147  24.519   3.503  0.00  0.00    -0.154 OA
ATOM     35  C   UNL     1     -46.895  26.318   5.250  0.00  0.00    +0.200 C 
ENDBRANCH  30  32
ENDBRANCH  27  30
ENDBRANCH  23  24
ENDBRANCH   5  22
TORSDOF 7
ENDMDL
