MODEL 1
REMARK VINA RESULT:      -5.5      0.000      0.000
REMARK  Name = 539089
REMARK  7 active torsions:
REMARK  status: ('A' for Active; 'I' for Inactive)
REMARK    1  A    between atoms: C_4  and  O_11
REMARK    2  A    between atoms: C_6  and  O_15
REMARK    3  A    between atoms: C_7  and  C_19
REMARK    4  A    between atoms: O_11  and  C_13
REMARK    5  A    between atoms: O_15  and  C_17
REMARK    6  A    between atoms: C_19  and  O_20
REMARK    7  A    between atoms: O_20  and  C_22
REMARK                            x       y       z     vdW  Elec       q    Type
REMARK                         _______ _______ _______ _____ _____    ______ ____
ROOT
ATOM      1  O   UNL     1     -36.392  22.592   0.701  0.00  0.00    -0.314 OA
ATOM      2  O   UNL     1     -35.863  20.308   0.823  0.00  0.00    -0.438 OA
ATOM      3  N   UNL     1     -35.097  20.725   2.941  0.00  0.00    -0.233 NA
ATOM      4  C   UNL     1     -36.363  22.792   3.361  0.00  0.00    +0.240 C 
ATOM      5  C   UNL     1     -36.418  21.370   2.806  0.00  0.00    +0.219 C 
ATOM      6  C   UNL     1     -37.426  23.657   2.681  0.00  0.00    +0.241 C 
ATOM      7  C   UNL     1     -37.218  23.677   1.154  0.00  0.00    +0.206 C 
ATOM      8  C   UNL     1     -36.709  21.343   1.310  0.00  0.00    +0.316 C 
ATOM      9  C   UNL     1     -34.940  20.141   1.797  0.00  0.00    +0.199 C 
ATOM     10  C   UNL     1     -33.791  19.278   1.427  0.00  0.00    +0.094 C 
ENDROOT
BRANCH   4  11
ATOM     11  O   UNL     1     -36.581  22.752   4.768  0.00  0.00    -0.446 OA
BRANCH  11  13
ATOM     12  O   UNL     1     -34.988  24.237   5.541  0.00  0.00    -0.250 OA
ATOM     13  C   UNL     1     -35.521  23.135   5.536  0.00  0.00    +0.318 C 
ATOM     14  C   UNL     1     -35.086  21.988   6.396  0.00  0.00    +0.121 C 
ENDBRANCH  11  13
ENDBRANCH   4  11
BRANCH   6  15
ATOM     15  O   UNL     1     -38.712  23.085   2.958  0.00  0.00    -0.446 OA
BRANCH  15  17
ATOM     16  O   UNL     1     -40.581  23.454   1.650  0.00  0.00    -0.250 OA
ATOM     17  C   UNL     1     -39.789  23.802   2.515  0.00  0.00    +0.318 C 
ATOM     18  C   UNL     1     -39.871  25.104   3.253  0.00  0.00    +0.121 C 
ENDBRANCH  15  17
ENDBRANCH   6  15
BRANCH   7  19
ATOM     19  C   UNL     1     -36.515  24.957   0.715  0.00  0.00    +0.242 C 
BRANCH  19  20
ATOM     20  O   UNL     1     -36.605  25.903   1.766  0.00  0.00    -0.446 OA
BRANCH  20  22
ATOM     21  O   UNL     1     -38.290  27.325   1.076  0.00  0.00    -0.250 OA
ATOM     22  C   UNL     1     -37.137  27.121   1.434  0.00  0.00    +0.318 C 
ATOM     23  C   UNL     1     -36.100  28.192   1.571  0.00  0.00    +0.121 C 
ENDBRANCH  20  22
ENDBRANCH  19  20
ENDBRANCH   7  19
TORSDOF 7
ENDMDL
MODEL 2
REMARK VINA RESULT:      -5.5      2.640      5.230
REMARK  Name = 539089
REMARK  7 active torsions:
REMARK  status: ('A' for Active; 'I' for Inactive)
REMARK    1  A    between atoms: C_4  and  O_11
REMARK    2  A    between atoms: C_6  and  O_15
REMARK    3  A    between atoms: C_7  and  C_19
REMARK    4  A    between atoms: O_11  and  C_13
REMARK    5  A    between atoms: O_15  and  C_17
REMARK    6  A    between atoms: C_19  and  O_20
REMARK    7  A    between atoms: O_20  and  C_22
REMARK                            x       y       z     vdW  Elec       q    Type
REMARK                         _______ _______ _______ _____ _____    ______ ____
ROOT
ATOM      1  O   UNL     1     -39.207  26.994   1.827  0.00  0.00    -0.314 OA
ATOM      2  O   UNL     1     -37.526  28.086   0.603  0.00  0.00    -0.438 OA
ATOM      3  N   UNL     1     -36.064  27.382   2.219  0.00  0.00    -0.233 NA
ATOM      4  C   UNL     1     -37.390  25.497   3.082  0.00  0.00    +0.240 C 
ATOM      5  C   UNL     1     -36.897  26.225   1.833  0.00  0.00    +0.219 C 
ATOM      6  C   UNL     1     -38.698  24.766   2.776  0.00  0.00    +0.241 C 
ATOM      7  C   UNL     1     -39.772  25.754   2.281  0.00  0.00    +0.206 C 
ATOM      8  C   UNL     1     -38.041  26.828   1.025  0.00  0.00    +0.316 C 
ATOM      9  C   UNL     1     -36.485  28.319   1.433  0.00  0.00    +0.199 C 
ATOM     10  C   UNL     1     -35.922  29.690   1.359  0.00  0.00    +0.094 C 
ENDROOT
BRANCH   4  11
ATOM     11  O   UNL     1     -36.393  24.574   3.508  0.00  0.00    -0.446 OA
BRANCH  11  13
ATOM     12  O   UNL     1     -36.264  23.427   5.509  0.00  0.00    -0.250 OA
ATOM     13  C   UNL     1     -36.236  24.462   4.857  0.00  0.00    +0.318 C 
ATOM     14  C   UNL     1     -36.018  25.821   5.451  0.00  0.00    +0.121 C 
ENDBRANCH  11  13
ENDBRANCH   4  11
BRANCH   6  15
ATOM     15  O   UNL     1     -38.443  23.812   1.735  0.00  0.00    -0.446 OA
BRANCH  15  17
ATOM     16  O   UNL     1     -40.030  22.170   2.088  0.00  0.00    -0.250 OA
ATOM     17  C   UNL     1     -38.868  22.536   1.983  0.00  0.00    +0.318 C 
ATOM     18  C   UNL     1     -37.686  21.623   2.109  0.00  0.00    +0.121 C 
ENDBRANCH  15  17
ENDBRANCH   6  15
BRANCH   7  19
ATOM     19  C   UNL     1     -40.741  26.115   3.403  0.00  0.00    +0.242 C 
BRANCH  19  20
ATOM     20  O   UNL     1     -41.345  27.358   3.093  0.00  0.00    -0.446 OA
BRANCH  20  22
ATOM     21  O   UNL     1     -42.048  28.835   4.725  0.00  0.00    -0.250 OA
ATOM     22  C   UNL     1     -42.224  27.847   4.023  0.00  0.00    +0.318 C 
ATOM     23  C   UNL     1     -43.455  26.995   4.068  0.00  0.00    +0.121 C 
ENDBRANCH  20  22
ENDBRANCH  19  20
ENDBRANCH   7  19
TORSDOF 7
ENDMDL
MODEL 3
REMARK VINA RESULT:      -5.5      2.465      5.248
REMARK  Name = 539089
REMARK  7 active torsions:
REMARK  status: ('A' for Active; 'I' for Inactive)
REMARK    1  A    between atoms: C_4  and  O_11
REMARK    2  A    between atoms: C_6  and  O_15
REMARK    3  A    between atoms: C_7  and  C_19
REMARK    4  A    between atoms: O_11  and  C_13
REMARK    5  A    between atoms: O_15  and  C_17
REMARK    6  A    between atoms: C_19  and  O_20
REMARK    7  A    between atoms: O_20  and  C_22
REMARK                            x       y       z     vdW  Elec       q    Type
REMARK                         _______ _______ _______ _____ _____    ______ ____
ROOT
ATOM      1  O   UNL     1     -36.559  25.771   3.199  0.00  0.00    -0.314 OA
ATOM      2  O   UNL     1     -38.851  26.235   2.985  0.00  0.00    -0.438 OA
ATOM      3  N   UNL     1     -38.932  24.519   1.470  0.00  0.00    -0.233 NA
ATOM      4  C   UNL     1     -36.912  23.320   2.204  0.00  0.00    +0.240 C 
ATOM      5  C   UNL     1     -38.182  24.041   2.650  0.00  0.00    +0.219 C 
ATOM      6  C   UNL     1     -35.854  23.401   3.306  0.00  0.00    +0.241 C 
ATOM      7  C   UNL     1     -35.536  24.869   3.650  0.00  0.00    +0.206 C 
ATOM      8  C   UNL     1     -37.881  25.303   3.451  0.00  0.00    +0.316 C 
ATOM      9  C   UNL     1     -39.278  25.718   1.812  0.00  0.00    +0.199 C 
ATOM     10  C   UNL     1     -40.124  26.628   1.000  0.00  0.00    +0.094 C 
ENDROOT
BRANCH   4  11
ATOM     11  O   UNL     1     -37.224  21.962   1.914  0.00  0.00    -0.446 OA
BRANCH  11  13
ATOM     12  O   UNL     1     -35.769  20.287   1.270  0.00  0.00    -0.250 OA
ATOM     13  C   UNL     1     -36.368  21.333   1.059  0.00  0.00    +0.318 C 
ATOM     14  C   UNL     1     -36.256  22.124  -0.209  0.00  0.00    +0.121 C 
ENDBRANCH  11  13
ENDBRANCH   4  11
BRANCH   6  15
ATOM     15  O   UNL     1     -36.380  22.762   4.478  0.00  0.00    -0.446 OA
BRANCH  15  17
ATOM     16  O   UNL     1     -35.116  20.830   4.541  0.00  0.00    -0.250 OA
ATOM     17  C   UNL     1     -35.563  21.839   5.069  0.00  0.00    +0.318 C 
ATOM     18  C   UNL     1     -35.281  22.241   6.485  0.00  0.00    +0.121 C 
ENDBRANCH  15  17
ENDBRANCH   6  15
BRANCH   7  19
ATOM     19  C   UNL     1     -34.244  25.321   2.976  0.00  0.00    +0.242 C 
BRANCH  19  20
ATOM     20  O   UNL     1     -33.299  25.639   3.982  0.00  0.00    -0.446 OA
BRANCH  20  22
ATOM     21  O   UNL     1     -33.727  27.888   4.290  0.00  0.00    -0.250 OA
ATOM     22  C   UNL     1     -33.568  26.756   4.727  0.00  0.00    +0.318 C 
ATOM     23  C   UNL     1     -33.643  26.401   6.180  0.00  0.00    +0.121 C 
ENDBRANCH  20  22
ENDBRANCH  19  20
ENDBRANCH   7  19
TORSDOF 7
ENDMDL
MODEL 4
REMARK VINA RESULT:      -5.4      2.227      4.940
REMARK  Name = 539089
REMARK  7 active torsions:
REMARK  status: ('A' for Active; 'I' for Inactive)
REMARK    1  A    between atoms: C_4  and  O_11
REMARK    2  A    between atoms: C_6  and  O_15
REMARK    3  A    between atoms: C_7  and  C_19
REMARK    4  A    between atoms: O_11  and  C_13
REMARK    5  A    between atoms: O_15  and  C_17
REMARK    6  A    between atoms: C_19  and  O_20
REMARK    7  A    between atoms: O_20  and  C_22
REMARK                            x       y       z     vdW  Elec       q    Type
REMARK                         _______ _______ _______ _____ _____    ______ ____
ROOT
ATOM      1  O   UNL     1     -38.062  25.953   2.969  0.00  0.00    -0.314 OA
ATOM      2  O   UNL     1     -40.314  25.313   2.773  0.00  0.00    -0.438 OA
ATOM      3  N   UNL     1     -39.566  23.486   1.612  0.00  0.00    -0.233 NA
ATOM      4  C   UNL     1     -37.259  23.458   2.468  0.00  0.00    +0.240 C 
ATOM      5  C   UNL     1     -38.735  23.617   2.826  0.00  0.00    +0.219 C 
ATOM      6  C   UNL     1     -36.394  24.201   3.488  0.00  0.00    +0.241 C 
ATOM      7  C   UNL     1     -36.768  25.695   3.536  0.00  0.00    +0.206 C 
ATOM      8  C   UNL     1     -39.054  25.008   3.362  0.00  0.00    +0.316 C 
ATOM      9  C   UNL     1     -40.418  24.451   1.737  0.00  0.00    +0.199 C 
ATOM     10  C   UNL     1     -41.541  24.726   0.807  0.00  0.00    +0.094 C 
ENDROOT
BRANCH   4  11
ATOM     11  O   UNL     1     -36.929  22.073   2.453  0.00  0.00    -0.446 OA
BRANCH  11  13
ATOM     12  O   UNL     1     -35.329  22.334   0.807  0.00  0.00    -0.250 OA
ATOM     13  C   UNL     1     -35.789  21.750   1.779  0.00  0.00    +0.318 C 
ATOM     14  C   UNL     1     -35.159  20.544   2.409  0.00  0.00    +0.121 C 
ENDBRANCH  11  13
ENDBRANCH   4  11
BRANCH   6  15
ATOM     15  O   UNL     1     -36.636  23.629   4.781  0.00  0.00    -0.446 OA
BRANCH  15  17
ATOM     16  O   UNL     1     -34.681  24.277   5.826  0.00  0.00    -0.250 OA
ATOM     17  C   UNL     1     -35.531  23.438   5.563  0.00  0.00    +0.318 C 
ATOM     18  C   UNL     1     -35.503  22.027   6.068  0.00  0.00    +0.121 C 
ENDBRANCH  15  17
ENDBRANCH   6  15
BRANCH   7  19
ATOM     19  C   UNL     1     -35.778  26.533   2.733  0.00  0.00    +0.242 C 
BRANCH  19  20
ATOM     20  O   UNL     1     -35.147  27.447   3.610  0.00  0.00    -0.446 OA
BRANCH  20  22
ATOM     21  O   UNL     1     -33.413  27.385   5.137  0.00  0.00    -0.250 OA
ATOM     22  C   UNL     1     -33.899  27.093   4.052  0.00  0.00    +0.318 C 
ATOM     23  C   UNL     1     -33.195  26.280   3.010  0.00  0.00    +0.121 C 
ENDBRANCH  20  22
ENDBRANCH  19  20
ENDBRANCH   7  19
TORSDOF 7
ENDMDL
MODEL 5
REMARK VINA RESULT:      -5.4      1.844      4.115
REMARK  Name = 539089
REMARK  7 active torsions:
REMARK  status: ('A' for Active; 'I' for Inactive)
REMARK    1  A    between atoms: C_4  and  O_11
REMARK    2  A    between atoms: C_6  and  O_15
REMARK    3  A    between atoms: C_7  and  C_19
REMARK    4  A    between atoms: O_11  and  C_13
REMARK    5  A    between atoms: O_15  and  C_17
REMARK    6  A    between atoms: C_19  and  O_20
REMARK    7  A    between atoms: O_20  and  C_22
REMARK                            x       y       z     vdW  Elec       q    Type
REMARK                         _______ _______ _______ _____ _____    ______ ____
ROOT
ATOM      1  O   UNL     1     -38.510  24.152   2.118  0.00  0.00    -0.314 OA
ATOM      2  O   UNL     1     -40.155  22.523   1.728  0.00  0.00    -0.438 OA
ATOM      3  N   UNL     1     -38.460  21.159   1.014  0.00  0.00    -0.233 NA
ATOM      4  C   UNL     1     -36.604  22.286   2.171  0.00  0.00    +0.240 C 
ATOM      5  C   UNL     1     -38.037  21.770   2.290  0.00  0.00    +0.219 C 
ATOM      6  C   UNL     1     -36.382  23.434   3.157  0.00  0.00    +0.241 C 
ATOM      7  C   UNL     1     -37.379  24.579   2.895  0.00  0.00    +0.206 C 
ATOM      8  C   UNL     1     -39.038  22.894   2.529  0.00  0.00    +0.316 C 
ATOM      9  C   UNL     1     -39.657  21.623   0.852  0.00  0.00    +0.199 C 
ATOM     10  C   UNL     1     -40.573  21.258  -0.257  0.00  0.00    +0.094 C 
ENDROOT
BRANCH   4  11
ATOM     11  O   UNL     1     -35.701  21.218   2.440  0.00  0.00    -0.446 OA
BRANCH  11  13
ATOM     12  O   UNL     1     -34.325  21.841   0.692  0.00  0.00    -0.250 OA
ATOM     13  C   UNL     1     -34.733  21.019   1.500  0.00  0.00    +0.318 C 
ATOM     14  C   UNL     1     -34.224  19.612   1.596  0.00  0.00    +0.121 C 
ENDBRANCH  11  13
ENDBRANCH   4  11
BRANCH   6  15
ATOM     15  O   UNL     1     -36.601  22.933   4.483  0.00  0.00    -0.446 OA
BRANCH  15  17
ATOM     16  O   UNL     1     -35.071  24.248   5.609  0.00  0.00    -0.250 OA
ATOM     17  C   UNL     1     -35.596  23.167   5.380  0.00  0.00    +0.318 C 
ATOM     18  C   UNL     1     -35.216  21.888   6.063  0.00  0.00    +0.121 C 
ENDBRANCH  15  17
ENDBRANCH   6  15
BRANCH   7  19
ATOM     19  C   UNL     1     -36.722  25.705   2.103  0.00  0.00    +0.242 C 
BRANCH  19  20
ATOM     20  O   UNL     1     -35.412  25.903   2.604  0.00  0.00    -0.446 OA
BRANCH  20  22
ATOM     21  O   UNL     1     -34.770  27.322   4.310  0.00  0.00    -0.250 OA
ATOM     22  C   UNL     1     -35.162  27.126   3.167  0.00  0.00    +0.318 C 
ATOM     23  C   UNL     1     -35.438  28.216   2.177  0.00  0.00    +0.121 C 
ENDBRANCH  20  22
ENDBRANCH  19  20
ENDBRANCH   7  19
TORSDOF 7
ENDMDL
MODEL 6
REMARK VINA RESULT:      -5.4      2.216      4.687
REMARK  Name = 539089
REMARK  7 active torsions:
REMARK  status: ('A' for Active; 'I' for Inactive)
REMARK    1  A    between atoms: C_4  and  O_11
REMARK    2  A    between atoms: C_6  and  O_15
REMARK    3  A    between atoms: C_7  and  C_19
REMARK    4  A    between atoms: O_11  and  C_13
REMARK    5  A    between atoms: O_15  and  C_17
REMARK    6  A    between atoms: C_19  and  O_20
REMARK    7  A    between atoms: O_20  and  C_22
REMARK                            x       y       z     vdW  Elec       q    Type
REMARK                         _______ _______ _______ _____ _____    ______ ____
ROOT
ATOM      1  O   UNL     1     -36.229  23.375   0.534  0.00  0.00    -0.314 OA
ATOM      2  O   UNL     1     -38.575  23.404   0.446  0.00  0.00    -0.438 OA
ATOM      3  N   UNL     1     -38.539  22.096   2.326  0.00  0.00    -0.233 NA
ATOM      4  C   UNL     1     -36.285  22.691   3.112  0.00  0.00    +0.240 C 
ATOM      5  C   UNL     1     -37.600  23.216   2.540  0.00  0.00    +0.219 C 
ATOM      6  C   UNL     1     -35.142  23.637   2.741  0.00  0.00    +0.241 C 
ATOM      7  C   UNL     1     -35.030  23.785   1.212  0.00  0.00    +0.206 C 
ATOM      8  C   UNL     1     -37.422  23.838   1.159  0.00  0.00    +0.316 C 
ATOM      9  C   UNL     1     -39.037  22.353   1.159  0.00  0.00    +0.199 C 
ATOM     10  C   UNL     1     -40.102  21.564   0.491  0.00  0.00    +0.094 C 
ENDROOT
BRANCH   4  11
ATOM     11  O   UNL     1     -36.402  22.584   4.527  0.00  0.00    -0.446 OA
BRANCH  11  13
ATOM     12  O   UNL     1     -35.055  20.711   4.644  0.00  0.00    -0.250 OA
ATOM     13  C   UNL     1     -35.519  21.735   5.126  0.00  0.00    +0.318 C 
ATOM     14  C   UNL     1     -35.186  22.243   6.497  0.00  0.00    +0.121 C 
ENDBRANCH  11  13
ENDBRANCH   4  11
BRANCH   6  15
ATOM     15  O   UNL     1     -35.428  24.925   3.304  0.00  0.00    -0.446 OA
BRANCH  15  17
ATOM     16  O   UNL     1     -33.421  25.179   4.420  0.00  0.00    -0.250 OA
ATOM     17  C   UNL     1     -34.636  25.304   4.352  0.00  0.00    +0.318 C 
ATOM     18  C   UNL     1     -35.479  25.911   5.433  0.00  0.00    +0.121 C 
ENDBRANCH  15  17
ENDBRANCH   6  15
BRANCH   7  19
ATOM     19  C   UNL     1     -33.910  22.911   0.658  0.00  0.00    +0.242 C 
BRANCH  19  20
ATOM     20  O   UNL     1     -34.474  21.699   0.189  0.00  0.00    -0.446 OA
BRANCH  20  22
ATOM     21  O   UNL     1     -34.636  19.854   1.570  0.00  0.00    -0.250 OA
ATOM     22  C   UNL     1     -34.013  20.553   0.782  0.00  0.00    +0.318 C 
ATOM     23  C   UNL     1     -32.617  20.263   0.327  0.00  0.00    +0.121 C 
ENDBRANCH  20  22
ENDBRANCH  19  20
ENDBRANCH   7  19
TORSDOF 7
ENDMDL
MODEL 7
REMARK VINA RESULT:      -5.4      2.273      5.125
REMARK  Name = 539089
REMARK  7 active torsions:
REMARK  status: ('A' for Active; 'I' for Inactive)
REMARK    1  A    between atoms: C_4  and  O_11
REMARK    2  A    between atoms: C_6  and  O_15
REMARK    3  A    between atoms: C_7  and  C_19
REMARK    4  A    between atoms: O_11  and  C_13
REMARK    5  A    between atoms: O_15  and  C_17
REMARK    6  A    between atoms: C_19  and  O_20
REMARK    7  A    between atoms: O_20  and  C_22
REMARK                            x       y       z     vdW  Elec       q    Type
REMARK                         _______ _______ _______ _____ _____    ______ ____
ROOT
ATOM      1  O   UNL     1     -36.797  25.866   1.506  0.00  0.00    -0.314 OA
ATOM      2  O   UNL     1     -39.013  26.381   2.090  0.00  0.00    -0.438 OA
ATOM      3  N   UNL     1     -38.995  24.468   3.349  0.00  0.00    -0.233 NA
ATOM      4  C   UNL     1     -36.558  24.263   3.625  0.00  0.00    +0.240 C 
ATOM      5  C   UNL     1     -37.755  25.212   3.647  0.00  0.00    +0.219 C 
ATOM      6  C   UNL     1     -35.285  25.039   3.281  0.00  0.00    +0.241 C 
ATOM      7  C   UNL     1     -35.426  25.742   1.918  0.00  0.00    +0.206 C 
ATOM      8  C   UNL     1     -37.671  26.273   2.555  0.00  0.00    +0.316 C 
ATOM      9  C   UNL     1     -39.610  25.247   2.518  0.00  0.00    +0.199 C 
ATOM     10  C   UNL     1     -40.960  25.000   1.954  0.00  0.00    +0.094 C 
ENDROOT
BRANCH   4  11
ATOM     11  O   UNL     1     -36.433  23.642   4.900  0.00  0.00    -0.446 OA
BRANCH  11  13
ATOM     12  O   UNL     1     -35.525  21.730   3.976  0.00  0.00    -0.250 OA
ATOM     13  C   UNL     1     -35.712  22.485   4.920  0.00  0.00    +0.318 C 
ATOM     14  C   UNL     1     -35.167  22.258   6.298  0.00  0.00    +0.121 C 
ENDBRANCH  11  13
ENDBRANCH   4  11
BRANCH   6  15
ATOM     15  O   UNL     1     -35.085  26.038   4.291  0.00  0.00    -0.446 OA
BRANCH  15  17
ATOM     16  O   UNL     1     -32.806  26.272   3.990  0.00  0.00    -0.250 OA
ATOM     17  C   UNL     1     -33.794  26.209   4.709  0.00  0.00    +0.318 C 
ATOM     18  C   UNL     1     -33.753  26.314   6.203  0.00  0.00    +0.121 C 
ENDBRANCH  15  17
ENDBRANCH   6  15
BRANCH   7  19
ATOM     19  C   UNL     1     -34.723  24.952   0.819  0.00  0.00    +0.242 C 
BRANCH  19  20
ATOM     20  O   UNL     1     -34.377  23.678   1.333  0.00  0.00    -0.446 OA
BRANCH  20  22
ATOM     21  O   UNL     1     -36.080  22.523   0.283  0.00  0.00    -0.250 OA
ATOM     22  C   UNL     1     -34.929  22.601   0.692  0.00  0.00    +0.318 C 
ATOM     23  C   UNL     1     -33.915  21.508   0.553  0.00  0.00    +0.121 C 
ENDBRANCH  20  22
ENDBRANCH  19  20
ENDBRANCH   7  19
TORSDOF 7
ENDMDL
MODEL 8
REMARK VINA RESULT:      -5.4      1.985      5.904
REMARK  Name = 539089
REMARK  7 active torsions:
REMARK  status: ('A' for Active; 'I' for Inactive)
REMARK    1  A    between atoms: C_4  and  O_11
REMARK    2  A    between atoms: C_6  and  O_15
REMARK    3  A    between atoms: C_7  and  C_19
REMARK    4  A    between atoms: O_11  and  C_13
REMARK    5  A    between atoms: O_15  and  C_17
REMARK    6  A    between atoms: C_19  and  O_20
REMARK    7  A    between atoms: O_20  and  C_22
REMARK                            x       y       z     vdW  Elec       q    Type
REMARK                         _______ _______ _______ _____ _____    ______ ____
ROOT
ATOM      1  O   UNL     1     -35.144  24.940   2.233  0.00  0.00    -0.314 OA
ATOM      2  O   UNL     1     -35.515  27.257   2.160  0.00  0.00    -0.438 OA
ATOM      3  N   UNL     1     -37.738  26.769   1.905  0.00  0.00    -0.233 NA
ATOM      4  C   UNL     1     -37.701  24.500   2.856  0.00  0.00    +0.240 C 
ATOM      5  C   UNL     1     -37.221  25.942   3.014  0.00  0.00    +0.219 C 
ATOM      6  C   UNL     1     -36.718  23.548   3.540  0.00  0.00    +0.241 C 
ATOM      7  C   UNL     1     -35.305  23.703   2.945  0.00  0.00    +0.206 C 
ATOM      8  C   UNL     1     -35.705  26.062   2.909  0.00  0.00    +0.316 C 
ATOM      9  C   UNL     1     -36.708  27.474   1.563  0.00  0.00    +0.199 C 
ATOM     10  C   UNL     1     -36.704  28.536   0.526  0.00  0.00    +0.094 C 
ENDROOT
BRANCH   4  11
ATOM     11  O   UNL     1     -38.997  24.375   3.433  0.00  0.00    -0.446 OA
BRANCH  11  13
ATOM     12  O   UNL     1     -40.142  22.753   2.252  0.00  0.00    -0.250 OA
ATOM     13  C   UNL     1     -39.969  23.914   2.594  0.00  0.00    +0.318 C 
ATOM     14  C   UNL     1     -40.819  25.060   2.135  0.00  0.00    +0.121 C 
ENDBRANCH  11  13
ENDBRANCH   4  11
BRANCH   6  15
ATOM     15  O   UNL     1     -36.665  23.885   4.933  0.00  0.00    -0.446 OA
BRANCH  15  17
ATOM     16  O   UNL     1     -34.547  24.339   5.736  0.00  0.00    -0.250 OA
ATOM     17  C   UNL     1     -35.496  23.584   5.574  0.00  0.00    +0.318 C 
ATOM     18  C   UNL     1     -35.533  22.167   6.063  0.00  0.00    +0.121 C 
ENDBRANCH  15  17
ENDBRANCH   6  15
BRANCH   7  19
ATOM     19  C   UNL     1     -35.010  22.593   1.941  0.00  0.00    +0.242 C 
BRANCH  19  20
ATOM     20  O   UNL     1     -35.192  21.344   2.583  0.00  0.00    -0.446 OA
BRANCH  20  22
ATOM     21  O   UNL     1     -36.446  19.905   1.281  0.00  0.00    -0.250 OA
ATOM     22  C   UNL     1     -35.378  20.266   1.759  0.00  0.00    +0.318 C 
ATOM     23  C   UNL     1     -34.073  19.574   1.513  0.00  0.00    +0.121 C 
ENDBRANCH  20  22
ENDBRANCH  19  20
ENDBRANCH   7  19
TORSDOF 7
ENDMDL
MODEL 9
REMARK VINA RESULT:      -5.3      2.077      5.460
REMARK  Name = 539089
REMARK  7 active torsions:
REMARK  status: ('A' for Active; 'I' for Inactive)
REMARK    1  A    between atoms: C_4  and  O_11
REMARK    2  A    between atoms: C_6  and  O_15
REMARK    3  A    between atoms: C_7  and  C_19
REMARK    4  A    between atoms: O_11  and  C_13
REMARK    5  A    between atoms: O_15  and  C_17
REMARK    6  A    between atoms: C_19  and  O_20
REMARK    7  A    between atoms: O_20  and  C_22
REMARK                            x       y       z     vdW  Elec       q    Type
REMARK                         _______ _______ _______ _____ _____    ______ ____
ROOT
ATOM      1  O   UNL     1     -35.588  23.554   4.195  0.00  0.00    -0.314 OA
ATOM      2  O   UNL     1     -35.037  24.904   6.036  0.00  0.00    -0.438 OA
ATOM      3  N   UNL     1     -35.295  26.701   4.638  0.00  0.00    -0.233 NA
ATOM      4  C   UNL     1     -36.732  25.622   2.957  0.00  0.00    +0.240 C 
ATOM      5  C   UNL     1     -36.460  25.813   4.448  0.00  0.00    +0.219 C 
ATOM      6  C   UNL     1     -37.439  24.285   2.725  0.00  0.00    +0.241 C 
ATOM      7  C   UNL     1     -36.588  23.118   3.261  0.00  0.00    +0.206 C 
ATOM      8  C   UNL     1     -36.068  24.510   5.136  0.00  0.00    +0.316 C 
ATOM      9  C   UNL     1     -34.623  26.103   5.569  0.00  0.00    +0.199 C 
ATOM     10  C   UNL     1     -33.381  26.622   6.194  0.00  0.00    +0.094 C 
ENDROOT
BRANCH   4  11
ATOM     11  O   UNL     1     -37.538  26.698   2.489  0.00  0.00    -0.446 OA
BRANCH  11  13
ATOM     12  O   UNL     1     -38.155  26.870   0.269  0.00  0.00    -0.250 OA
ATOM     13  C   UNL     1     -37.357  27.040   1.181  0.00  0.00    +0.318 C 
ATOM     14  C   UNL     1     -36.008  27.669   1.010  0.00  0.00    +0.121 C 
ENDBRANCH  11  13
ENDBRANCH   4  11
BRANCH   6  15
ATOM     15  O   UNL     1     -38.683  24.308   3.439  0.00  0.00    -0.446 OA
BRANCH  15  17
ATOM     16  O   UNL     1     -40.134  22.934   2.280  0.00  0.00    -0.250 OA
ATOM     17  C   UNL     1     -39.798  24.034   2.698  0.00  0.00    +0.318 C 
ATOM     18  C   UNL     1     -40.574  25.294   2.461  0.00  0.00    +0.121 C 
ENDBRANCH  15  17
ENDBRANCH   6  15
BRANCH   7  19
ATOM     19  C   UNL     1     -35.837  22.424   2.129  0.00  0.00    +0.242 C 
BRANCH  19  20
ATOM     20  O   UNL     1     -35.309  21.205   2.620  0.00  0.00    -0.446 OA
BRANCH  20  22
ATOM     21  O   UNL     1     -36.479  19.681   1.337  0.00  0.00    -0.250 OA
ATOM     22  C   UNL     1     -35.431  20.120   1.791  0.00  0.00    +0.318 C 
ATOM     23  C   UNL     1     -34.083  19.533   1.509  0.00  0.00    +0.121 C 
ENDBRANCH  20  22
ENDBRANCH  19  20
ENDBRANCH   7  19
TORSDOF 7
ENDMDL
