MODEL 1
REMARK VINA RESULT:      -6.1      0.000      0.000
REMARK  Name = 5281658
REMARK  4 active torsions:
REMARK  status: ('A' for Active; 'I' for Inactive)
REMARK    1  A    between atoms: C_8  and  O_16
REMARK    2  A    between atoms: C_9  and  O_18
REMARK    3  A    between atoms: C_12  and  O_20
REMARK    4  A    between atoms: C_14  and  O_22
REMARK                            x       y       z     vdW  Elec       q    Type
REMARK                         _______ _______ _______ _____ _____    ______ ____
ROOT
ATOM      1  O   UNL     1     -35.229  21.844   3.361  0.00  0.00    -0.453 OA
ATOM      2  O   UNL     1     -38.634  23.720   2.089  0.00  0.00    -0.286 OA
ATOM      3  C   UNL     1     -36.762  23.738   3.518  0.00  0.00    +0.110 A 
ATOM      4  C   UNL     1     -37.184  21.875   1.900  0.00  0.00    +0.107 A 
ATOM      5  C   UNL     1     -36.014  21.290   2.379  0.00  0.00    +0.154 A 
ATOM      6  C   UNL     1     -35.616  23.043   3.904  0.00  0.00    +0.151 A 
ATOM      7  C   UNL     1     -37.617  23.162   2.469  0.00  0.00    +0.207 A 
ATOM      8  C   UNL     1     -37.091  24.956   4.118  0.00  0.00    +0.174 C 
ATOM      9  C   UNL     1     -37.932  21.251   0.897  0.00  0.00    +0.143 C 
ATOM     10  C   UNL     1     -35.585  20.069   1.854  0.00  0.00    +0.074 C 
ATOM     11  C   UNL     1     -34.790  23.572   4.899  0.00  0.00    +0.041 C 
ATOM     12  C   UNL     1     -36.262  25.479   5.112  0.00  0.00    +0.168 C 
ATOM     13  C   UNL     1     -37.498  20.032   0.376  0.00  0.00    +0.073 C 
ATOM     14  C   UNL     1     -36.327  19.441   0.853  0.00  0.00    +0.140 C 
ATOM     15  C   UNL     1     -35.115  24.789   5.501  0.00  0.00    +0.043 C 
ENDROOT
BRANCH   8  16
ATOM     16  O   UNL     1     -38.202  25.663   3.766  0.00  0.00    -0.503 OA
ATOM     17  H   UNL     1     -38.972  25.622   4.298  0.00  0.00    +0.292 HD
ENDBRANCH   8  16
BRANCH   9  18
ATOM     18  O   UNL     1     -39.080  21.782   0.394  0.00  0.00    -0.505 OA
ATOM     19  H   UNL     1     -39.140  21.994  -0.516  0.00  0.00    +0.292 HD
ENDBRANCH   9  18
BRANCH  12  20
ATOM     20  O   UNL     1     -36.560  26.666   5.711  0.00  0.00    -0.503 OA
ATOM     21  H   UNL     1     -35.910  27.338   5.771  0.00  0.00    +0.292 HD
ENDBRANCH  12  20
BRANCH  14  22
ATOM     22  O   UNL     1     -35.908  18.252   0.341  0.00  0.00    -0.505 OA
ATOM     23  H   UNL     1     -35.251  18.235  -0.326  0.00  0.00    +0.292 HD
ENDBRANCH  14  22
TORSDOF 4
ENDMDL
MODEL 2
REMARK VINA RESULT:      -6.1      2.438      3.099
REMARK  Name = 5281658
REMARK  4 active torsions:
REMARK  status: ('A' for Active; 'I' for Inactive)
REMARK    1  A    between atoms: C_8  and  O_16
REMARK    2  A    between atoms: C_9  and  O_18
REMARK    3  A    between atoms: C_12  and  O_20
REMARK    4  A    between atoms: C_14  and  O_22
REMARK                            x       y       z     vdW  Elec       q    Type
REMARK                         _______ _______ _______ _____ _____    ______ ____
ROOT
ATOM      1  O   UNL     1     -37.042  22.938   3.669  0.00  0.00    -0.453 OA
ATOM      2  O   UNL     1     -37.637  26.733   2.262  0.00  0.00    -0.286 OA
ATOM      3  C   UNL     1     -36.412  25.297   3.671  0.00  0.00    +0.110 A 
ATOM      4  C   UNL     1     -38.279  24.469   2.224  0.00  0.00    +0.107 A 
ATOM      5  C   UNL     1     -38.023  23.202   2.745  0.00  0.00    +0.154 A 
ATOM      6  C   UNL     1     -36.265  23.981   4.108  0.00  0.00    +0.151 A 
ATOM      7  C   UNL     1     -37.457  25.601   2.682  0.00  0.00    +0.207 A 
ATOM      8  C   UNL     1     -35.581  26.306   4.165  0.00  0.00    +0.174 C 
ATOM      9  C   UNL     1     -39.297  24.659   1.285  0.00  0.00    +0.143 C 
ATOM     10  C   UNL     1     -38.791  22.113   2.324  0.00  0.00    +0.074 C 
ATOM     11  C   UNL     1     -35.279  23.671   5.047  0.00  0.00    +0.041 C 
ATOM     12  C   UNL     1     -34.598  25.990   5.103  0.00  0.00    +0.168 C 
ATOM     13  C   UNL     1     -40.060  23.569   0.870  0.00  0.00    +0.073 C 
ATOM     14  C   UNL     1     -39.809  22.298   1.387  0.00  0.00    +0.140 C 
ATOM     15  C   UNL     1     -34.447  24.675   5.542  0.00  0.00    +0.043 C 
ENDROOT
BRANCH   8  16
ATOM     16  O   UNL     1     -35.695  27.604   3.761  0.00  0.00    -0.503 OA
ATOM     17  H   UNL     1     -34.926  28.119   3.619  0.00  0.00    +0.292 HD
ENDBRANCH   8  16
BRANCH   9  18
ATOM     18  O   UNL     1     -39.585  25.876   0.747  0.00  0.00    -0.505 OA
ATOM     19  H   UNL     1     -38.919  26.361   0.300  0.00  0.00    +0.292 HD
ENDBRANCH   9  18
BRANCH  12  20
ATOM     20  O   UNL     1     -33.774  26.957   5.599  0.00  0.00    -0.503 OA
ATOM     21  H   UNL     1     -33.778  27.815   5.222  0.00  0.00    +0.292 HD
ENDBRANCH  12  20
BRANCH  14  22
ATOM     22  O   UNL     1     -40.556  21.236   0.979  0.00  0.00    -0.505 OA
ATOM     23  H   UNL     1     -40.168  20.386   0.917  0.00  0.00    +0.292 HD
ENDBRANCH  14  22
TORSDOF 4
ENDMDL
MODEL 3
REMARK VINA RESULT:      -5.9      1.060      5.503
REMARK  Name = 5281658
REMARK  4 active torsions:
REMARK  status: ('A' for Active; 'I' for Inactive)
REMARK    1  A    between atoms: C_8  and  O_16
REMARK    2  A    between atoms: C_9  and  O_18
REMARK    3  A    between atoms: C_12  and  O_20
REMARK    4  A    between atoms: C_14  and  O_22
REMARK                            x       y       z     vdW  Elec       q    Type
REMARK                         _______ _______ _______ _____ _____    ______ ____
ROOT
ATOM      1  O   UNL     1     -34.919  22.407   3.647  0.00  0.00    -0.453 OA
ATOM      2  O   UNL     1     -38.516  23.998   2.523  0.00  0.00    -0.286 OA
ATOM      3  C   UNL     1     -36.990  22.211   2.368  0.00  0.00    +0.110 A 
ATOM      4  C   UNL     1     -36.536  24.232   3.775  0.00  0.00    +0.107 A 
ATOM      5  C   UNL     1     -35.325  23.633   4.116  0.00  0.00    +0.154 A 
ATOM      6  C   UNL     1     -35.751  21.730   2.792  0.00  0.00    +0.151 A 
ATOM      7  C   UNL     1     -37.443  23.522   2.859  0.00  0.00    +0.207 A 
ATOM      8  C   UNL     1     -37.782  21.462   1.495  0.00  0.00    +0.174 C 
ATOM      9  C   UNL     1     -36.881  25.484   4.293  0.00  0.00    +0.143 C 
ATOM     10  C   UNL     1     -34.449  24.289   4.984  0.00  0.00    +0.074 C 
ATOM     11  C   UNL     1     -35.301  20.488   2.338  0.00  0.00    +0.041 C 
ATOM     12  C   UNL     1     -37.327  20.222   1.045  0.00  0.00    +0.168 C 
ATOM     13  C   UNL     1     -36.002  26.134   5.159  0.00  0.00    +0.073 C 
ATOM     14  C   UNL     1     -34.788  25.539   5.504  0.00  0.00    +0.140 C 
ATOM     15  C   UNL     1     -36.090  19.736   1.466  0.00  0.00    +0.043 C 
ENDROOT
BRANCH   8  16
ATOM     16  O   UNL     1     -38.998  21.900   1.060  0.00  0.00    -0.503 OA
ATOM     17  H   UNL     1     -39.412  22.628   1.480  0.00  0.00    +0.292 HD
ENDBRANCH   8  16
BRANCH   9  18
ATOM     18  O   UNL     1     -38.052  26.110   3.991  0.00  0.00    -0.505 OA
ATOM     19  H   UNL     1     -38.139  26.577   3.183  0.00  0.00    +0.292 HD
ENDBRANCH   9  18
BRANCH  12  20
ATOM     20  O   UNL     1     -38.082  19.472   0.194  0.00  0.00    -0.503 OA
ATOM     21  H   UNL     1     -38.063  19.646  -0.727  0.00  0.00    +0.292 HD
ENDBRANCH  12  20
BRANCH  14  22
ATOM     22  O   UNL     1     -33.933  26.177   6.349  0.00  0.00    -0.505 OA
ATOM     23  H   UNL     1     -33.991  27.105   6.460  0.00  0.00    +0.292 HD
ENDBRANCH  14  22
TORSDOF 4
ENDMDL
MODEL 4
REMARK VINA RESULT:      -5.8      1.258      6.110
REMARK  Name = 5281658
REMARK  4 active torsions:
REMARK  status: ('A' for Active; 'I' for Inactive)
REMARK    1  A    between atoms: C_8  and  O_16
REMARK    2  A    between atoms: C_9  and  O_18
REMARK    3  A    between atoms: C_12  and  O_20
REMARK    4  A    between atoms: C_14  and  O_22
REMARK                            x       y       z     vdW  Elec       q    Type
REMARK                         _______ _______ _______ _____ _____    ______ ____
ROOT
ATOM      1  O   UNL     1     -37.778  23.765   2.048  0.00  0.00    -0.453 OA
ATOM      2  O   UNL     1     -35.560  20.635   3.471  0.00  0.00    -0.286 OA
ATOM      3  C   UNL     1     -37.033  21.450   1.824  0.00  0.00    +0.110 A 
ATOM      4  C   UNL     1     -36.248  22.872   3.728  0.00  0.00    +0.107 A 
ATOM      5  C   UNL     1     -37.026  23.896   3.189  0.00  0.00    +0.154 A 
ATOM      6  C   UNL     1     -37.766  22.557   1.396  0.00  0.00    +0.151 A 
ATOM      7  C   UNL     1     -36.222  21.569   3.044  0.00  0.00    +0.207 A 
ATOM      8  C   UNL     1     -37.072  20.252   1.106  0.00  0.00    +0.174 C 
ATOM      9  C   UNL     1     -35.508  23.081   4.896  0.00  0.00    +0.143 C 
ATOM     10  C   UNL     1     -37.066  25.140   3.822  0.00  0.00    +0.074 C 
ATOM     11  C   UNL     1     -38.543  22.466   0.239  0.00  0.00    +0.041 C 
ATOM     12  C   UNL     1     -37.851  20.167  -0.049  0.00  0.00    +0.168 C 
ATOM     13  C   UNL     1     -35.553  24.326   5.523  0.00  0.00    +0.073 C 
ATOM     14  C   UNL     1     -36.329  25.354   4.988  0.00  0.00    +0.140 C 
ATOM     15  C   UNL     1     -38.585  21.271  -0.481  0.00  0.00    +0.043 C 
ENDROOT
BRANCH   8  16
ATOM     16  O   UNL     1     -36.369  19.150   1.493  0.00  0.00    -0.503 OA
ATOM     17  H   UNL     1     -36.424  18.846   2.377  0.00  0.00    +0.292 HD
ENDBRANCH   8  16
BRANCH   9  18
ATOM     18  O   UNL     1     -34.733  22.114   5.460  0.00  0.00    -0.505 OA
ATOM     19  H   UNL     1     -34.023  21.741   4.977  0.00  0.00    +0.292 HD
ENDBRANCH   9  18
BRANCH  12  20
ATOM     20  O   UNL     1     -37.904  19.010  -0.768  0.00  0.00    -0.503 OA
ATOM     21  H   UNL     1     -37.115  18.547  -0.971  0.00  0.00    +0.292 HD
ENDBRANCH  12  20
BRANCH  14  22
ATOM     22  O   UNL     1     -36.369  26.568   5.603  0.00  0.00    -0.505 OA
ATOM     23  H   UNL     1     -36.411  26.617   6.538  0.00  0.00    +0.292 HD
ENDBRANCH  14  22
TORSDOF 4
ENDMDL
MODEL 5
REMARK VINA RESULT:      -5.8      2.385      4.732
REMARK  Name = 5281658
REMARK  4 active torsions:
REMARK  status: ('A' for Active; 'I' for Inactive)
REMARK    1  A    between atoms: C_8  and  O_16
REMARK    2  A    between atoms: C_9  and  O_18
REMARK    3  A    between atoms: C_12  and  O_20
REMARK    4  A    between atoms: C_14  and  O_22
REMARK                            x       y       z     vdW  Elec       q    Type
REMARK                         _______ _______ _______ _____ _____    ______ ____
ROOT
ATOM      1  O   UNL     1     -36.383  25.476   3.730  0.00  0.00    -0.453 OA
ATOM      2  O   UNL     1     -36.899  22.207   1.325  0.00  0.00    -0.286 OA
ATOM      3  C   UNL     1     -36.223  23.060   3.414  0.00  0.00    +0.110 A 
ATOM      4  C   UNL     1     -37.073  24.540   1.583  0.00  0.00    +0.107 A 
ATOM      5  C   UNL     1     -36.872  25.610   2.453  0.00  0.00    +0.154 A 
ATOM      6  C   UNL     1     -36.072  24.217   4.178  0.00  0.00    +0.151 A 
ATOM      7  C   UNL     1     -36.745  23.181   2.044  0.00  0.00    +0.207 A 
ATOM      8  C   UNL     1     -35.884  21.811   3.940  0.00  0.00    +0.174 C 
ATOM      9  C   UNL     1     -37.575  24.756   0.296  0.00  0.00    +0.143 C 
ATOM     10  C   UNL     1     -37.176  26.908   2.036  0.00  0.00    +0.074 C 
ATOM     11  C   UNL     1     -35.577  24.124   5.481  0.00  0.00    +0.041 C 
ATOM     12  C   UNL     1     -35.390  21.724   5.243  0.00  0.00    +0.168 C 
ATOM     13  C   UNL     1     -37.877  26.054  -0.115  0.00  0.00    +0.073 C 
ATOM     14  C   UNL     1     -37.678  27.128   0.753  0.00  0.00    +0.140 C 
ATOM     15  C   UNL     1     -35.237  22.878   6.011  0.00  0.00    +0.043 C 
ENDROOT
BRANCH   8  16
ATOM     16  O   UNL     1     -36.019  20.659   3.223  0.00  0.00    -0.503 OA
ATOM     17  H   UNL     1     -35.271  20.122   3.054  0.00  0.00    +0.292 HD
ENDBRANCH   8  16
BRANCH   9  18
ATOM     18  O   UNL     1     -37.790  23.745  -0.590  0.00  0.00    -0.505 OA
ATOM     19  H   UNL     1     -37.175  23.587  -1.279  0.00  0.00    +0.292 HD
ENDBRANCH   9  18
BRANCH  12  20
ATOM     20  O   UNL     1     -35.053  20.518   5.780  0.00  0.00    -0.503 OA
ATOM     21  H   UNL     1     -34.951  19.770   5.224  0.00  0.00    +0.292 HD
ENDBRANCH  12  20
BRANCH  14  22
ATOM     22  O   UNL     1     -37.974  28.394   0.348  0.00  0.00    -0.505 OA
ATOM     23  H   UNL     1     -38.515  28.942   0.881  0.00  0.00    +0.292 HD
ENDBRANCH  14  22
TORSDOF 4
ENDMDL
MODEL 6
REMARK VINA RESULT:      -5.7      1.928      2.670
REMARK  Name = 5281658
REMARK  4 active torsions:
REMARK  status: ('A' for Active; 'I' for Inactive)
REMARK    1  A    between atoms: C_8  and  O_16
REMARK    2  A    between atoms: C_9  and  O_18
REMARK    3  A    between atoms: C_12  and  O_20
REMARK    4  A    between atoms: C_14  and  O_22
REMARK                            x       y       z     vdW  Elec       q    Type
REMARK                         _______ _______ _______ _____ _____    ______ ____
ROOT
ATOM      1  O   UNL     1     -37.016  22.036   2.844  0.00  0.00    -0.453 OA
ATOM      2  O   UNL     1     -38.755  25.722   3.201  0.00  0.00    -0.286 OA
ATOM      3  C   UNL     1     -36.994  24.281   3.806  0.00  0.00    +0.110 A 
ATOM      4  C   UNL     1     -38.819  23.571   2.247  0.00  0.00    +0.107 A 
ATOM      5  C   UNL     1     -38.175  22.337   2.171  0.00  0.00    +0.154 A 
ATOM      6  C   UNL     1     -36.456  23.005   3.639  0.00  0.00    +0.151 A 
ATOM      7  C   UNL     1     -38.234  24.623   3.094  0.00  0.00    +0.207 A 
ATOM      8  C   UNL     1     -36.365  25.214   4.634  0.00  0.00    +0.174 C 
ATOM      9  C   UNL     1     -39.997  23.803   1.531  0.00  0.00    +0.143 C 
ATOM     10  C   UNL     1     -38.712  21.325   1.373  0.00  0.00    +0.074 C 
ATOM     11  C   UNL     1     -35.278  22.659   4.306  0.00  0.00    +0.041 C 
ATOM     12  C   UNL     1     -35.189  24.862   5.298  0.00  0.00    +0.168 C 
ATOM     13  C   UNL     1     -40.528  22.788   0.736  0.00  0.00    +0.073 C 
ATOM     14  C   UNL     1     -39.888  21.551   0.656  0.00  0.00    +0.140 C 
ATOM     15  C   UNL     1     -34.647  23.588   5.134  0.00  0.00    +0.043 C 
ENDROOT
BRANCH   8  16
ATOM     16  O   UNL     1     -36.860  26.470   4.821  0.00  0.00    -0.503 OA
ATOM     17  H   UNL     1     -37.242  26.706   5.643  0.00  0.00    +0.292 HD
ENDBRANCH   8  16
BRANCH   9  18
ATOM     18  O   UNL     1     -40.662  24.990   1.572  0.00  0.00    -0.505 OA
ATOM     19  H   UNL     1     -41.433  25.078   2.097  0.00  0.00    +0.292 HD
ENDBRANCH   9  18
BRANCH  12  20
ATOM     20  O   UNL     1     -34.556  25.755   6.110  0.00  0.00    -0.503 OA
ATOM     21  H   UNL     1     -34.168  25.466   6.913  0.00  0.00    +0.292 HD
ENDBRANCH  12  20
BRANCH  14  22
ATOM     22  O   UNL     1     -40.410  20.563  -0.121  0.00  0.00    -0.505 OA
ATOM     23  H   UNL     1     -39.870  20.127  -0.750  0.00  0.00    +0.292 HD
ENDBRANCH  14  22
TORSDOF 4
ENDMDL
MODEL 7
REMARK VINA RESULT:      -5.7      2.574      3.472
REMARK  Name = 5281658
REMARK  4 active torsions:
REMARK  status: ('A' for Active; 'I' for Inactive)
REMARK    1  A    between atoms: C_8  and  O_16
REMARK    2  A    between atoms: C_9  and  O_18
REMARK    3  A    between atoms: C_12  and  O_20
REMARK    4  A    between atoms: C_14  and  O_22
REMARK                            x       y       z     vdW  Elec       q    Type
REMARK                         _______ _______ _______ _____ _____    ______ ____
ROOT
ATOM      1  O   UNL     1     -34.692  24.141   1.135  0.00  0.00    -0.453 OA
ATOM      2  O   UNL     1     -35.881  24.496   5.033  0.00  0.00    -0.286 OA
ATOM      3  C   UNL     1     -35.235  25.570   3.039  0.00  0.00    +0.110 A 
ATOM      4  C   UNL     1     -35.370  23.077   3.225  0.00  0.00    +0.107 A 
ATOM      5  C   UNL     1     -34.961  23.028   1.894  0.00  0.00    +0.154 A 
ATOM      6  C   UNL     1     -34.833  25.375   1.718  0.00  0.00    +0.151 A 
ATOM      7  C   UNL     1     -35.527  24.392   3.869  0.00  0.00    +0.207 A 
ATOM      8  C   UNL     1     -35.356  26.860   3.562  0.00  0.00    +0.174 C 
ATOM      9  C   UNL     1     -35.625  21.900   3.934  0.00  0.00    +0.143 C 
ATOM     10  C   UNL     1     -34.804  21.792   1.263  0.00  0.00    +0.074 C 
ATOM     11  C   UNL     1     -34.550  26.481   0.912  0.00  0.00    +0.041 C 
ATOM     12  C   UNL     1     -35.072  27.960   2.752  0.00  0.00    +0.168 C 
ATOM     13  C   UNL     1     -35.467  20.668   3.299  0.00  0.00    +0.073 C 
ATOM     14  C   UNL     1     -35.058  20.613   1.966  0.00  0.00    +0.140 C 
ATOM     15  C   UNL     1     -34.670  27.771   1.430  0.00  0.00    +0.043 C 
ENDROOT
BRANCH   8  16
ATOM     16  O   UNL     1     -35.747  27.089   4.848  0.00  0.00    -0.503 OA
ATOM     17  H   UNL     1     -35.164  27.512   5.447  0.00  0.00    +0.292 HD
ENDBRANCH   8  16
BRANCH   9  18
ATOM     18  O   UNL     1     -36.028  21.895   5.235  0.00  0.00    -0.505 OA
ATOM     19  H   UNL     1     -35.441  22.178   5.908  0.00  0.00    +0.292 HD
ENDBRANCH   9  18
BRANCH  12  20
ATOM     20  O   UNL     1     -35.184  29.228   3.239  0.00  0.00    -0.503 OA
ATOM     21  H   UNL     1     -35.606  29.891   2.728  0.00  0.00    +0.292 HD
ENDBRANCH  12  20
BRANCH  14  22
ATOM     22  O   UNL     1     -34.905  19.409   1.350  0.00  0.00    -0.505 OA
ATOM     23  H   UNL     1     -35.592  18.773   1.388  0.00  0.00    +0.292 HD
ENDBRANCH  14  22
TORSDOF 4
ENDMDL
MODEL 8
REMARK VINA RESULT:      -5.6      2.769      5.002
REMARK  Name = 5281658
REMARK  4 active torsions:
REMARK  status: ('A' for Active; 'I' for Inactive)
REMARK    1  A    between atoms: C_8  and  O_16
REMARK    2  A    between atoms: C_9  and  O_18
REMARK    3  A    between atoms: C_12  and  O_20
REMARK    4  A    between atoms: C_14  and  O_22
REMARK                            x       y       z     vdW  Elec       q    Type
REMARK                         _______ _______ _______ _____ _____    ______ ____
ROOT
ATOM      1  O   UNL     1     -36.944  23.742   2.214  0.00  0.00    -0.453 OA
ATOM      2  O   UNL     1     -35.387  27.038   4.072  0.00  0.00    -0.286 OA
ATOM      3  C   UNL     1     -36.599  26.159   2.254  0.00  0.00    +0.110 A 
ATOM      4  C   UNL     1     -35.695  24.704   4.079  0.00  0.00    +0.107 A 
ATOM      5  C   UNL     1     -36.250  23.625   3.394  0.00  0.00    +0.154 A 
ATOM      6  C   UNL     1     -37.102  24.994   1.675  0.00  0.00    +0.151 A 
ATOM      7  C   UNL     1     -35.853  26.055   3.517  0.00  0.00    +0.207 A 
ATOM      8  C   UNL     1     -36.802  27.400   1.644  0.00  0.00    +0.174 C 
ATOM      9  C   UNL     1     -35.001  24.505   5.276  0.00  0.00    +0.143 C 
ATOM     10  C   UNL     1     -36.111  22.334   3.909  0.00  0.00    +0.074 C 
ATOM     11  C   UNL     1     -37.813  25.071   0.476  0.00  0.00    +0.041 C 
ATOM     12  C   UNL     1     -37.513  27.470   0.446  0.00  0.00    +0.168 C 
ATOM     13  C   UNL     1     -34.866  23.214   5.785  0.00  0.00    +0.073 C 
ATOM     14  C   UNL     1     -35.420  22.129   5.103  0.00  0.00    +0.140 C 
ATOM     15  C   UNL     1     -38.018  26.308  -0.137  0.00  0.00    +0.043 C 
ENDROOT
BRANCH   8  16
ATOM     16  O   UNL     1     -36.326  28.560   2.181  0.00  0.00    -0.503 OA
ATOM     17  H   UNL     1     -36.281  29.335   1.658  0.00  0.00    +0.292 HD
ENDBRANCH   8  16
BRANCH   9  18
ATOM     18  O   UNL     1     -34.442  25.526   5.983  0.00  0.00    -0.505 OA
ATOM     19  H   UNL     1     -33.582  25.432   6.343  0.00  0.00    +0.292 HD
ENDBRANCH   9  18
BRANCH  12  20
ATOM     20  O   UNL     1     -37.725  28.668  -0.168  0.00  0.00    -0.503 OA
ATOM     21  H   UNL     1     -37.131  29.379  -0.026  0.00  0.00    +0.292 HD
ENDBRANCH  12  20
BRANCH  14  22
ATOM     22  O   UNL     1     -35.286  20.871   5.604  0.00  0.00    -0.505 OA
ATOM     23  H   UNL     1     -35.080  20.159   5.031  0.00  0.00    +0.292 HD
ENDBRANCH  14  22
TORSDOF 4
ENDMDL
MODEL 9
REMARK VINA RESULT:      -5.6      2.867      6.354
REMARK  Name = 5281658
REMARK  4 active torsions:
REMARK  status: ('A' for Active; 'I' for Inactive)
REMARK    1  A    between atoms: C_8  and  O_16
REMARK    2  A    between atoms: C_9  and  O_18
REMARK    3  A    between atoms: C_12  and  O_20
REMARK    4  A    between atoms: C_14  and  O_22
REMARK                            x       y       z     vdW  Elec       q    Type
REMARK                         _______ _______ _______ _____ _____    ______ ____
ROOT
ATOM      1  O   UNL     1     -34.258  24.732   1.508  0.00  0.00    -0.453 OA
ATOM      2  O   UNL     1     -34.956  23.906   5.454  0.00  0.00    -0.286 OA
ATOM      3  C   UNL     1     -35.108  23.202   3.211  0.00  0.00    +0.110 A 
ATOM      4  C   UNL     1     -34.122  25.413   3.849  0.00  0.00    +0.107 A 
ATOM      5  C   UNL     1     -33.914  25.631   2.488  0.00  0.00    +0.154 A 
ATOM      6  C   UNL     1     -34.842  23.549   1.887  0.00  0.00    +0.151 A 
ATOM      7  C   UNL     1     -34.747  24.150   4.276  0.00  0.00    +0.207 A 
ATOM      8  C   UNL     1     -35.705  21.977   3.518  0.00  0.00    +0.174 C 
ATOM      9  C   UNL     1     -33.745  26.377   4.789  0.00  0.00    +0.143 C 
ATOM     10  C   UNL     1     -33.323  26.822   2.061  0.00  0.00    +0.074 C 
ATOM     11  C   UNL     1     -35.176  22.663   0.860  0.00  0.00    +0.041 C 
ATOM     12  C   UNL     1     -36.037  21.096   2.488  0.00  0.00    +0.168 C 
ATOM     13  C   UNL     1     -33.155  27.564   4.356  0.00  0.00    +0.073 C 
ATOM     14  C   UNL     1     -32.944  27.787   2.995  0.00  0.00    +0.140 C 
ATOM     15  C   UNL     1     -35.773  21.439   1.162  0.00  0.00    +0.043 C 
ENDROOT
BRANCH   8  16
ATOM     16  O   UNL     1     -35.979  21.604   4.801  0.00  0.00    -0.503 OA
ATOM     17  H   UNL     1     -36.361  20.766   4.973  0.00  0.00    +0.292 HD
ENDBRANCH   8  16
BRANCH   9  18
ATOM     18  O   UNL     1     -33.926  26.211   6.128  0.00  0.00    -0.505 OA
ATOM     19  H   UNL     1     -34.752  25.913   6.456  0.00  0.00    +0.292 HD
ENDBRANCH   9  18
BRANCH  12  20
ATOM     20  O   UNL     1     -36.620  19.895   2.762  0.00  0.00    -0.503 OA
ATOM     21  H   UNL     1     -36.195  19.099   2.508  0.00  0.00    +0.292 HD
ENDBRANCH  12  20
BRANCH  14  22
ATOM     22  O   UNL     1     -32.368  28.947   2.577  0.00  0.00    -0.505 OA
ATOM     23  H   UNL     1     -32.888  29.721   2.483  0.00  0.00    +0.292 HD
ENDBRANCH  14  22
TORSDOF 4
ENDMDL
