MODEL 1
REMARK VINA RESULT:      -6.6      0.000      0.000
REMARK  Name = 57357408
REMARK  6 active torsions:
REMARK  status: ('A' for Active; 'I' for Inactive)
REMARK    1  A    between atoms: C_5  and  C_23
REMARK    2  A    between atoms: C_7  and  O_20
REMARK    3  A    between atoms: C_9  and  C_24
REMARK    4  A    between atoms: C_24  and  C_25
REMARK    5  A    between atoms: C_25  and  O_26
REMARK    6  A    between atoms: O_26  and  S_27
REMARK                            x       y       z     vdW  Elec       q    Type
REMARK                         _______ _______ _______ _____ _____    ______ ____
ROOT
ATOM      1  O   UNL     1     -32.864  26.922   6.309  0.00  0.00    -0.296 OA
ATOM      2  C   UNL     1     -34.916  23.443   1.287  0.00  0.00    +0.003 C 
ATOM      3  C   UNL     1     -35.110  23.270   2.821  0.00  0.00    +0.027 C 
ATOM      4  C   UNL     1     -34.625  22.071   0.605  0.00  0.00    +0.007 C 
ATOM      5  C   UNL     1     -35.441  20.872   1.157  0.00  0.00    +0.061 C 
ATOM      6  C   UNL     1     -35.103  24.638   3.617  0.00  0.00    +0.003 C 
ATOM      7  C   UNL     1     -36.279  22.284   3.129  0.00  0.00    +0.111 C 
ATOM      8  C   UNL     1     -33.800  25.411   3.225  0.00  0.00    +0.007 C 
ATOM      9  C   UNL     1     -35.807  20.057  -0.109  0.00  0.00    +0.010 C 
ATOM     10  C   UNL     1     -36.645  21.355   1.964  0.00  0.00    +0.037 C 
ATOM     11  C   UNL     1     -33.765  24.409   0.930  0.00  0.00    +0.000 C 
ATOM     12  C   UNL     1     -34.887  22.109  -0.916  0.00  0.00    +0.000 C 
ATOM     13  C   UNL     1     -33.761  25.705   1.724  0.00  0.00    +0.000 C 
ATOM     14  C   UNL     1     -36.018  21.127  -1.174  0.00  0.00    +0.001 C 
ATOM     15  C   UNL     1     -35.021  24.359   5.145  0.00  0.00    +0.008 C 
ATOM     16  C   UNL     1     -36.355  25.502   3.311  0.00  0.00    +0.000 C 
ATOM     17  C   UNL     1     -33.564  26.694   4.031  0.00  0.00    +0.064 C 
ATOM     18  C   UNL     1     -34.844  25.617   5.988  0.00  0.00    +0.065 C 
ATOM     19  C   UNL     1     -33.658  26.421   5.514  0.00  0.00    +0.151 C 
ENDROOT
BRANCH   7  20
ATOM     20  O   UNL     1     -37.498  22.922   3.485  0.00  0.00    -0.384 OA
ATOM     21  H   UNL     1     -38.245  22.351   3.244  0.00  0.00    +0.210 HD
ENDBRANCH   7  20
BRANCH   5  23
ATOM     22  O   UNL     1     -33.723  19.232   1.584  0.00  0.00    -0.288 OA
ATOM     23  C   UNL     1     -34.579  19.990   2.027  0.00  0.00    +0.207 C 
ENDBRANCH   5  23
BRANCH   9  24
ATOM     24  C   UNL     1     -37.003  19.121   0.011  0.00  0.00    +0.035 C 
BRANCH  24  25
ATOM     25  C   UNL     1     -38.222  19.690  -0.688  0.00  0.00    +0.177 C 
BRANCH  25  26
ATOM     26  O   UNL     1     -39.234  19.912   0.284  0.00  0.00    -0.200 OA
BRANCH  26  27
ATOM     27  S   UNL     1     -40.106  21.296   0.248  0.00  0.00    +0.239 S 
ATOM     28  O   UNL     1     -40.043  21.827   1.790  0.00  0.00    -0.116 OA
ATOM     29  O   UNL     1     -39.379  22.248  -0.572  0.00  0.00    -0.022 OA
ATOM     30  O   UNL     1     -41.487  20.974  -0.058  0.00  0.00    -0.116 OA
ENDBRANCH  26  27
ENDBRANCH  25  26
ENDBRANCH  24  25
ENDBRANCH   9  24
TORSDOF 6
ENDMDL
MODEL 2
REMARK VINA RESULT:      -6.5      3.673      8.122
REMARK  Name = 57357408
REMARK  6 active torsions:
REMARK  status: ('A' for Active; 'I' for Inactive)
REMARK    1  A    between atoms: C_5  and  C_23
REMARK    2  A    between atoms: C_7  and  O_20
REMARK    3  A    between atoms: C_9  and  C_24
REMARK    4  A    between atoms: C_24  and  C_25
REMARK    5  A    between atoms: C_25  and  O_26
REMARK    6  A    between atoms: O_26  and  S_27
REMARK                            x       y       z     vdW  Elec       q    Type
REMARK                         _______ _______ _______ _____ _____    ______ ____
ROOT
ATOM      1  O   UNL     1     -40.893  23.593  -2.459  0.00  0.00    -0.296 OA
ATOM      2  C   UNL     1     -37.443  23.259   2.976  0.00  0.00    +0.003 C 
ATOM      3  C   UNL     1     -37.839  24.458   2.066  0.00  0.00    +0.027 C 
ATOM      4  C   UNL     1     -35.959  23.379   3.441  0.00  0.00    +0.007 C 
ATOM      5  C   UNL     1     -35.492  24.815   3.798  0.00  0.00    +0.061 C 
ATOM      6  C   UNL     1     -39.216  24.254   1.314  0.00  0.00    +0.003 C 
ATOM      7  C   UNL     1     -37.640  25.815   2.812  0.00  0.00    +0.111 C 
ATOM      8  C   UNL     1     -39.149  22.882   0.563  0.00  0.00    +0.007 C 
ATOM      9  C   UNL     1     -34.605  24.616   5.052  0.00  0.00    +0.010 C 
ATOM     10  C   UNL     1     -36.688  25.742   4.013  0.00  0.00    +0.037 C 
ATOM     11  C   UNL     1     -37.618  21.892   2.280  0.00  0.00    +0.000 C 
ATOM     12  C   UNL     1     -35.665  22.507   4.680  0.00  0.00    +0.000 C 
ATOM     13  C   UNL     1     -38.936  21.725   1.542  0.00  0.00    +0.000 C 
ATOM     14  C   UNL     1     -35.285  23.471   5.792  0.00  0.00    +0.001 C 
ATOM     15  C   UNL     1     -39.394  25.355   0.230  0.00  0.00    +0.008 C 
ATOM     16  C   UNL     1     -40.426  24.278   2.286  0.00  0.00    +0.000 C 
ATOM     17  C   UNL     1     -40.353  22.605  -0.345  0.00  0.00    +0.064 C 
ATOM     18  C   UNL     1     -40.615  25.146  -0.659  0.00  0.00    +0.065 C 
ATOM     19  C   UNL     1     -40.604  23.768  -1.275  0.00  0.00    +0.151 C 
ENDROOT
BRANCH   7  20
ATOM     20  O   UNL     1     -38.840  26.373   3.331  0.00  0.00    -0.384 OA
ATOM     21  H   UNL     1     -39.279  25.723   3.902  0.00  0.00    +0.210 HD
ENDBRANCH   7  20
BRANCH   5  23
ATOM     22  O   UNL     1     -34.095  24.695   1.833  0.00  0.00    -0.288 OA
ATOM     23  C   UNL     1     -34.612  25.381   2.709  0.00  0.00    +0.207 C 
ENDBRANCH   5  23
BRANCH   9  24
ATOM     24  C   UNL     1     -34.406  25.837   5.941  0.00  0.00    +0.035 C 
BRANCH  24  25
ATOM     25  C   UNL     1     -33.280  26.715   5.431  0.00  0.00    +0.177 C 
BRANCH  25  26
ATOM     26  O   UNL     1     -32.792  27.494   6.515  0.00  0.00    -0.200 OA
BRANCH  26  27
ATOM     27  S   UNL     1     -31.729  28.705   6.231  0.00  0.00    +0.239 S 
ATOM     28  O   UNL     1     -32.433  29.557   5.030  0.00  0.00    -0.116 OA
ATOM     29  O   UNL     1     -31.705  29.550   7.411  0.00  0.00    -0.022 OA
ATOM     30  O   UNL     1     -30.498  28.139   5.714  0.00  0.00    -0.116 OA
ENDBRANCH  26  27
ENDBRANCH  25  26
ENDBRANCH  24  25
ENDBRANCH   9  24
TORSDOF 6
ENDMDL
MODEL 3
REMARK VINA RESULT:      -6.4      3.124      8.071
REMARK  Name = 57357408
REMARK  6 active torsions:
REMARK  status: ('A' for Active; 'I' for Inactive)
REMARK    1  A    between atoms: C_5  and  C_23
REMARK    2  A    between atoms: C_7  and  O_20
REMARK    3  A    between atoms: C_9  and  C_24
REMARK    4  A    between atoms: C_24  and  C_25
REMARK    5  A    between atoms: C_25  and  O_26
REMARK    6  A    between atoms: O_26  and  S_27
REMARK                            x       y       z     vdW  Elec       q    Type
REMARK                         _______ _______ _______ _____ _____    ______ ____
ROOT
ATOM      1  O   UNL     1     -39.151  17.870  -0.987  0.00  0.00    -0.296 OA
ATOM      2  C   UNL     1     -37.512  23.178   2.281  0.00  0.00    +0.003 C 
ATOM      3  C   UNL     1     -36.720  21.885   1.932  0.00  0.00    +0.027 C 
ATOM      4  C   UNL     1     -37.236  23.621   3.750  0.00  0.00    +0.007 C 
ATOM      5  C   UNL     1     -35.769  23.454   4.227  0.00  0.00    +0.061 C 
ATOM      6  C   UNL     1     -37.179  21.208   0.577  0.00  0.00    +0.003 C 
ATOM      7  C   UNL     1     -35.187  22.098   2.127  0.00  0.00    +0.111 C 
ATOM      8  C   UNL     1     -38.729  21.005   0.648  0.00  0.00    +0.007 C 
ATOM      9  C   UNL     1     -35.505  24.726   5.070  0.00  0.00    +0.010 C 
ATOM     10  C   UNL     1     -34.824  23.277   3.039  0.00  0.00    +0.037 C 
ATOM     11  C   UNL     1     -39.037  23.016   2.107  0.00  0.00    +0.000 C 
ATOM     12  C   UNL     1     -37.603  25.101   3.992  0.00  0.00    +0.000 C 
ATOM     13  C   UNL     1     -39.456  22.341   0.812  0.00  0.00    +0.000 C 
ATOM     14  C   UNL     1     -36.305  25.804   4.349  0.00  0.00    +0.001 C 
ATOM     15  C   UNL     1     -36.543  19.795   0.451  0.00  0.00    +0.008 C 
ATOM     16  C   UNL     1     -36.803  22.062  -0.663  0.00  0.00    +0.000 C 
ATOM     17  C   UNL     1     -39.313  20.215  -0.530  0.00  0.00    +0.064 C 
ATOM     18  C   UNL     1     -37.055  18.998  -0.744  0.00  0.00    +0.065 C 
ATOM     19  C   UNL     1     -38.562  18.920  -0.733  0.00  0.00    +0.151 C 
ENDROOT
BRANCH   7  20
ATOM     20  O   UNL     1     -34.477  22.338   0.919  0.00  0.00    -0.384 OA
ATOM     21  H   UNL     1     -33.689  22.873   1.108  0.00  0.00    +0.210 HD
ENDBRANCH   7  20
BRANCH   5  23
ATOM     22  O   UNL     1     -35.937  22.296   6.339  0.00  0.00    -0.288 OA
ATOM     23  C   UNL     1     -35.636  22.266   5.150  0.00  0.00    +0.207 C 
ENDBRANCH   5  23
BRANCH   9  24
ATOM     24  C   UNL     1     -34.046  25.122   5.259  0.00  0.00    +0.035 C 
BRANCH  24  25
ATOM     25  C   UNL     1     -33.865  26.625   5.180  0.00  0.00    +0.177 C 
BRANCH  25  26
ATOM     26  O   UNL     1     -32.815  26.998   6.061  0.00  0.00    -0.200 OA
BRANCH  26  27
ATOM     27  S   UNL     1     -31.959  28.362   5.774  0.00  0.00    +0.239 S 
ATOM     28  O   UNL     1     -32.932  29.221   4.784  0.00  0.00    -0.116 OA
ATOM     29  O   UNL     1     -31.861  29.087   7.027  0.00  0.00    -0.022 OA
ATOM     30  O   UNL     1     -30.760  28.019   5.033  0.00  0.00    -0.116 OA
ENDBRANCH  26  27
ENDBRANCH  25  26
ENDBRANCH  24  25
ENDBRANCH   9  24
TORSDOF 6
ENDMDL
MODEL 4
REMARK VINA RESULT:      -6.4      1.838      2.362
REMARK  Name = 57357408
REMARK  6 active torsions:
REMARK  status: ('A' for Active; 'I' for Inactive)
REMARK    1  A    between atoms: C_5  and  C_23
REMARK    2  A    between atoms: C_7  and  O_20
REMARK    3  A    between atoms: C_9  and  C_24
REMARK    4  A    between atoms: C_24  and  C_25
REMARK    5  A    between atoms: C_25  and  O_26
REMARK    6  A    between atoms: O_26  and  S_27
REMARK                            x       y       z     vdW  Elec       q    Type
REMARK                         _______ _______ _______ _____ _____    ______ ____
ROOT
ATOM      1  O   UNL     1     -32.875  26.949   6.130  0.00  0.00    -0.296 OA
ATOM      2  C   UNL     1     -34.987  23.234   1.304  0.00  0.00    +0.003 C 
ATOM      3  C   UNL     1     -35.082  23.085   2.851  0.00  0.00    +0.027 C 
ATOM      4  C   UNL     1     -34.650  21.867   0.634  0.00  0.00    +0.007 C 
ATOM      5  C   UNL     1     -35.356  20.633   1.255  0.00  0.00    +0.061 C 
ATOM      6  C   UNL     1     -35.116  24.469   3.618  0.00  0.00    +0.003 C 
ATOM      7  C   UNL     1     -36.167  22.036   3.246  0.00  0.00    +0.111 C 
ATOM      8  C   UNL     1     -33.888  25.311   3.135  0.00  0.00    +0.007 C 
ATOM      9  C   UNL     1     -35.741  19.769   0.029  0.00  0.00    +0.010 C 
ATOM     10  C   UNL     1     -36.540  21.060   2.122  0.00  0.00    +0.037 C 
ATOM     11  C   UNL     1     -33.921  24.260   0.862  0.00  0.00    +0.000 C 
ATOM     12  C   UNL     1     -35.000  21.854  -0.870  0.00  0.00    +0.000 C 
ATOM     13  C   UNL     1     -33.954  25.572   1.629  0.00  0.00    +0.000 C 
ATOM     14  C   UNL     1     -36.079  20.798  -1.042  0.00  0.00    +0.001 C 
ATOM     15  C   UNL     1     -34.929  24.231   5.143  0.00  0.00    +0.008 C 
ATOM     16  C   UNL     1     -36.435  25.247   3.369  0.00  0.00    +0.000 C 
ATOM     17  C   UNL     1     -33.688  26.624   3.901  0.00  0.00    +0.064 C 
ATOM     18  C   UNL     1     -34.784  25.517   5.950  0.00  0.00    +0.065 C 
ATOM     19  C   UNL     1     -33.679  26.381   5.392  0.00  0.00    +0.151 C 
ENDROOT
BRANCH   7  20
ATOM     20  O   UNL     1     -37.402  22.606   3.660  0.00  0.00    -0.384 OA
ATOM     21  H   UNL     1     -37.416  22.679   4.627  0.00  0.00    +0.210 HD
ENDBRANCH   7  20
BRANCH   5  23
ATOM     22  O   UNL     1     -33.565  19.056   1.615  0.00  0.00    -0.288 OA
ATOM     23  C   UNL     1     -34.392  19.826   2.091  0.00  0.00    +0.207 C 
ENDBRANCH   5  23
BRANCH   9  24
ATOM     24  C   UNL     1     -36.868  18.764   0.237  0.00  0.00    +0.035 C 
BRANCH  24  25
ATOM     25  C   UNL     1     -37.553  18.423  -1.071  0.00  0.00    +0.177 C 
BRANCH  25  26
ATOM     26  O   UNL     1     -38.832  17.875  -0.779  0.00  0.00    -0.200 OA
BRANCH  26  27
ATOM     27  S   UNL     1     -39.128  16.296  -1.085  0.00  0.00    +0.239 S 
ATOM     28  O   UNL     1     -38.248  15.516   0.046  0.00  0.00    -0.116 OA
ATOM     29  O   UNL     1     -40.529  16.051  -0.794  0.00  0.00    -0.022 OA
ATOM     30  O   UNL     1     -38.583  15.958  -2.386  0.00  0.00    -0.116 OA
ENDBRANCH  26  27
ENDBRANCH  25  26
ENDBRANCH  24  25
ENDBRANCH   9  24
TORSDOF 6
ENDMDL
MODEL 5
REMARK VINA RESULT:      -6.3      2.257      3.386
REMARK  Name = 57357408
REMARK  6 active torsions:
REMARK  status: ('A' for Active; 'I' for Inactive)
REMARK    1  A    between atoms: C_5  and  C_23
REMARK    2  A    between atoms: C_7  and  O_20
REMARK    3  A    between atoms: C_9  and  C_24
REMARK    4  A    between atoms: C_24  and  C_25
REMARK    5  A    between atoms: C_25  and  O_26
REMARK    6  A    between atoms: O_26  and  S_27
REMARK                            x       y       z     vdW  Elec       q    Type
REMARK                         _______ _______ _______ _____ _____    ______ ____
ROOT
ATOM      1  O   UNL     1     -33.155  26.875   6.108  0.00  0.00    -0.296 OA
ATOM      2  C   UNL     1     -35.006  23.194   1.151  0.00  0.00    +0.003 C 
ATOM      3  C   UNL     1     -35.193  23.041   2.688  0.00  0.00    +0.027 C 
ATOM      4  C   UNL     1     -34.640  21.828   0.495  0.00  0.00    +0.007 C 
ATOM      5  C   UNL     1     -35.391  20.597   1.069  0.00  0.00    +0.061 C 
ATOM      6  C   UNL     1     -35.262  24.422   3.458  0.00  0.00    +0.003 C 
ATOM      7  C   UNL     1     -36.308  21.998   3.014  0.00  0.00    +0.111 C 
ATOM      8  C   UNL     1     -34.002  25.256   3.052  0.00  0.00    +0.007 C 
ATOM      9  C   UNL     1     -35.709  19.740  -0.182  0.00  0.00    +0.010 C 
ATOM     10  C   UNL     1     -36.621  21.029   1.866  0.00  0.00    +0.037 C 
ATOM     11  C   UNL     1     -33.909  24.214   0.776  0.00  0.00    +0.000 C 
ATOM     12  C   UNL     1     -34.902  21.823  -1.027  0.00  0.00    +0.000 C 
ATOM     13  C   UNL     1     -33.977  25.524   1.546  0.00  0.00    +0.000 C 
ATOM     14  C   UNL     1     -35.976  20.776  -1.266  0.00  0.00    +0.001 C 
ATOM     15  C   UNL     1     -35.168  24.176   4.991  0.00  0.00    +0.008 C 
ATOM     16  C   UNL     1     -36.559  25.211   3.135  0.00  0.00    +0.000 C 
ATOM     17  C   UNL     1     -33.838  26.565   3.834  0.00  0.00    +0.064 C 
ATOM     18  C   UNL     1     -35.061  25.458   5.810  0.00  0.00    +0.065 C 
ATOM     19  C   UNL     1     -33.919  26.316   5.322  0.00  0.00    +0.151 C 
ENDROOT
BRANCH   7  20
ATOM     20  O   UNL     1     -37.561  22.576   3.357  0.00  0.00    -0.384 OA
ATOM     21  H   UNL     1     -37.878  23.120   2.619  0.00  0.00    +0.210 HD
ENDBRANCH   7  20
BRANCH   5  23
ATOM     22  O   UNL     1     -33.596  19.050   1.527  0.00  0.00    -0.288 OA
ATOM     23  C   UNL     1     -34.484  19.780   1.956  0.00  0.00    +0.207 C 
ENDBRANCH   5  23
BRANCH   9  24
ATOM     24  C   UNL     1     -36.853  18.743  -0.045  0.00  0.00    +0.035 C 
BRANCH  24  25
ATOM     25  C   UNL     1     -36.622  17.514  -0.902  0.00  0.00    +0.177 C 
BRANCH  25  26
ATOM     26  O   UNL     1     -35.227  17.248  -0.938  0.00  0.00    -0.200 OA
BRANCH  26  27
ATOM     27  S   UNL     1     -34.675  15.753  -0.567  0.00  0.00    +0.239 S 
ATOM     28  O   UNL     1     -34.389  15.079  -2.026  0.00  0.00    -0.116 OA
ATOM     29  O   UNL     1     -33.395  15.913   0.098  0.00  0.00    -0.022 OA
ATOM     30  O   UNL     1     -35.741  15.003   0.070  0.00  0.00    -0.116 OA
ENDBRANCH  26  27
ENDBRANCH  25  26
ENDBRANCH  24  25
ENDBRANCH   9  24
TORSDOF 6
ENDMDL
MODEL 6
REMARK VINA RESULT:      -5.9      2.981      5.229
REMARK  Name = 57357408
REMARK  6 active torsions:
REMARK  status: ('A' for Active; 'I' for Inactive)
REMARK    1  A    between atoms: C_5  and  C_23
REMARK    2  A    between atoms: C_7  and  O_20
REMARK    3  A    between atoms: C_9  and  C_24
REMARK    4  A    between atoms: C_24  and  C_25
REMARK    5  A    between atoms: C_25  and  O_26
REMARK    6  A    between atoms: O_26  and  S_27
REMARK                            x       y       z     vdW  Elec       q    Type
REMARK                         _______ _______ _______ _____ _____    ______ ____
ROOT
ATOM      1  O   UNL     1     -32.498  31.660   3.576  0.00  0.00    -0.296 OA
ATOM      2  C   UNL     1     -33.972  25.476   4.638  0.00  0.00    +0.003 C 
ATOM      3  C   UNL     1     -34.119  26.380   3.379  0.00  0.00    +0.027 C 
ATOM      4  C   UNL     1     -35.234  24.580   4.831  0.00  0.00    +0.007 C 
ATOM      5  C   UNL     1     -35.842  24.004   3.524  0.00  0.00    +0.061 C 
ATOM      6  C   UNL     1     -33.028  27.523   3.291  0.00  0.00    +0.003 C 
ATOM      7  C   UNL     1     -34.342  25.520   2.097  0.00  0.00    +0.111 C 
ATOM      8  C   UNL     1     -33.052  28.309   4.644  0.00  0.00    +0.007 C 
ATOM      9  C   UNL     1     -36.242  22.558   3.908  0.00  0.00    +0.010 C 
ATOM     10  C   UNL     1     -34.845  24.096   2.370  0.00  0.00    +0.037 C 
ATOM     11  C   UNL     1     -33.753  26.282   5.936  0.00  0.00    +0.000 C 
ATOM     12  C   UNL     1     -34.955  23.371   5.749  0.00  0.00    +0.000 C 
ATOM     13  C   UNL     1     -32.721  27.392   5.823  0.00  0.00    +0.000 C 
ATOM     14  C   UNL     1     -35.156  22.134   4.889  0.00  0.00    +0.001 C 
ATOM     15  C   UNL     1     -33.413  28.533   2.173  0.00  0.00    +0.008 C 
ATOM     16  C   UNL     1     -31.608  26.960   3.018  0.00  0.00    +0.000 C 
ATOM     17  C   UNL     1     -32.156  29.554   4.661  0.00  0.00    +0.064 C 
ATOM     18  C   UNL     1     -32.509  29.760   2.120  0.00  0.00    +0.065 C 
ATOM     19  C   UNL     1     -32.437  30.436   3.468  0.00  0.00    +0.151 C 
ENDROOT
BRANCH   7  20
ATOM     20  O   UNL     1     -33.175  25.349   1.303  0.00  0.00    -0.384 OA
ATOM     21  H   UNL     1     -32.615  24.660   1.695  0.00  0.00    +0.210 HD
ENDBRANCH   7  20
BRANCH   5  23
ATOM     22  O   UNL     1     -38.210  24.464   3.612  0.00  0.00    -0.288 OA
ATOM     23  C   UNL     1     -37.107  24.738   3.150  0.00  0.00    +0.207 C 
ENDBRANCH   5  23
BRANCH   9  24
ATOM     24  C   UNL     1     -36.395  21.570   2.757  0.00  0.00    +0.035 C 
BRANCH  24  25
ATOM     25  C   UNL     1     -35.243  20.584   2.718  0.00  0.00    +0.177 C 
BRANCH  25  26
ATOM     26  O   UNL     1     -35.360  19.805   1.536  0.00  0.00    -0.200 OA
BRANCH  26  27
ATOM     27  S   UNL     1     -34.013  19.332   0.738  0.00  0.00    +0.239 S 
ATOM     28  O   UNL     1     -33.212  20.731   0.480  0.00  0.00    -0.116 OA
ATOM     29  O   UNL     1     -33.218  18.537   1.656  0.00  0.00    -0.022 OA
ATOM     30  O   UNL     1     -34.395  18.792  -0.553  0.00  0.00    -0.116 OA
ENDBRANCH  26  27
ENDBRANCH  25  26
ENDBRANCH  24  25
ENDBRANCH   9  24
TORSDOF 6
ENDMDL
MODEL 7
REMARK VINA RESULT:      -5.9      3.310      7.877
REMARK  Name = 57357408
REMARK  6 active torsions:
REMARK  status: ('A' for Active; 'I' for Inactive)
REMARK    1  A    between atoms: C_5  and  C_23
REMARK    2  A    between atoms: C_7  and  O_20
REMARK    3  A    between atoms: C_9  and  C_24
REMARK    4  A    between atoms: C_24  and  C_25
REMARK    5  A    between atoms: C_25  and  O_26
REMARK    6  A    between atoms: O_26  and  S_27
REMARK                            x       y       z     vdW  Elec       q    Type
REMARK                         _______ _______ _______ _____ _____    ______ ____
ROOT
ATOM      1  O   UNL     1     -39.675  22.442  -3.329  0.00  0.00    -0.296 OA
ATOM      2  C   UNL     1     -37.077  22.696   2.564  0.00  0.00    +0.003 C 
ATOM      3  C   UNL     1     -37.521  23.811   1.574  0.00  0.00    +0.027 C 
ATOM      4  C   UNL     1     -35.720  23.060   3.241  0.00  0.00    +0.007 C 
ATOM      5  C   UNL     1     -35.553  24.555   3.624  0.00  0.00    +0.061 C 
ATOM      6  C   UNL     1     -38.718  23.379   0.631  0.00  0.00    +0.003 C 
ATOM      7  C   UNL     1     -37.662  25.183   2.304  0.00  0.00    +0.111 C 
ATOM      8  C   UNL     1     -38.315  22.036  -0.063  0.00  0.00    +0.007 C 
ATOM      9  C   UNL     1     -34.845  24.508   5.001  0.00  0.00    +0.010 C 
ATOM     10  C   UNL     1     -36.902  25.271   3.634  0.00  0.00    +0.037 C 
ATOM     11  C   UNL     1     -36.920  21.317   1.888  0.00  0.00    +0.000 C 
ATOM     12  C   UNL     1     -35.477  22.252   4.534  0.00  0.00    +0.000 C 
ATOM     13  C   UNL     1     -38.066  20.933   0.967  0.00  0.00    +0.000 C 
ATOM     14  C   UNL     1     -35.433  23.267   5.663  0.00  0.00    +0.001 C 
ATOM     15  C   UNL     1     -38.907  24.433  -0.496  0.00  0.00    +0.008 C 
ATOM     16  C   UNL     1     -40.047  23.205   1.412  0.00  0.00    +0.000 C 
ATOM     17  C   UNL     1     -39.306  21.561  -1.133  0.00  0.00    +0.064 C 
ATOM     18  C   UNL     1     -39.929  24.024  -1.551  0.00  0.00    +0.065 C 
ATOM     19  C   UNL     1     -39.600  22.665  -2.121  0.00  0.00    +0.151 C 
ENDROOT
BRANCH   7  20
ATOM     20  O   UNL     1     -39.001  25.536   2.623  0.00  0.00    -0.384 OA
ATOM     21  H   UNL     1     -39.562  24.744   2.589  0.00  0.00    +0.210 HD
ENDBRANCH   7  20
BRANCH   5  23
ATOM     22  O   UNL     1     -33.401  25.235   2.767  0.00  0.00    -0.288 OA
ATOM     23  C   UNL     1     -34.623  25.256   2.663  0.00  0.00    +0.207 C 
ENDBRANCH   5  23
BRANCH   9  24
ATOM     24  C   UNL     1     -34.984  25.747   5.876  0.00  0.00    +0.035 C 
BRANCH  24  25
ATOM     25  C   UNL     1     -33.639  26.399   6.130  0.00  0.00    +0.177 C 
BRANCH  25  26
ATOM     26  O   UNL     1     -33.505  27.508   5.252  0.00  0.00    -0.200 OA
BRANCH  26  27
ATOM     27  S   UNL     1     -32.050  28.236   5.078  0.00  0.00    +0.239 S 
ATOM     28  O   UNL     1     -32.375  29.811   5.352  0.00  0.00    -0.116 OA
ATOM     29  O   UNL     1     -31.198  27.772   6.158  0.00  0.00    -0.022 OA
ATOM     30  O   UNL     1     -31.618  28.102   3.700  0.00  0.00    -0.116 OA
ENDBRANCH  26  27
ENDBRANCH  25  26
ENDBRANCH  24  25
ENDBRANCH   9  24
TORSDOF 6
ENDMDL
MODEL 8
REMARK VINA RESULT:      -5.9      2.965      7.794
REMARK  Name = 57357408
REMARK  6 active torsions:
REMARK  status: ('A' for Active; 'I' for Inactive)
REMARK    1  A    between atoms: C_5  and  C_23
REMARK    2  A    between atoms: C_7  and  O_20
REMARK    3  A    between atoms: C_9  and  C_24
REMARK    4  A    between atoms: C_24  and  C_25
REMARK    5  A    between atoms: C_25  and  O_26
REMARK    6  A    between atoms: O_26  and  S_27
REMARK                            x       y       z     vdW  Elec       q    Type
REMARK                         _______ _______ _______ _____ _____    ______ ____
ROOT
ATOM      1  O   UNL     1     -37.371  18.195  -2.229  0.00  0.00    -0.296 OA
ATOM      2  C   UNL     1     -34.532  22.828   1.239  0.00  0.00    +0.003 C 
ATOM      3  C   UNL     1     -35.695  21.848   1.566  0.00  0.00    +0.027 C 
ATOM      4  C   UNL     1     -34.843  24.260   1.773  0.00  0.00    +0.007 C 
ATOM      5  C   UNL     1     -35.538  24.311   3.160  0.00  0.00    +0.061 C 
ATOM      6  C   UNL     1     -35.594  20.467   0.798  0.00  0.00    +0.003 C 
ATOM      7  C   UNL     1     -35.952  21.779   3.104  0.00  0.00    +0.111 C 
ATOM      8  C   UNL     1     -35.440  20.782  -0.727  0.00  0.00    +0.007 C 
ATOM      9  C   UNL     1     -34.853  25.503   3.874  0.00  0.00    +0.010 C 
ATOM     10  C   UNL     1     -35.401  22.975   3.890  0.00  0.00    +0.037 C 
ATOM     11  C   UNL     1     -34.242  22.934  -0.274  0.00  0.00    +0.000 C 
ATOM     12  C   UNL     1     -33.571  25.126   1.894  0.00  0.00    +0.000 C 
ATOM     13  C   UNL     1     -34.175  21.600  -0.998  0.00  0.00    +0.000 C 
ATOM     14  C   UNL     1     -33.416  25.442   3.372  0.00  0.00    +0.001 C 
ATOM     15  C   UNL     1     -36.921  19.674   0.964  0.00  0.00    +0.008 C 
ATOM     16  C   UNL     1     -34.404  19.604   1.294  0.00  0.00    +0.000 C 
ATOM     17  C   UNL     1     -35.485  19.544  -1.631  0.00  0.00    +0.064 C 
ATOM     18  C   UNL     1     -36.983  18.403   0.124  0.00  0.00    +0.065 C 
ATOM     19  C   UNL     1     -36.702  18.702  -1.329  0.00  0.00    +0.151 C 
ENDROOT
BRANCH   7  20
ATOM     20  O   UNL     1     -35.389  20.636   3.735  0.00  0.00    -0.384 OA
ATOM     21  H   UNL     1     -34.569  20.888   4.188  0.00  0.00    +0.210 HD
ENDBRANCH   7  20
BRANCH   5  23
ATOM     22  O   UNL     1     -37.829  24.471   3.903  0.00  0.00    -0.288 OA
ATOM     23  C   UNL     1     -37.001  24.653   3.016  0.00  0.00    +0.207 C 
ENDBRANCH   5  23
BRANCH   9  24
ATOM     24  C   UNL     1     -34.931  25.514   5.396  0.00  0.00    +0.035 C 
BRANCH  24  25
ATOM     25  C   UNL     1     -33.745  26.237   6.005  0.00  0.00    +0.177 C 
BRANCH  25  26
ATOM     26  O   UNL     1     -33.558  27.460   5.306  0.00  0.00    -0.200 OA
BRANCH  26  27
ATOM     27  S   UNL     1     -32.155  28.284   5.473  0.00  0.00    +0.239 S 
ATOM     28  O   UNL     1     -31.494  28.219   3.982  0.00  0.00    -0.116 OA
ATOM     29  O   UNL     1     -32.491  29.670   5.742  0.00  0.00    -0.022 OA
ATOM     30  O   UNL     1     -31.286  27.555   6.378  0.00  0.00    -0.116 OA
ENDBRANCH  26  27
ENDBRANCH  25  26
ENDBRANCH  24  25
ENDBRANCH   9  24
TORSDOF 6
ENDMDL
MODEL 9
REMARK VINA RESULT:      -5.8      3.369      7.211
REMARK  Name = 57357408
REMARK  6 active torsions:
REMARK  status: ('A' for Active; 'I' for Inactive)
REMARK    1  A    between atoms: C_5  and  C_23
REMARK    2  A    between atoms: C_7  and  O_20
REMARK    3  A    between atoms: C_9  and  C_24
REMARK    4  A    between atoms: C_24  and  C_25
REMARK    5  A    between atoms: C_25  and  O_26
REMARK    6  A    between atoms: O_26  and  S_27
REMARK                            x       y       z     vdW  Elec       q    Type
REMARK                         _______ _______ _______ _____ _____    ______ ____
ROOT
ATOM      1  O   UNL     1     -32.310  16.734  -0.109  0.00  0.00    -0.296 OA
ATOM      2  C   UNL     1     -36.535  21.400   1.282  0.00  0.00    +0.003 C 
ATOM      3  C   UNL     1     -34.982  21.343   1.366  0.00  0.00    +0.027 C 
ATOM      4  C   UNL     1     -37.135  22.114   2.532  0.00  0.00    +0.007 C 
ATOM      5  C   UNL     1     -36.337  23.345   3.036  0.00  0.00    +0.061 C 
ATOM      6  C   UNL     1     -34.326  20.374   0.300  0.00  0.00    +0.003 C 
ATOM      7  C   UNL     1     -34.376  22.775   1.481  0.00  0.00    +0.111 C 
ATOM      8  C   UNL     1     -35.021  18.979   0.433  0.00  0.00    +0.007 C 
ATOM      9  C   UNL     1     -37.435  24.365   3.426  0.00  0.00    +0.010 C 
ATOM     10  C   UNL     1     -35.365  23.843   1.967  0.00  0.00    +0.037 C 
ATOM     11  C   UNL     1     -37.184  20.003   1.170  0.00  0.00    +0.000 C 
ATOM     12  C   UNL     1     -38.578  22.604   2.286  0.00  0.00    +0.000 C 
ATOM     13  C   UNL     1     -36.523  19.080   0.160  0.00  0.00    +0.000 C 
ATOM     14  C   UNL     1     -38.532  24.119   2.398  0.00  0.00    +0.001 C 
ATOM     15  C   UNL     1     -32.821  20.165   0.634  0.00  0.00    +0.008 C 
ATOM     16  C   UNL     1     -34.469  20.912  -1.149  0.00  0.00    +0.000 C 
ATOM     17  C   UNL     1     -34.389  17.879  -0.429  0.00  0.00    +0.064 C 
ATOM     18  C   UNL     1     -32.141  19.118  -0.242  0.00  0.00    +0.065 C 
ATOM     19  C   UNL     1     -32.897  17.812  -0.206  0.00  0.00    +0.151 C 
ENDROOT
BRANCH   7  20
ATOM     20  O   UNL     1     -33.857  23.286   0.260  0.00  0.00    -0.384 OA
ATOM     21  H   UNL     1     -33.437  22.567  -0.239  0.00  0.00    +0.210 HD
ENDBRANCH   7  20
BRANCH   5  23
ATOM     22  O   UNL     1     -35.979  22.237   5.151  0.00  0.00    -0.288 OA
ATOM     23  C   UNL     1     -35.567  23.009   4.291  0.00  0.00    +0.207 C 
ENDBRANCH   5  23
BRANCH   9  24
ATOM     24  C   UNL     1     -37.012  25.828   3.477  0.00  0.00    +0.035 C 
BRANCH  24  25
ATOM     25  C   UNL     1     -36.282  26.149   4.767  0.00  0.00    +0.177 C 
BRANCH  25  26
ATOM     26  O   UNL     1     -35.217  27.041   4.469  0.00  0.00    -0.200 OA
BRANCH  26  27
ATOM     27  S   UNL     1     -33.703  26.700   4.986  0.00  0.00    +0.239 S 
ATOM     28  O   UNL     1     -32.893  28.097   4.747  0.00  0.00    -0.116 OA
ATOM     29  O   UNL     1     -33.771  26.475   6.419  0.00  0.00    -0.022 OA
ATOM     30  O   UNL     1     -33.124  25.694   4.116  0.00  0.00    -0.116 OA
ENDBRANCH  26  27
ENDBRANCH  25  26
ENDBRANCH  24  25
ENDBRANCH   9  24
TORSDOF 6
ENDMDL
