MODEL 1
REMARK VINA RESULT:      -5.5      0.000      0.000
REMARK  Name = 5479523
REMARK  14 active torsions:
REMARK  status: ('A' for Active; 'I' for Inactive)
REMARK    1  A    between atoms: C_1  and  C_2
REMARK    2  A    between atoms: C_1  and  C_18
REMARK    3  A    between atoms: C_2  and  C_3
REMARK    4  A    between atoms: C_3  and  O_4
REMARK    5  A    between atoms: O_4  and  C_5
REMARK    6  A    between atoms: C_8  and  C_13
REMARK    7  A    between atoms: N_12  and  C_13
REMARK    8  A    between atoms: N_12  and  O_16
REMARK    9  A    between atoms: C_18  and  C_19
REMARK   10  A    between atoms: C_19  and  O_20
REMARK   11  A    between atoms: O_20  and  C_21
REMARK   12  A    between atoms: C_24  and  C_29
REMARK   13  A    between atoms: N_28  and  C_29
REMARK   14  A    between atoms: N_28  and  O_32
REMARK                            x       y       z     vdW  Elec       q    Type
REMARK                         _______ _______ _______ _____ _____    ______ ____
ROOT
ATOM      1  C   UNL     1     -36.639  20.736   0.358  0.00  0.00    +0.008 C 
ENDROOT
BRANCH   1   2
ATOM      2  C   UNL     1     -35.946  19.712   1.262  0.00  0.00    +0.047 C 
BRANCH   2   3
ATOM      3  C   UNL     1     -34.865  20.346   2.128  0.00  0.00    +0.205 C 
BRANCH   3   4
ATOM      4  O   UNL     1     -35.352  20.540   3.447  0.00  0.00    -0.475 OA
BRANCH   4   5
ATOM      5  C   UNL     1     -35.329  21.822   3.935  0.00  0.00    +0.139 C 
ATOM      6  C   UNL     1     -35.171  22.898   3.061  0.00  0.00    +0.037 C 
ATOM      7  C   UNL     1     -35.465  22.050   5.304  0.00  0.00    +0.037 C 
ATOM      8  C   UNL     1     -35.285  24.429   4.925  0.00  0.00    +0.036 C 
ATOM      9  C   UNL     1     -35.149  24.201   3.556  0.00  0.00    +0.006 C 
ATOM     10  C   UNL     1     -35.442  23.354   5.798  0.00  0.00    +0.006 C 
BRANCH   8  12
ATOM     11  N   UNL     1     -36.428  26.564   5.403  0.00  0.00    -0.381 N 
ATOM     12  C   UNL     1     -35.263  25.789   5.441  0.00  0.00    +0.160 C 
ATOM     13  H   UNL     1     -36.419  27.485   5.751  0.00  0.00    +0.157 HD
ATOM     14  H   UNL     1     -37.257  26.188   5.028  0.00  0.00    +0.157 HD
BRANCH  12  15
ATOM     15  N   UNL     1     -34.128  26.256   5.941  0.00  0.00    -0.118 NA
BRANCH  15  16
ATOM     16  O   UNL     1     -33.557  27.239   5.127  0.00  0.00    -0.264 OA
ATOM     17  H   UNL     1     -32.676  27.142   4.822  0.00  0.00    +0.247 HD
ENDBRANCH  15  16
ENDBRANCH  12  15
ENDBRANCH   8  12
ENDBRANCH   4   5
ENDBRANCH   3   4
ENDBRANCH   2   3
ENDBRANCH   1   2
BRANCH   1  18
ATOM     18  C   UNL     1     -38.144  20.774   0.616  0.00  0.00    +0.047 C 
BRANCH  18  19
ATOM     19  C   UNL     1     -38.490  21.677   1.792  0.00  0.00    +0.205 C 
BRANCH  19  20
ATOM     20  O   UNL     1     -39.146  22.837   1.301  0.00  0.00    -0.475 OA
BRANCH  20  21
ATOM     21  C   UNL     1     -38.460  24.021   1.393  0.00  0.00    +0.139 C 
ATOM     22  C   UNL     1     -37.473  24.330   0.457  0.00  0.00    +0.037 C 
ATOM     23  C   UNL     1     -38.750  24.918   2.421  0.00  0.00    +0.037 C 
ATOM     24  C   UNL     1     -37.067  26.431   1.578  0.00  0.00    +0.036 C 
ATOM     25  C   UNL     1     -36.776  25.534   0.549  0.00  0.00    +0.006 C 
ATOM     26  C   UNL     1     -38.053  26.122   2.514  0.00  0.00    +0.006 C 
BRANCH  24  28
ATOM     27  N   UNL     1     -36.776  28.798   0.940  0.00  0.00    -0.381 N 
ATOM     28  C   UNL     1     -36.340  27.688   1.674  0.00  0.00    +0.160 C 
ATOM     29  H   UNL     1     -36.289  29.650   1.002  0.00  0.00    +0.157 HD
ATOM     30  H   UNL     1     -37.571  28.725   0.363  0.00  0.00    +0.157 HD
BRANCH  28  31
ATOM     31  N   UNL     1     -35.279  27.744   2.465  0.00  0.00    -0.118 NA
BRANCH  31  32
ATOM     32  O   UNL     1     -35.414  28.715   3.462  0.00  0.00    -0.264 OA
ATOM     33  H   UNL     1     -35.387  29.624   3.237  0.00  0.00    +0.247 HD
ENDBRANCH  31  32
ENDBRANCH  28  31
ENDBRANCH  24  28
ENDBRANCH  20  21
ENDBRANCH  19  20
ENDBRANCH  18  19
ENDBRANCH   1  18
TORSDOF 14
ENDMDL
MODEL 2
REMARK VINA RESULT:      -5.4      2.733      5.777
REMARK  Name = 5479523
REMARK  14 active torsions:
REMARK  status: ('A' for Active; 'I' for Inactive)
REMARK    1  A    between atoms: C_1  and  C_2
REMARK    2  A    between atoms: C_1  and  C_18
REMARK    3  A    between atoms: C_2  and  C_3
REMARK    4  A    between atoms: C_3  and  O_4
REMARK    5  A    between atoms: O_4  and  C_5
REMARK    6  A    between atoms: C_8  and  C_13
REMARK    7  A    between atoms: N_12  and  C_13
REMARK    8  A    between atoms: N_12  and  O_16
REMARK    9  A    between atoms: C_18  and  C_19
REMARK   10  A    between atoms: C_19  and  O_20
REMARK   11  A    between atoms: O_20  and  C_21
REMARK   12  A    between atoms: C_24  and  C_29
REMARK   13  A    between atoms: N_28  and  C_29
REMARK   14  A    between atoms: N_28  and  O_32
REMARK                            x       y       z     vdW  Elec       q    Type
REMARK                         _______ _______ _______ _____ _____    ______ ____
ROOT
ATOM      1  C   UNL     1     -34.934  29.291   0.683  0.00  0.00    +0.008 C 
ENDROOT
BRANCH   1   2
ATOM      2  C   UNL     1     -34.384  29.615   2.075  0.00  0.00    +0.047 C 
BRANCH   2   3
ATOM      3  C   UNL     1     -33.830  28.383   2.778  0.00  0.00    +0.205 C 
BRANCH   3   4
ATOM      4  O   UNL     1     -34.680  28.016   3.855  0.00  0.00    -0.475 OA
BRANCH   4   5
ATOM      5  C   UNL     1     -34.904  26.676   4.040  0.00  0.00    +0.139 C 
ATOM      6  C   UNL     1     -35.774  26.246   5.042  0.00  0.00    +0.037 C 
ATOM      7  C   UNL     1     -34.264  25.743   3.225  0.00  0.00    +0.037 C 
ATOM      8  C   UNL     1     -35.363  23.950   4.415  0.00  0.00    +0.036 C 
ATOM      9  C   UNL     1     -36.003  24.883   5.230  0.00  0.00    +0.006 C 
ATOM     10  C   UNL     1     -34.494  24.379   3.413  0.00  0.00    +0.006 C 
BRANCH   8  12
ATOM     11  N   UNL     1     -36.028  22.062   5.860  0.00  0.00    -0.381 N 
ATOM     12  C   UNL     1     -35.604  22.529   4.610  0.00  0.00    +0.160 C 
ATOM     13  H   UNL     1     -36.192  21.101   5.997  0.00  0.00    +0.157 HD
ATOM     14  H   UNL     1     -36.161  22.695   6.602  0.00  0.00    +0.157 HD
BRANCH  12  15
ATOM     15  N   UNL     1     -35.416  21.711   3.585  0.00  0.00    -0.118 NA
BRANCH  15  16
ATOM     16  O   UNL     1     -35.791  20.396   3.882  0.00  0.00    -0.264 OA
ATOM     17  H   UNL     1     -36.539  20.233   4.420  0.00  0.00    +0.247 HD
ENDBRANCH  15  16
ENDBRANCH  12  15
ENDBRANCH   8  12
ENDBRANCH   4   5
ENDBRANCH   3   4
ENDBRANCH   2   3
ENDBRANCH   1   2
BRANCH   1  18
ATOM     18  C   UNL     1     -36.462  29.300   0.674  0.00  0.00    +0.047 C 
BRANCH  18  19
ATOM     19  C   UNL     1     -37.030  27.897   0.513  0.00  0.00    +0.205 C 
BRANCH  19  20
ATOM     20  O   UNL     1     -37.383  27.396   1.795  0.00  0.00    -0.475 OA
BRANCH  20  21
ATOM     21  C   UNL     1     -37.749  26.076   1.864  0.00  0.00    +0.139 C 
ATOM     22  C   UNL     1     -37.143  25.140   1.027  0.00  0.00    +0.037 C 
ATOM     23  C   UNL     1     -38.726  25.669   2.774  0.00  0.00    +0.037 C 
ATOM     24  C   UNL     1     -38.491  23.391   2.008  0.00  0.00    +0.036 C 
ATOM     25  C   UNL     1     -37.514  23.797   1.098  0.00  0.00    +0.006 C 
ATOM     26  C   UNL     1     -39.096  24.327   2.845  0.00  0.00    +0.006 C 
BRANCH  24  28
ATOM     27  N   UNL     1     -37.888  21.000   2.123  0.00  0.00    -0.381 N 
ATOM     28  C   UNL     1     -38.877  21.990   2.083  0.00  0.00    +0.160 C 
ATOM     29  H   UNL     1     -38.144  20.051   2.175  0.00  0.00    +0.157 HD
ATOM     30  H   UNL     1     -36.936  21.253   2.101  0.00  0.00    +0.157 HD
BRANCH  28  31
ATOM     31  N   UNL     1     -40.168  21.692   2.114  0.00  0.00    -0.118 NA
BRANCH  31  32
ATOM     32  O   UNL     1     -40.728  21.633   0.835  0.00  0.00    -0.264 OA
ATOM     33  H   UNL     1     -40.223  21.894   0.090  0.00  0.00    +0.247 HD
ENDBRANCH  31  32
ENDBRANCH  28  31
ENDBRANCH  24  28
ENDBRANCH  20  21
ENDBRANCH  19  20
ENDBRANCH  18  19
ENDBRANCH   1  18
TORSDOF 14
ENDMDL
MODEL 3
REMARK VINA RESULT:      -5.4      1.844      2.537
REMARK  Name = 5479523
REMARK  14 active torsions:
REMARK  status: ('A' for Active; 'I' for Inactive)
REMARK    1  A    between atoms: C_1  and  C_2
REMARK    2  A    between atoms: C_1  and  C_18
REMARK    3  A    between atoms: C_2  and  C_3
REMARK    4  A    between atoms: C_3  and  O_4
REMARK    5  A    between atoms: O_4  and  C_5
REMARK    6  A    between atoms: C_8  and  C_13
REMARK    7  A    between atoms: N_12  and  C_13
REMARK    8  A    between atoms: N_12  and  O_16
REMARK    9  A    between atoms: C_18  and  C_19
REMARK   10  A    between atoms: C_19  and  O_20
REMARK   11  A    between atoms: O_20  and  C_21
REMARK   12  A    between atoms: C_24  and  C_29
REMARK   13  A    between atoms: N_28  and  C_29
REMARK   14  A    between atoms: N_28  and  O_32
REMARK                            x       y       z     vdW  Elec       q    Type
REMARK                         _______ _______ _______ _____ _____    ______ ____
ROOT
ATOM      1  C   UNL     1     -36.525  19.998  -0.084  0.00  0.00    +0.008 C 
ENDROOT
BRANCH   1   2
ATOM      2  C   UNL     1     -35.827  19.371   1.126  0.00  0.00    +0.047 C 
BRANCH   2   3
ATOM      3  C   UNL     1     -34.960  20.375   1.876  0.00  0.00    +0.205 C 
BRANCH   3   4
ATOM      4  O   UNL     1     -35.420  20.509   3.212  0.00  0.00    -0.475 OA
BRANCH   4   5
ATOM      5  C   UNL     1     -35.392  21.769   3.754  0.00  0.00    +0.139 C 
ATOM      6  C   UNL     1     -35.426  21.932   5.139  0.00  0.00    +0.037 C 
ATOM      7  C   UNL     1     -35.327  22.885   2.921  0.00  0.00    +0.037 C 
ATOM      8  C   UNL     1     -35.332  24.329   4.858  0.00  0.00    +0.036 C 
ATOM      9  C   UNL     1     -35.396  23.213   5.691  0.00  0.00    +0.006 C 
ATOM     10  C   UNL     1     -35.298  24.166   3.474  0.00  0.00    +0.006 C 
BRANCH   8  12
ATOM     11  N   UNL     1     -36.417  26.500   5.312  0.00  0.00    -0.381 N 
ATOM     12  C   UNL     1     -35.299  25.665   5.434  0.00  0.00    +0.160 C 
ATOM     13  H   UNL     1     -36.400  27.405   5.699  0.00  0.00    +0.157 HD
ATOM     14  H   UNL     1     -37.219  26.182   4.837  0.00  0.00    +0.157 HD
BRANCH  12  15
ATOM     15  N   UNL     1     -34.203  26.052   6.067  0.00  0.00    -0.118 NA
BRANCH  15  16
ATOM     16  O   UNL     1     -33.213  26.500   5.186  0.00  0.00    -0.264 OA
ATOM     17  H   UNL     1     -32.340  26.168   5.254  0.00  0.00    +0.247 HD
ENDBRANCH  15  16
ENDBRANCH  12  15
ENDBRANCH   8  12
ENDBRANCH   4   5
ENDBRANCH   3   4
ENDBRANCH   2   3
ENDBRANCH   1   2
BRANCH   1  18
ATOM     18  C   UNL     1     -37.867  19.323  -0.362  0.00  0.00    +0.047 C 
BRANCH  18  19
ATOM     19  C   UNL     1     -38.940  20.337  -0.733  0.00  0.00    +0.205 C 
BRANCH  19  20
ATOM     20  O   UNL     1     -39.764  20.567   0.401  0.00  0.00    -0.475 OA
BRANCH  20  21
ATOM     21  C   UNL     1     -39.741  21.829   0.936  0.00  0.00    +0.139 C 
ATOM     22  C   UNL     1     -40.541  22.833   0.391  0.00  0.00    +0.037 C 
ATOM     23  C   UNL     1     -38.919  22.108   2.028  0.00  0.00    +0.037 C 
ATOM     24  C   UNL     1     -39.696  24.395   2.029  0.00  0.00    +0.036 C 
ATOM     25  C   UNL     1     -40.518  24.116   0.937  0.00  0.00    +0.006 C 
ATOM     26  C   UNL     1     -38.896  23.392   2.574  0.00  0.00    +0.006 C 
BRANCH  24  28
ATOM     27  N   UNL     1     -40.463  26.024   3.718  0.00  0.00    -0.381 N 
ATOM     28  C   UNL     1     -39.673  25.734   2.599  0.00  0.00    +0.160 C 
ATOM     29  H   UNL     1     -40.451  26.928   4.108  0.00  0.00    +0.157 HD
ATOM     30  H   UNL     1     -41.030  25.324   4.115  0.00  0.00    +0.157 HD
BRANCH  28  31
ATOM     31  N   UNL     1     -38.893  26.646   2.036  0.00  0.00    -0.118 NA
BRANCH  31  32
ATOM     32  O   UNL     1     -37.654  26.748   2.676  0.00  0.00    -0.264 OA
ATOM     33  H   UNL     1     -37.606  26.714   3.611  0.00  0.00    +0.247 HD
ENDBRANCH  31  32
ENDBRANCH  28  31
ENDBRANCH  24  28
ENDBRANCH  20  21
ENDBRANCH  19  20
ENDBRANCH  18  19
ENDBRANCH   1  18
TORSDOF 14
ENDMDL
MODEL 4
REMARK VINA RESULT:      -5.3      2.140      3.049
REMARK  Name = 5479523
REMARK  14 active torsions:
REMARK  status: ('A' for Active; 'I' for Inactive)
REMARK    1  A    between atoms: C_1  and  C_2
REMARK    2  A    between atoms: C_1  and  C_18
REMARK    3  A    between atoms: C_2  and  C_3
REMARK    4  A    between atoms: C_3  and  O_4
REMARK    5  A    between atoms: O_4  and  C_5
REMARK    6  A    between atoms: C_8  and  C_13
REMARK    7  A    between atoms: N_12  and  C_13
REMARK    8  A    between atoms: N_12  and  O_16
REMARK    9  A    between atoms: C_18  and  C_19
REMARK   10  A    between atoms: C_19  and  O_20
REMARK   11  A    between atoms: O_20  and  C_21
REMARK   12  A    between atoms: C_24  and  C_29
REMARK   13  A    between atoms: N_28  and  C_29
REMARK   14  A    between atoms: N_28  and  O_32
REMARK                            x       y       z     vdW  Elec       q    Type
REMARK                         _______ _______ _______ _____ _____    ______ ____
ROOT
ATOM      1  C   UNL     1     -33.322  20.311   0.588  0.00  0.00    +0.008 C 
ENDROOT
BRANCH   1   2
ATOM      2  C   UNL     1     -34.173  19.566   1.620  0.00  0.00    +0.047 C 
BRANCH   2   3
ATOM      3  C   UNL     1     -35.367  20.389   2.085  0.00  0.00    +0.205 C 
BRANCH   3   4
ATOM      4  O   UNL     1     -35.338  20.531   3.497  0.00  0.00    -0.475 OA
BRANCH   4   5
ATOM      5  C   UNL     1     -35.336  21.810   3.993  0.00  0.00    +0.139 C 
ATOM      6  C   UNL     1     -35.253  22.024   5.369  0.00  0.00    +0.037 C 
ATOM      7  C   UNL     1     -35.414  22.895   3.121  0.00  0.00    +0.037 C 
ATOM      8  C   UNL     1     -35.327  24.410   5.002  0.00  0.00    +0.036 C 
ATOM      9  C   UNL     1     -35.249  23.324   5.873  0.00  0.00    +0.006 C 
ATOM     10  C   UNL     1     -35.410  24.196   3.627  0.00  0.00    +0.006 C 
BRANCH   8  12
ATOM     11  N   UNL     1     -36.403  26.616   5.266  0.00  0.00    -0.381 N 
ATOM     12  C   UNL     1     -35.321  25.766   5.528  0.00  0.00    +0.160 C 
ATOM     13  H   UNL     1     -36.404  27.535   5.620  0.00  0.00    +0.157 HD
ATOM     14  H   UNL     1     -37.162  26.295   4.727  0.00  0.00    +0.157 HD
BRANCH  12  15
ATOM     15  N   UNL     1     -34.283  26.158   6.251  0.00  0.00    -0.118 NA
BRANCH  15  16
ATOM     16  O   UNL     1     -33.217  26.590   5.455  0.00  0.00    -0.264 OA
ATOM     17  H   UNL     1     -33.200  27.470   5.132  0.00  0.00    +0.247 HD
ENDBRANCH  15  16
ENDBRANCH  12  15
ENDBRANCH   8  12
ENDBRANCH   4   5
ENDBRANCH   3   4
ENDBRANCH   2   3
ENDBRANCH   1   2
BRANCH   1  18
ATOM     18  C   UNL     1     -34.056  21.533   0.040  0.00  0.00    +0.047 C 
BRANCH  18  19
ATOM     19  C   UNL     1     -33.136  22.742  -0.062  0.00  0.00    +0.205 C 
BRANCH  19  20
ATOM     20  O   UNL     1     -33.884  23.846  -0.553  0.00  0.00    -0.475 OA
BRANCH  20  21
ATOM     21  C   UNL     1     -33.941  24.959   0.247  0.00  0.00    +0.139 C 
ATOM     22  C   UNL     1     -32.847  25.303   1.040  0.00  0.00    +0.037 C 
ATOM     23  C   UNL     1     -35.092  25.747   0.265  0.00  0.00    +0.037 C 
ATOM     24  C   UNL     1     -34.055  27.224   1.871  0.00  0.00    +0.036 C 
ATOM     25  C   UNL     1     -32.904  26.436   1.853  0.00  0.00    +0.006 C 
ATOM     26  C   UNL     1     -35.149  26.879   1.077  0.00  0.00    +0.006 C 
BRANCH  24  28
ATOM     27  N   UNL     1     -35.353  28.997   2.996  0.00  0.00    -0.381 N 
ATOM     28  C   UNL     1     -34.114  28.406   2.717  0.00  0.00    +0.160 C 
ATOM     29  H   UNL     1     -35.398  29.796   3.569  0.00  0.00    +0.157 HD
ATOM     30  H   UNL     1     -36.178  28.612   2.621  0.00  0.00    +0.157 HD
BRANCH  28  31
ATOM     31  N   UNL     1     -32.982  28.889   3.206  0.00  0.00    -0.118 NA
BRANCH  31  32
ATOM     32  O   UNL     1     -33.105  29.273   4.545  0.00  0.00    -0.264 OA
ATOM     33  H   UNL     1     -32.625  28.818   5.209  0.00  0.00    +0.247 HD
ENDBRANCH  31  32
ENDBRANCH  28  31
ENDBRANCH  24  28
ENDBRANCH  20  21
ENDBRANCH  19  20
ENDBRANCH  18  19
ENDBRANCH   1  18
TORSDOF 14
ENDMDL
MODEL 5
REMARK VINA RESULT:      -5.2      2.000      4.492
REMARK  Name = 5479523
REMARK  14 active torsions:
REMARK  status: ('A' for Active; 'I' for Inactive)
REMARK    1  A    between atoms: C_1  and  C_2
REMARK    2  A    between atoms: C_1  and  C_18
REMARK    3  A    between atoms: C_2  and  C_3
REMARK    4  A    between atoms: C_3  and  O_4
REMARK    5  A    between atoms: O_4  and  C_5
REMARK    6  A    between atoms: C_8  and  C_13
REMARK    7  A    between atoms: N_12  and  C_13
REMARK    8  A    between atoms: N_12  and  O_16
REMARK    9  A    between atoms: C_18  and  C_19
REMARK   10  A    between atoms: C_19  and  O_20
REMARK   11  A    between atoms: O_20  and  C_21
REMARK   12  A    between atoms: C_24  and  C_29
REMARK   13  A    between atoms: N_28  and  C_29
REMARK   14  A    between atoms: N_28  and  O_32
REMARK                            x       y       z     vdW  Elec       q    Type
REMARK                         _______ _______ _______ _____ _____    ______ ____
ROOT
ATOM      1  C   UNL     1     -33.400  20.055   0.376  0.00  0.00    +0.008 C 
ENDROOT
BRANCH   1   2
ATOM      2  C   UNL     1     -33.370  21.585   0.318  0.00  0.00    +0.047 C 
BRANCH   2   3
ATOM      3  C   UNL     1     -33.938  22.124  -0.988  0.00  0.00    +0.205 C 
BRANCH   3   4
ATOM      4  O   UNL     1     -33.545  23.476  -1.167  0.00  0.00    -0.475 OA
BRANCH   4   5
ATOM      5  C   UNL     1     -34.240  24.424  -0.461  0.00  0.00    +0.139 C 
ATOM      6  C   UNL     1     -35.630  24.490  -0.564  0.00  0.00    +0.037 C 
ATOM      7  C   UNL     1     -33.558  25.320   0.362  0.00  0.00    +0.037 C 
ATOM      8  C   UNL     1     -35.656  26.348   0.978  0.00  0.00    +0.036 C 
ATOM      9  C   UNL     1     -36.337  25.453   0.155  0.00  0.00    +0.006 C 
ATOM     10  C   UNL     1     -34.267  26.282   1.081  0.00  0.00    +0.006 C 
BRANCH   8  12
ATOM     11  N   UNL     1     -35.698  28.329   2.452  0.00  0.00    -0.381 N 
ATOM     12  C   UNL     1     -36.394  27.352   1.730  0.00  0.00    +0.160 C 
ATOM     13  H   UNL     1     -36.193  29.010   2.962  0.00  0.00    +0.157 HD
ATOM     14  H   UNL     1     -34.713  28.334   2.450  0.00  0.00    +0.157 HD
BRANCH  12  15
ATOM     15  N   UNL     1     -37.718  27.312   1.703  0.00  0.00    -0.118 NA
BRANCH  15  16
ATOM     16  O   UNL     1     -38.251  26.672   2.827  0.00  0.00    -0.264 OA
ATOM     17  H   UNL     1     -38.877  25.984   2.722  0.00  0.00    +0.247 HD
ENDBRANCH  15  16
ENDBRANCH  12  15
ENDBRANCH   8  12
ENDBRANCH   4   5
ENDBRANCH   3   4
ENDBRANCH   2   3
ENDBRANCH   1   2
BRANCH   1  18
ATOM     18  C   UNL     1     -33.965  19.562   1.707  0.00  0.00    +0.047 C 
BRANCH  18  19
ATOM     19  C   UNL     1     -35.285  20.240   2.043  0.00  0.00    +0.205 C 
BRANCH  19  20
ATOM     20  O   UNL     1     -35.361  20.424   3.450  0.00  0.00    -0.475 OA
BRANCH  20  21
ATOM     21  C   UNL     1     -35.380  21.718   3.904  0.00  0.00    +0.139 C 
ATOM     22  C   UNL     1     -35.516  22.772   3.002  0.00  0.00    +0.037 C 
ATOM     23  C   UNL     1     -35.267  21.979   5.270  0.00  0.00    +0.037 C 
ATOM     24  C   UNL     1     -35.423  24.349   4.829  0.00  0.00    +0.036 C 
ATOM     25  C   UNL     1     -35.537  24.088   3.464  0.00  0.00    +0.006 C 
ATOM     26  C   UNL     1     -35.288  23.295   5.732  0.00  0.00    +0.006 C 
BRANCH  24  28
ATOM     27  N   UNL     1     -36.654  26.429   5.331  0.00  0.00    -0.381 N 
ATOM     28  C   UNL     1     -35.446  25.721   5.312  0.00  0.00    +0.160 C 
ATOM     29  H   UNL     1     -36.675  27.357   5.657  0.00  0.00    +0.157 HD
ATOM     30  H   UNL     1     -37.483  25.997   5.019  0.00  0.00    +0.157 HD
BRANCH  28  31
ATOM     31  N   UNL     1     -34.310  26.264   5.726  0.00  0.00    -0.118 NA
BRANCH  31  32
ATOM     32  O   UNL     1     -33.962  27.395   4.980  0.00  0.00    -0.264 OA
ATOM     33  H   UNL     1     -33.778  27.314   4.065  0.00  0.00    +0.247 HD
ENDBRANCH  31  32
ENDBRANCH  28  31
ENDBRANCH  24  28
ENDBRANCH  20  21
ENDBRANCH  19  20
ENDBRANCH  18  19
ENDBRANCH   1  18
TORSDOF 14
ENDMDL
MODEL 6
REMARK VINA RESULT:      -5.2      3.659      6.411
REMARK  Name = 5479523
REMARK  14 active torsions:
REMARK  status: ('A' for Active; 'I' for Inactive)
REMARK    1  A    between atoms: C_1  and  C_2
REMARK    2  A    between atoms: C_1  and  C_18
REMARK    3  A    between atoms: C_2  and  C_3
REMARK    4  A    between atoms: C_3  and  O_4
REMARK    5  A    between atoms: O_4  and  C_5
REMARK    6  A    between atoms: C_8  and  C_13
REMARK    7  A    between atoms: N_12  and  C_13
REMARK    8  A    between atoms: N_12  and  O_16
REMARK    9  A    between atoms: C_18  and  C_19
REMARK   10  A    between atoms: C_19  and  O_20
REMARK   11  A    between atoms: O_20  and  C_21
REMARK   12  A    between atoms: C_24  and  C_29
REMARK   13  A    between atoms: N_28  and  C_29
REMARK   14  A    between atoms: N_28  and  O_32
REMARK                            x       y       z     vdW  Elec       q    Type
REMARK                         _______ _______ _______ _____ _____    ______ ____
ROOT
ATOM      1  C   UNL     1     -32.499  28.003   0.800  0.00  0.00    +0.008 C 
ENDROOT
BRANCH   1   2
ATOM      2  C   UNL     1     -32.465  28.563   2.225  0.00  0.00    +0.047 C 
BRANCH   2   3
ATOM      3  C   UNL     1     -33.842  28.565   2.877  0.00  0.00    +0.205 C 
BRANCH   3   4
ATOM      4  O   UNL     1     -33.770  27.969   4.163  0.00  0.00    -0.475 OA
BRANCH   4   5
ATOM      5  C   UNL     1     -34.353  26.737   4.310  0.00  0.00    +0.139 C 
ATOM      6  C   UNL     1     -33.961  25.900   5.355  0.00  0.00    +0.037 C 
ATOM      7  C   UNL     1     -35.340  26.321   3.416  0.00  0.00    +0.037 C 
ATOM      8  C   UNL     1     -35.542  24.231   4.612  0.00  0.00    +0.036 C 
ATOM      9  C   UNL     1     -34.555  24.647   5.506  0.00  0.00    +0.006 C 
ATOM     10  C   UNL     1     -35.933  25.068   3.568  0.00  0.00    +0.006 C 
BRANCH   8  12
ATOM     11  N   UNL     1     -37.009  22.434   3.769  0.00  0.00    -0.381 N 
ATOM     12  C   UNL     1     -36.162  22.925   4.770  0.00  0.00    +0.160 C 
ATOM     13  H   UNL     1     -37.431  21.551   3.870  0.00  0.00    +0.157 HD
ATOM     14  H   UNL     1     -37.182  22.973   2.963  0.00  0.00    +0.157 HD
BRANCH  12  15
ATOM     15  N   UNL     1     -35.900  22.231   5.867  0.00  0.00    -0.118 NA
BRANCH  15  16
ATOM     16  O   UNL     1     -35.369  20.969   5.580  0.00  0.00    -0.264 OA
ATOM     17  H   UNL     1     -34.514  20.894   5.205  0.00  0.00    +0.247 HD
ENDBRANCH  15  16
ENDBRANCH  12  15
ENDBRANCH   8  12
ENDBRANCH   4   5
ENDBRANCH   3   4
ENDBRANCH   2   3
ENDBRANCH   1   2
BRANCH   1  18
ATOM     18  C   UNL     1     -32.450  26.476   0.801  0.00  0.00    +0.047 C 
BRANCH  18  19
ATOM     19  C   UNL     1     -33.124  25.892  -0.432  0.00  0.00    +0.205 C 
BRANCH  19  20
ATOM     20  O   UNL     1     -32.505  24.652  -0.748  0.00  0.00    -0.475 OA
BRANCH  20  21
ATOM     21  C   UNL     1     -33.066  23.525  -0.206  0.00  0.00    +0.139 C 
ATOM     22  C   UNL     1     -32.451  22.286  -0.383  0.00  0.00    +0.037 C 
ATOM     23  C   UNL     1     -34.250  23.617   0.525  0.00  0.00    +0.037 C 
ATOM     24  C   UNL     1     -34.205  21.232   0.901  0.00  0.00    +0.036 C 
ATOM     25  C   UNL     1     -33.020  21.139   0.170  0.00  0.00    +0.006 C 
ATOM     26  C   UNL     1     -34.820  22.470   1.078  0.00  0.00    +0.006 C 
BRANCH  24  28
ATOM     27  N   UNL     1     -34.910  18.874   0.704  0.00  0.00    -0.381 N 
ATOM     28  C   UNL     1     -34.798  20.035   1.479  0.00  0.00    +0.160 C 
ATOM     29  H   UNL     1     -35.310  18.062   1.091  0.00  0.00    +0.157 HD
ATOM     30  H   UNL     1     -34.587  18.870  -0.226  0.00  0.00    +0.157 HD
BRANCH  28  31
ATOM     31  N   UNL     1     -35.216  20.082   2.735  0.00  0.00    -0.118 NA
BRANCH  31  32
ATOM     32  O   UNL     1     -36.581  19.798   2.849  0.00  0.00    -0.264 OA
ATOM     33  H   UNL     1     -36.921  19.444   3.647  0.00  0.00    +0.247 HD
ENDBRANCH  31  32
ENDBRANCH  28  31
ENDBRANCH  24  28
ENDBRANCH  20  21
ENDBRANCH  19  20
ENDBRANCH  18  19
ENDBRANCH   1  18
TORSDOF 14
ENDMDL
MODEL 7
REMARK VINA RESULT:      -5.1      1.365      4.168
REMARK  Name = 5479523
REMARK  14 active torsions:
REMARK  status: ('A' for Active; 'I' for Inactive)
REMARK    1  A    between atoms: C_1  and  C_2
REMARK    2  A    between atoms: C_1  and  C_18
REMARK    3  A    between atoms: C_2  and  C_3
REMARK    4  A    between atoms: C_3  and  O_4
REMARK    5  A    between atoms: O_4  and  C_5
REMARK    6  A    between atoms: C_8  and  C_13
REMARK    7  A    between atoms: N_12  and  C_13
REMARK    8  A    between atoms: N_12  and  O_16
REMARK    9  A    between atoms: C_18  and  C_19
REMARK   10  A    between atoms: C_19  and  O_20
REMARK   11  A    between atoms: O_20  and  C_21
REMARK   12  A    between atoms: C_24  and  C_29
REMARK   13  A    between atoms: N_28  and  C_29
REMARK   14  A    between atoms: N_28  and  O_32
REMARK                            x       y       z     vdW  Elec       q    Type
REMARK                         _______ _______ _______ _____ _____    ______ ____
ROOT
ATOM      1  C   UNL     1     -35.839  18.977   0.017  0.00  0.00    +0.008 C 
ENDROOT
BRANCH   1   2
ATOM      2  C   UNL     1     -36.104  20.266  -0.764  0.00  0.00    +0.047 C 
BRANCH   2   3
ATOM      3  C   UNL     1     -37.588  20.606  -0.830  0.00  0.00    +0.205 C 
BRANCH   3   4
ATOM      4  O   UNL     1     -38.109  20.759   0.481  0.00  0.00    -0.475 OA
BRANCH   4   5
ATOM      5  C   UNL     1     -38.252  22.040   0.948  0.00  0.00    +0.139 C 
ATOM      6  C   UNL     1     -37.819  23.116   0.172  0.00  0.00    +0.037 C 
ATOM      7  C   UNL     1     -38.831  22.268   2.195  0.00  0.00    +0.037 C 
ATOM      8  C   UNL     1     -38.544  24.648   1.893  0.00  0.00    +0.036 C 
ATOM      9  C   UNL     1     -37.965  24.420   0.645  0.00  0.00    +0.006 C 
ATOM     10  C   UNL     1     -38.976  23.573   2.668  0.00  0.00    +0.006 C 
BRANCH   8  12
ATOM     11  N   UNL     1     -39.468  26.249   3.530  0.00  0.00    -0.381 N 
ATOM     12  C   UNL     1     -38.698  26.008   2.385  0.00  0.00    +0.160 C 
ATOM     13  H   UNL     1     -39.576  27.167   3.868  0.00  0.00    +0.157 HD
ATOM     14  H   UNL     1     -39.904  25.498   3.996  0.00  0.00    +0.157 HD
BRANCH  12  15
ATOM     15  N   UNL     1     -38.093  26.988   1.731  0.00  0.00    -0.118 NA
BRANCH  15  16
ATOM     16  O   UNL     1     -36.942  27.432   2.389  0.00  0.00    -0.264 OA
ATOM     17  H   UNL     1     -36.782  27.179   3.277  0.00  0.00    +0.247 HD
ENDBRANCH  15  16
ENDBRANCH  12  15
ENDBRANCH   8  12
ENDBRANCH   4   5
ENDBRANCH   3   4
ENDBRANCH   2   3
ENDBRANCH   1   2
BRANCH   1  18
ATOM     18  C   UNL     1     -34.839  19.208   1.148  0.00  0.00    +0.047 C 
BRANCH  18  19
ATOM     19  C   UNL     1     -34.831  20.662   1.602  0.00  0.00    +0.205 C 
BRANCH  19  20
ATOM     20  O   UNL     1     -35.325  20.729   2.932  0.00  0.00    -0.475 OA
BRANCH  20  21
ATOM     21  C   UNL     1     -35.327  21.963   3.530  0.00  0.00    +0.139 C 
ATOM     22  C   UNL     1     -35.164  23.112   2.756  0.00  0.00    +0.037 C 
ATOM     23  C   UNL     1     -35.493  22.070   4.910  0.00  0.00    +0.037 C 
ATOM     24  C   UNL     1     -35.334  24.474   4.745  0.00  0.00    +0.036 C 
ATOM     25  C   UNL     1     -35.167  24.368   3.364  0.00  0.00    +0.006 C 
ATOM     26  C   UNL     1     -35.496  23.325   5.518  0.00  0.00    +0.006 C 
BRANCH  24  28
ATOM     27  N   UNL     1     -36.460  26.612   5.252  0.00  0.00    -0.381 N 
ATOM     28  C   UNL     1     -35.338  25.784   5.379  0.00  0.00    +0.160 C 
ATOM     29  H   UNL     1     -36.468  27.498   5.679  0.00  0.00    +0.157 HD
ATOM     30  H   UNL     1     -37.241  26.306   4.736  0.00  0.00    +0.157 HD
BRANCH  28  31
ATOM     31  N   UNL     1     -34.268  26.155   6.067  0.00  0.00    -0.118 NA
BRANCH  31  32
ATOM     32  O   UNL     1     -33.221  26.563   5.235  0.00  0.00    -0.264 OA
ATOM     33  H   UNL     1     -32.841  25.958   4.628  0.00  0.00    +0.247 HD
ENDBRANCH  31  32
ENDBRANCH  28  31
ENDBRANCH  24  28
ENDBRANCH  20  21
ENDBRANCH  19  20
ENDBRANCH  18  19
ENDBRANCH   1  18
TORSDOF 14
ENDMDL
MODEL 8
REMARK VINA RESULT:      -5.1      2.733      6.672
REMARK  Name = 5479523
REMARK  14 active torsions:
REMARK  status: ('A' for Active; 'I' for Inactive)
REMARK    1  A    between atoms: C_1  and  C_2
REMARK    2  A    between atoms: C_1  and  C_18
REMARK    3  A    between atoms: C_2  and  C_3
REMARK    4  A    between atoms: C_3  and  O_4
REMARK    5  A    between atoms: O_4  and  C_5
REMARK    6  A    between atoms: C_8  and  C_13
REMARK    7  A    between atoms: N_12  and  C_13
REMARK    8  A    between atoms: N_12  and  O_16
REMARK    9  A    between atoms: C_18  and  C_19
REMARK   10  A    between atoms: C_19  and  O_20
REMARK   11  A    between atoms: O_20  and  C_21
REMARK   12  A    between atoms: C_24  and  C_29
REMARK   13  A    between atoms: N_28  and  C_29
REMARK   14  A    between atoms: N_28  and  O_32
REMARK                            x       y       z     vdW  Elec       q    Type
REMARK                         _______ _______ _______ _____ _____    ______ ____
ROOT
ATOM      1  C   UNL     1     -34.110  29.019   1.110  0.00  0.00    +0.008 C 
ENDROOT
BRANCH   1   2
ATOM      2  C   UNL     1     -34.823  27.711   0.755  0.00  0.00    +0.047 C 
BRANCH   2   3
ATOM      3  C   UNL     1     -36.333  27.812   0.931  0.00  0.00    +0.205 C 
BRANCH   3   4
ATOM      4  O   UNL     1     -36.717  27.232   2.169  0.00  0.00    -0.475 OA
BRANCH   4   5
ATOM      5  C   UNL     1     -37.293  25.988   2.119  0.00  0.00    +0.139 C 
ATOM      6  C   UNL     1     -37.000  25.126   1.062  0.00  0.00    +0.037 C 
ATOM      7  C   UNL     1     -38.169  25.585   3.126  0.00  0.00    +0.037 C 
ATOM      8  C   UNL     1     -38.461  23.458   2.019  0.00  0.00    +0.036 C 
ATOM      9  C   UNL     1     -37.585  23.861   1.012  0.00  0.00    +0.006 C 
ATOM     10  C   UNL     1     -38.753  24.319   3.075  0.00  0.00    +0.006 C 
BRANCH   8  12
ATOM     11  N   UNL     1     -38.351  21.024   2.420  0.00  0.00    -0.381 N 
ATOM     12  C   UNL     1     -39.069  22.137   1.967  0.00  0.00    +0.160 C 
ATOM     13  H   UNL     1     -38.758  20.128   2.388  0.00  0.00    +0.157 HD
ATOM     14  H   UNL     1     -37.438  21.137   2.771  0.00  0.00    +0.157 HD
BRANCH  12  15
ATOM     15  N   UNL     1     -40.301  22.028   1.491  0.00  0.00    -0.118 NA
BRANCH  15  16
ATOM     16  O   UNL     1     -40.324  21.479   0.205  0.00  0.00    -0.264 OA
ATOM     17  H   UNL     1     -39.982  20.619   0.057  0.00  0.00    +0.247 HD
ENDBRANCH  15  16
ENDBRANCH  12  15
ENDBRANCH   8  12
ENDBRANCH   4   5
ENDBRANCH   3   4
ENDBRANCH   2   3
ENDBRANCH   1   2
BRANCH   1  18
ATOM     18  C   UNL     1     -34.070  29.238   2.621  0.00  0.00    +0.047 C 
BRANCH  18  19
ATOM     19  C   UNL     1     -33.160  28.231   3.310  0.00  0.00    +0.205 C 
BRANCH  19  20
ATOM     20  O   UNL     1     -33.779  27.803   4.516  0.00  0.00    -0.475 OA
BRANCH  20  21
ATOM     21  C   UNL     1     -34.242  26.513   4.550  0.00  0.00    +0.139 C 
ATOM     22  C   UNL     1     -33.806  25.590   3.600  0.00  0.00    +0.037 C 
ATOM     23  C   UNL     1     -35.149  26.123   5.536  0.00  0.00    +0.037 C 
ATOM     24  C   UNL     1     -35.182  23.888   4.621  0.00  0.00    +0.036 C 
ATOM     25  C   UNL     1     -34.276  24.278   3.635  0.00  0.00    +0.006 C 
ATOM     26  C   UNL     1     -35.619  24.811   5.571  0.00  0.00    +0.006 C 
BRANCH  24  28
ATOM     27  N   UNL     1     -36.070  21.958   5.879  0.00  0.00    -0.381 N 
ATOM     28  C   UNL     1     -35.673  22.519   4.658  0.00  0.00    +0.160 C 
ATOM     29  H   UNL     1     -36.404  21.033   5.909  0.00  0.00    +0.157 HD
ATOM     30  H   UNL     1     -36.019  22.491   6.705  0.00  0.00    +0.157 HD
BRANCH  28  31
ATOM     31  N   UNL     1     -35.731  21.838   3.523  0.00  0.00    -0.118 NA
BRANCH  31  32
ATOM     32  O   UNL     1     -35.598  20.461   3.726  0.00  0.00    -0.264 OA
ATOM     33  H   UNL     1     -35.530  20.120   4.596  0.00  0.00    +0.247 HD
ENDBRANCH  31  32
ENDBRANCH  28  31
ENDBRANCH  24  28
ENDBRANCH  20  21
ENDBRANCH  19  20
ENDBRANCH  18  19
ENDBRANCH   1  18
TORSDOF 14
ENDMDL
MODEL 9
REMARK VINA RESULT:      -5.1      2.242      5.098
REMARK  Name = 5479523
REMARK  14 active torsions:
REMARK  status: ('A' for Active; 'I' for Inactive)
REMARK    1  A    between atoms: C_1  and  C_2
REMARK    2  A    between atoms: C_1  and  C_18
REMARK    3  A    between atoms: C_2  and  C_3
REMARK    4  A    between atoms: C_3  and  O_4
REMARK    5  A    between atoms: O_4  and  C_5
REMARK    6  A    between atoms: C_8  and  C_13
REMARK    7  A    between atoms: N_12  and  C_13
REMARK    8  A    between atoms: N_12  and  O_16
REMARK    9  A    between atoms: C_18  and  C_19
REMARK   10  A    between atoms: C_19  and  O_20
REMARK   11  A    between atoms: O_20  and  C_21
REMARK   12  A    between atoms: C_24  and  C_29
REMARK   13  A    between atoms: N_28  and  C_29
REMARK   14  A    between atoms: N_28  and  O_32
REMARK                            x       y       z     vdW  Elec       q    Type
REMARK                         _______ _______ _______ _____ _____    ______ ____
ROOT
ATOM      1  C   UNL     1     -36.705  20.677   0.274  0.00  0.00    +0.008 C 
ENDROOT
BRANCH   1   2
ATOM      2  C   UNL     1     -38.119  20.193  -0.056  0.00  0.00    +0.047 C 
BRANCH   2   3
ATOM      3  C   UNL     1     -39.190  21.157   0.440  0.00  0.00    +0.205 C 
BRANCH   3   4
ATOM      4  O   UNL     1     -38.637  22.042   1.403  0.00  0.00    -0.475 OA
BRANCH   4   5
ATOM      5  C   UNL     1     -39.367  23.161   1.709  0.00  0.00    +0.139 C 
ATOM      6  C   UNL     1     -38.994  23.964   2.788  0.00  0.00    +0.037 C 
ATOM      7  C   UNL     1     -40.481  23.499   0.941  0.00  0.00    +0.037 C 
ATOM      8  C   UNL     1     -40.850  25.441   2.330  0.00  0.00    +0.036 C 
ATOM      9  C   UNL     1     -39.736  25.103   3.098  0.00  0.00    +0.006 C 
ATOM     10  C   UNL     1     -41.222  24.639   1.252  0.00  0.00    +0.006 C 
BRANCH   8  12
ATOM     11  N   UNL     1     -41.919  27.559   1.648  0.00  0.00    -0.381 N 
ATOM     12  C   UNL     1     -41.622  26.630   2.653  0.00  0.00    +0.160 C 
ATOM     13  H   UNL     1     -42.442  28.366   1.861  0.00  0.00    +0.157 HD
ATOM     14  H   UNL     1     -41.605  27.405   0.728  0.00  0.00    +0.157 HD
BRANCH  12  15
ATOM     15  N   UNL     1     -42.029  26.798   3.903  0.00  0.00    -0.118 NA
BRANCH  15  16
ATOM     16  O   UNL     1     -41.445  27.918   4.504  0.00  0.00    -0.264 OA
ATOM     17  H   UNL     1     -41.349  28.713   4.018  0.00  0.00    +0.247 HD
ENDBRANCH  15  16
ENDBRANCH  12  15
ENDBRANCH   8  12
ENDBRANCH   4   5
ENDBRANCH   3   4
ENDBRANCH   2   3
ENDBRANCH   1   2
BRANCH   1  18
ATOM     18  C   UNL     1     -35.984  19.696   1.197  0.00  0.00    +0.047 C 
BRANCH  18  19
ATOM     19  C   UNL     1     -34.910  20.389   2.025  0.00  0.00    +0.205 C 
BRANCH  19  20
ATOM     20  O   UNL     1     -35.387  20.545   3.354  0.00  0.00    -0.475 OA
BRANCH  20  21
ATOM     21  C   UNL     1     -35.384  21.817   3.867  0.00  0.00    +0.139 C 
ATOM     22  C   UNL     1     -35.381  22.915   3.008  0.00  0.00    +0.037 C 
ATOM     23  C   UNL     1     -35.387  22.012   5.248  0.00  0.00    +0.037 C 
ATOM     24  C   UNL     1     -35.382  24.403   4.911  0.00  0.00    +0.036 C 
ATOM     25  C   UNL     1     -35.379  24.209   3.530  0.00  0.00    +0.006 C 
ATOM     26  C   UNL     1     -35.385  23.305   5.770  0.00  0.00    +0.006 C 
BRANCH  24  28
ATOM     27  N   UNL     1     -36.549  26.523   5.400  0.00  0.00    -0.381 N 
ATOM     28  C   UNL     1     -35.381  25.753   5.455  0.00  0.00    +0.160 C 
ATOM     29  H   UNL     1     -36.554  27.436   5.768  0.00  0.00    +0.157 HD
ATOM     30  H   UNL     1     -37.366  26.150   4.995  0.00  0.00    +0.157 HD
BRANCH  28  31
ATOM     31  N   UNL     1     -34.263  26.215   5.996  0.00  0.00    -0.118 NA
BRANCH  31  32
ATOM     32  O   UNL     1     -33.692  27.238   5.233  0.00  0.00    -0.264 OA
ATOM     33  H   UNL     1     -33.134  27.029   4.511  0.00  0.00    +0.247 HD
ENDBRANCH  31  32
ENDBRANCH  28  31
ENDBRANCH  24  28
ENDBRANCH  20  21
ENDBRANCH  19  20
ENDBRANCH  18  19
ENDBRANCH   1  18
TORSDOF 14
ENDMDL
