MODEL 1
REMARK VINA RESULT:      -5.9      0.000      0.000
REMARK  Name = 20835986
REMARK  9 active torsions:
REMARK  status: ('A' for Active; 'I' for Inactive)
REMARK    1  A    between atoms: C_1  and  O_2
REMARK    2  A    between atoms: C_1  and  C_4
REMARK    3  A    between atoms: C_1  and  C_13
REMARK    4  A    between atoms: C_4  and  C_5
REMARK    5  A    between atoms: C_5  and  O_6
REMARK    6  A    between atoms: C_5  and  C_8
REMARK    7  A    between atoms: C_8  and  S_9
REMARK    8  A    between atoms: C_13  and  C_14
REMARK    9  A    between atoms: C_14  and  C_17
REMARK                            x       y       z     vdW  Elec       q    Type
REMARK                         _______ _______ _______ _____ _____    ______ ____
ROOT
ATOM      1  C   UNL     1     -36.287  21.044   2.082  0.00  0.00    +0.113 C 
ENDROOT
BRANCH   1   2
ATOM      2  O   UNL     1     -36.671  19.895   2.831  0.00  0.00    -0.384 OA
ATOM      3  H   UNL     1     -36.409  19.093   2.351  0.00  0.00    +0.210 HD
ENDBRANCH   1   2
BRANCH   1   4
ATOM      4  C   UNL     1     -35.338  21.891   2.945  0.00  0.00    +0.060 C 
BRANCH   4   5
ATOM      5  C   UNL     1     -35.866  22.125   4.370  0.00  0.00    +0.137 C 
BRANCH   5   6
ATOM      6  O   UNL     1     -35.489  21.029   5.201  0.00  0.00    -0.383 OA
ATOM      7  H   UNL     1     -35.923  21.115   6.065  0.00  0.00    +0.210 HD
ENDBRANCH   5   6
BRANCH   5   8
ATOM      8  C   UNL     1     -35.299  23.414   4.956  0.00  0.00    +0.187 C 
BRANCH   8   9
ATOM      9  S   UNL     1     -36.199  24.832   4.405  0.00  0.00    +0.025 S 
ATOM     10  O   UNL     1     -35.986  25.747   5.737  0.00  0.00    -0.069 OA
ATOM     11  O   UNL     1     -37.603  24.482   4.297  0.00  0.00    -0.069 OA
ATOM     12  O   UNL     1     -35.480  25.440   3.301  0.00  0.00    -0.069 OA
ENDBRANCH   8   9
ENDBRANCH   5   8
ENDBRANCH   4   5
ENDBRANCH   1   4
BRANCH   1  13
ATOM     13  C   UNL     1     -35.588  20.611   0.783  0.00  0.00    +0.034 C 
BRANCH  13  14
ATOM     14  C   UNL     1     -34.193  21.218   0.573  0.00  0.00    +0.030 C 
BRANCH  14  17
ATOM     15 CL   UNL     1     -31.555  21.927  -0.868  0.00  0.00    -0.083 Cl
ATOM     16 CL   UNL     1     -29.817  17.089   0.726  0.00  0.00    -0.082 Cl
ATOM     17  C   UNL     1     -33.077  20.204   0.593  0.00  0.00    -0.011 C 
ATOM     18  C   UNL     1     -31.855  20.448  -0.033  0.00  0.00    +0.055 C 
ATOM     19  C   UNL     1     -33.291  18.998   1.261  0.00  0.00    -0.003 C 
ATOM     20  C   UNL     1     -30.846  19.485   0.008  0.00  0.00    +0.022 C 
ATOM     21  C   UNL     1     -32.283  18.035   1.301  0.00  0.00    +0.011 C 
ATOM     22  C   UNL     1     -31.060  18.278   0.675  0.00  0.00    +0.058 C 
ENDBRANCH  14  17
ENDBRANCH  13  14
ENDBRANCH   1  13
TORSDOF 9
ENDMDL
MODEL 2
REMARK VINA RESULT:      -5.9      1.453      2.118
REMARK  Name = 20835986
REMARK  9 active torsions:
REMARK  status: ('A' for Active; 'I' for Inactive)
REMARK    1  A    between atoms: C_1  and  O_2
REMARK    2  A    between atoms: C_1  and  C_4
REMARK    3  A    between atoms: C_1  and  C_13
REMARK    4  A    between atoms: C_4  and  C_5
REMARK    5  A    between atoms: C_5  and  O_6
REMARK    6  A    between atoms: C_5  and  C_8
REMARK    7  A    between atoms: C_8  and  S_9
REMARK    8  A    between atoms: C_13  and  C_14
REMARK    9  A    between atoms: C_14  and  C_17
REMARK                            x       y       z     vdW  Elec       q    Type
REMARK                         _______ _______ _______ _____ _____    ______ ____
ROOT
ATOM      1  C   UNL     1     -36.044  21.967   2.922  0.00  0.00    +0.113 C 
ENDROOT
BRANCH   1   2
ATOM      2  O   UNL     1     -37.446  21.711   2.926  0.00  0.00    -0.384 OA
ATOM      3  H   UNL     1     -37.813  21.938   3.795  0.00  0.00    +0.210 HD
ENDBRANCH   1   2
BRANCH   1   4
ATOM      4  C   UNL     1     -35.674  22.659   4.243  0.00  0.00    +0.060 C 
BRANCH   4   5
ATOM      5  C   UNL     1     -36.038  24.152   4.265  0.00  0.00    +0.137 C 
BRANCH   5   6
ATOM      6  O   UNL     1     -37.457  24.295   4.199  0.00  0.00    -0.383 OA
ATOM      7  H   UNL     1     -37.762  24.834   4.946  0.00  0.00    +0.210 HD
ENDBRANCH   5   6
BRANCH   5   8
ATOM      8  C   UNL     1     -35.529  24.819   5.539  0.00  0.00    +0.187 C 
BRANCH   8   9
ATOM      9  S   UNL     1     -34.209  25.946   5.202  0.00  0.00    +0.025 S 
ATOM     10  O   UNL     1     -35.081  27.051   4.381  0.00  0.00    -0.069 OA
ATOM     11  O   UNL     1     -33.276  25.313   4.289  0.00  0.00    -0.069 OA
ATOM     12  O   UNL     1     -33.768  26.534   6.453  0.00  0.00    -0.069 OA
ENDBRANCH   8   9
ENDBRANCH   5   8
ENDBRANCH   4   5
ENDBRANCH   1   4
BRANCH   1  13
ATOM     13  C   UNL     1     -35.272  20.646   2.772  0.00  0.00    +0.034 C 
BRANCH  13  14
ATOM     14  C   UNL     1     -35.088  20.173   1.324  0.00  0.00    +0.030 C 
BRANCH  14  17
ATOM     15 CL   UNL     1     -33.363  22.118  -0.344  0.00  0.00    -0.083 Cl
ATOM     16 CL   UNL     1     -29.469  18.424   0.063  0.00  0.00    -0.082 Cl
ATOM     17  C   UNL     1     -33.676  19.763   0.991  0.00  0.00    -0.011 C 
ATOM     18  C   UNL     1     -32.832  20.585   0.244  0.00  0.00    +0.055 C 
ATOM     19  C   UNL     1     -33.218  18.529   1.452  0.00  0.00    -0.003 C 
ATOM     20  C   UNL     1     -31.531  20.171  -0.043  0.00  0.00    +0.022 C 
ATOM     21  C   UNL     1     -31.918  18.115   1.165  0.00  0.00    +0.011 C 
ATOM     22  C   UNL     1     -31.073  18.936   0.417  0.00  0.00    +0.058 C 
ENDBRANCH  14  17
ENDBRANCH  13  14
ENDBRANCH   1  13
TORSDOF 9
ENDMDL
MODEL 3
REMARK VINA RESULT:      -5.9      1.376      2.513
REMARK  Name = 20835986
REMARK  9 active torsions:
REMARK  status: ('A' for Active; 'I' for Inactive)
REMARK    1  A    between atoms: C_1  and  O_2
REMARK    2  A    between atoms: C_1  and  C_4
REMARK    3  A    between atoms: C_1  and  C_13
REMARK    4  A    between atoms: C_4  and  C_5
REMARK    5  A    between atoms: C_5  and  O_6
REMARK    6  A    between atoms: C_5  and  C_8
REMARK    7  A    between atoms: C_8  and  S_9
REMARK    8  A    between atoms: C_13  and  C_14
REMARK    9  A    between atoms: C_14  and  C_17
REMARK                            x       y       z     vdW  Elec       q    Type
REMARK                         _______ _______ _______ _____ _____    ______ ____
ROOT
ATOM      1  C   UNL     1     -36.157  20.454   1.719  0.00  0.00    +0.113 C 
ENDROOT
BRANCH   1   2
ATOM      2  O   UNL     1     -36.872  19.565   2.571  0.00  0.00    -0.384 OA
ATOM      3  H   UNL     1     -36.295  18.826   2.824  0.00  0.00    +0.210 HD
ENDBRANCH   1   2
BRANCH   1   4
ATOM      4  C   UNL     1     -35.340  21.416   2.597  0.00  0.00    +0.060 C 
BRANCH   4   5
ATOM      5  C   UNL     1     -36.054  22.752   2.854  0.00  0.00    +0.137 C 
BRANCH   5   6
ATOM      6  O   UNL     1     -37.228  22.520   3.632  0.00  0.00    -0.383 OA
ATOM      7  H   UNL     1     -37.980  22.980   3.227  0.00  0.00    +0.210 HD
ENDBRANCH   5   6
BRANCH   5   8
ATOM      8  C   UNL     1     -35.144  23.721   3.602  0.00  0.00    +0.187 C 
BRANCH   8   9
ATOM      9  S   UNL     1     -35.801  24.139   5.190  0.00  0.00    +0.025 S 
ATOM     10  O   UNL     1     -34.524  25.000   5.725  0.00  0.00    -0.069 OA
ATOM     11  O   UNL     1     -35.915  22.929   5.982  0.00  0.00    -0.069 OA
ATOM     12  O   UNL     1     -36.926  25.037   5.006  0.00  0.00    -0.069 OA
ENDBRANCH   8   9
ENDBRANCH   5   8
ENDBRANCH   4   5
ENDBRANCH   1   4
BRANCH   1  13
ATOM     13  C   UNL     1     -35.228  19.655   0.790  0.00  0.00    +0.034 C 
BRANCH  13  14
ATOM     14  C   UNL     1     -33.827  19.390   1.360  0.00  0.00    +0.030 C 
BRANCH  14  17
ATOM     15 CL   UNL     1     -31.179  17.816   1.135  0.00  0.00    -0.083 Cl
ATOM     16 CL   UNL     1     -29.457  21.881  -1.943  0.00  0.00    -0.082 Cl
ATOM     17  C   UNL     1     -32.713  19.988   0.539  0.00  0.00    -0.011 C 
ATOM     18  C   UNL     1     -31.487  19.340   0.387  0.00  0.00    +0.055 C 
ATOM     19  C   UNL     1     -32.932  21.220  -0.077  0.00  0.00    -0.003 C 
ATOM     20  C   UNL     1     -30.479  19.925  -0.381  0.00  0.00    +0.022 C 
ATOM     21  C   UNL     1     -31.925  21.805  -0.844  0.00  0.00    +0.011 C 
ATOM     22  C   UNL     1     -30.698  21.158  -0.996  0.00  0.00    +0.058 C 
ENDBRANCH  14  17
ENDBRANCH  13  14
ENDBRANCH   1  13
TORSDOF 9
ENDMDL
MODEL 4
REMARK VINA RESULT:      -5.8      4.138      6.969
REMARK  Name = 20835986
REMARK  9 active torsions:
REMARK  status: ('A' for Active; 'I' for Inactive)
REMARK    1  A    between atoms: C_1  and  O_2
REMARK    2  A    between atoms: C_1  and  C_4
REMARK    3  A    between atoms: C_1  and  C_13
REMARK    4  A    between atoms: C_4  and  C_5
REMARK    5  A    between atoms: C_5  and  O_6
REMARK    6  A    between atoms: C_5  and  C_8
REMARK    7  A    between atoms: C_8  and  S_9
REMARK    8  A    between atoms: C_13  and  C_14
REMARK    9  A    between atoms: C_14  and  C_17
REMARK                            x       y       z     vdW  Elec       q    Type
REMARK                         _______ _______ _______ _____ _____    ______ ____
ROOT
ATOM      1  C   UNL     1     -35.024  21.812   5.102  0.00  0.00    +0.113 C 
ENDROOT
BRANCH   1   2
ATOM      2  O   UNL     1     -35.511  20.632   5.733  0.00  0.00    -0.384 OA
ATOM      3  H   UNL     1     -34.977  20.443   6.522  0.00  0.00    +0.210 HD
ENDBRANCH   1   2
BRANCH   1   4
ATOM      4  C   UNL     1     -35.641  21.900   3.697  0.00  0.00    +0.060 C 
BRANCH   4   5
ATOM      5  C   UNL     1     -35.423  20.629   2.862  0.00  0.00    +0.137 C 
BRANCH   5   6
ATOM      6  O   UNL     1     -36.643  19.893   2.792  0.00  0.00    -0.383 OA
ATOM      7  H   UNL     1     -36.568  19.208   2.108  0.00  0.00    +0.210 HD
ENDBRANCH   5   6
BRANCH   5   8
ATOM      8  C   UNL     1     -34.969  20.977   1.447  0.00  0.00    +0.187 C 
BRANCH   8   9
ATOM      9  S   UNL     1     -34.138  19.621   0.677  0.00  0.00    +0.025 S 
ATOM     10  O   UNL     1     -35.464  18.764   0.272  0.00  0.00    -0.069 OA
ATOM     11  O   UNL     1     -33.399  18.889   1.689  0.00  0.00    -0.069 OA
ATOM     12  O   UNL     1     -33.499  20.094  -0.537  0.00  0.00    -0.069 OA
ENDBRANCH   8   9
ENDBRANCH   5   8
ENDBRANCH   4   5
ENDBRANCH   1   4
BRANCH   1  13
ATOM     13  C   UNL     1     -35.406  23.046   5.936  0.00  0.00    +0.034 C 
BRANCH  13  14
ATOM     14  C   UNL     1     -35.906  24.243   5.114  0.00  0.00    +0.030 C 
BRANCH  14  17
ATOM     15 CL   UNL     1     -35.244  25.120   2.227  0.00  0.00    -0.083 Cl
ATOM     16 CL   UNL     1     -31.761  28.558   4.466  0.00  0.00    -0.082 Cl
ATOM     17  C   UNL     1     -34.871  25.322   4.919  0.00  0.00    -0.011 C 
ATOM     18  C   UNL     1     -34.516  25.775   3.648  0.00  0.00    +0.055 C 
ATOM     19  C   UNL     1     -34.265  25.871   6.049  0.00  0.00    -0.003 C 
ATOM     20  C   UNL     1     -33.555  26.776   3.508  0.00  0.00    +0.022 C 
ATOM     21  C   UNL     1     -33.303  26.871   5.908  0.00  0.00    +0.011 C 
ATOM     22  C   UNL     1     -32.948  27.324   4.638  0.00  0.00    +0.058 C 
ENDBRANCH  14  17
ENDBRANCH  13  14
ENDBRANCH   1  13
TORSDOF 9
ENDMDL
MODEL 5
REMARK VINA RESULT:      -5.6      1.757      3.056
REMARK  Name = 20835986
REMARK  9 active torsions:
REMARK  status: ('A' for Active; 'I' for Inactive)
REMARK    1  A    between atoms: C_1  and  O_2
REMARK    2  A    between atoms: C_1  and  C_4
REMARK    3  A    between atoms: C_1  and  C_13
REMARK    4  A    between atoms: C_4  and  C_5
REMARK    5  A    between atoms: C_5  and  O_6
REMARK    6  A    between atoms: C_5  and  C_8
REMARK    7  A    between atoms: C_8  and  S_9
REMARK    8  A    between atoms: C_13  and  C_14
REMARK    9  A    between atoms: C_14  and  C_17
REMARK                            x       y       z     vdW  Elec       q    Type
REMARK                         _______ _______ _______ _____ _____    ______ ____
ROOT
ATOM      1  C   UNL     1     -36.160  22.254   3.055  0.00  0.00    +0.113 C 
ENDROOT
BRANCH   1   2
ATOM      2  O   UNL     1     -37.555  21.989   2.936  0.00  0.00    -0.384 OA
ATOM      3  H   UNL     1     -38.026  22.397   3.681  0.00  0.00    +0.210 HD
ENDBRANCH   1   2
BRANCH   1   4
ATOM      4  C   UNL     1     -35.908  22.925   4.415  0.00  0.00    +0.060 C 
BRANCH   4   5
ATOM      5  C   UNL     1     -36.181  24.438   4.400  0.00  0.00    +0.137 C 
BRANCH   5   6
ATOM      6  O   UNL     1     -37.590  24.665   4.416  0.00  0.00    -0.383 OA
ATOM      7  H   UNL     1     -37.821  25.304   3.724  0.00  0.00    +0.210 HD
ENDBRANCH   5   6
BRANCH   5   8
ATOM      8  C   UNL     1     -35.553  25.116   5.613  0.00  0.00    +0.187 C 
BRANCH   8   9
ATOM      9  S   UNL     1     -34.286  26.255   5.140  0.00  0.00    +0.025 S 
ATOM     10  O   UNL     1     -33.350  25.199   4.325  0.00  0.00    -0.069 OA
ATOM     11  O   UNL     1     -33.577  26.687   6.331  0.00  0.00    -0.069 OA
ATOM     12  O   UNL     1     -34.844  27.208   4.200  0.00  0.00    -0.069 OA
ENDBRANCH   8   9
ENDBRANCH   5   8
ENDBRANCH   4   5
ENDBRANCH   1   4
BRANCH   1  13
ATOM     13  C   UNL     1     -35.368  20.940   2.950  0.00  0.00    +0.034 C 
BRANCH  13  14
ATOM     14  C   UNL     1     -35.273  20.362   1.531  0.00  0.00    +0.030 C 
BRANCH  14  17
ATOM     15 CL   UNL     1     -33.046  18.223   1.459  0.00  0.00    -0.083 Cl
ATOM     16 CL   UNL     1     -30.188  21.828  -1.335  0.00  0.00    -0.082 Cl
ATOM     17  C   UNL     1     -33.987  20.699   0.820  0.00  0.00    -0.011 C 
ATOM     18  C   UNL     1     -32.933  19.788   0.742  0.00  0.00    +0.055 C 
ATOM     19  C   UNL     1     -33.866  21.958   0.231  0.00  0.00    -0.003 C 
ATOM     20  C   UNL     1     -31.758  20.137   0.075  0.00  0.00    +0.022 C 
ATOM     21  C   UNL     1     -32.691  22.307  -0.435  0.00  0.00    +0.011 C 
ATOM     22  C   UNL     1     -31.637  21.396  -0.513  0.00  0.00    +0.058 C 
ENDBRANCH  14  17
ENDBRANCH  13  14
ENDBRANCH   1  13
TORSDOF 9
ENDMDL
MODEL 6
REMARK VINA RESULT:      -5.5      4.855      6.927
REMARK  Name = 20835986
REMARK  9 active torsions:
REMARK  status: ('A' for Active; 'I' for Inactive)
REMARK    1  A    between atoms: C_1  and  O_2
REMARK    2  A    between atoms: C_1  and  C_4
REMARK    3  A    between atoms: C_1  and  C_13
REMARK    4  A    between atoms: C_4  and  C_5
REMARK    5  A    between atoms: C_5  and  O_6
REMARK    6  A    between atoms: C_5  and  C_8
REMARK    7  A    between atoms: C_8  and  S_9
REMARK    8  A    between atoms: C_13  and  C_14
REMARK    9  A    between atoms: C_14  and  C_17
REMARK                            x       y       z     vdW  Elec       q    Type
REMARK                         _______ _______ _______ _____ _____    ______ ____
ROOT
ATOM      1  C   UNL     1     -35.437  22.430   4.157  0.00  0.00    +0.113 C 
ENDROOT
BRANCH   1   2
ATOM      2  O   UNL     1     -35.663  21.135   4.705  0.00  0.00    -0.384 OA
ATOM      3  H   UNL     1     -36.119  21.219   5.557  0.00  0.00    +0.210 HD
ENDBRANCH   1   2
BRANCH   1   4
ATOM      4  C   UNL     1     -36.797  23.047   3.793  0.00  0.00    +0.060 C 
BRANCH   4   5
ATOM      5  C   UNL     1     -37.404  22.454   2.512  0.00  0.00    +0.137 C 
BRANCH   5   6
ATOM      6  O   UNL     1     -37.526  21.039   2.655  0.00  0.00    -0.383 OA
ATOM      7  H   UNL     1     -37.524  20.625   1.778  0.00  0.00    +0.210 HD
ENDBRANCH   5   6
BRANCH   5   8
ATOM      8  C   UNL     1     -38.783  23.047   2.237  0.00  0.00    +0.187 C 
BRANCH   8   9
ATOM      9  S   UNL     1     -39.780  21.956   1.267  0.00  0.00    +0.025 S 
ATOM     10  O   UNL     1     -40.857  23.063   0.747  0.00  0.00    -0.069 OA
ATOM     11  O   UNL     1     -40.455  21.027   2.154  0.00  0.00    -0.069 OA
ATOM     12  O   UNL     1     -39.000  21.495   0.134  0.00  0.00    -0.069 OA
ENDBRANCH   8   9
ENDBRANCH   5   8
ENDBRANCH   4   5
ENDBRANCH   1   4
BRANCH   1  13
ATOM     13  C   UNL     1     -34.705  23.311   5.183  0.00  0.00    +0.034 C 
BRANCH  13  14
ATOM     14  C   UNL     1     -35.282  24.726   5.339  0.00  0.00    +0.030 C 
BRANCH  14  17
ATOM     15 CL   UNL     1     -34.532  25.703   2.506  0.00  0.00    -0.083 Cl
ATOM     16 CL   UNL     1     -31.163  29.098   4.974  0.00  0.00    -0.082 Cl
ATOM     17  C   UNL     1     -34.252  25.821   5.214  0.00  0.00    -0.011 C 
ATOM     18  C   UNL     1     -33.860  26.318   3.971  0.00  0.00    +0.055 C 
ATOM     19  C   UNL     1     -33.691  26.337   6.382  0.00  0.00    -0.003 C 
ATOM     20  C   UNL     1     -32.904  27.332   3.897  0.00  0.00    +0.022 C 
ATOM     21  C   UNL     1     -32.735  27.350   6.307  0.00  0.00    +0.011 C 
ATOM     22  C   UNL     1     -32.342  27.848   5.064  0.00  0.00    +0.058 C 
ENDBRANCH  14  17
ENDBRANCH  13  14
ENDBRANCH   1  13
TORSDOF 9
ENDMDL
MODEL 7
REMARK VINA RESULT:      -5.3      4.605      6.638
REMARK  Name = 20835986
REMARK  9 active torsions:
REMARK  status: ('A' for Active; 'I' for Inactive)
REMARK    1  A    between atoms: C_1  and  O_2
REMARK    2  A    between atoms: C_1  and  C_4
REMARK    3  A    between atoms: C_1  and  C_13
REMARK    4  A    between atoms: C_4  and  C_5
REMARK    5  A    between atoms: C_5  and  O_6
REMARK    6  A    between atoms: C_5  and  C_8
REMARK    7  A    between atoms: C_8  and  S_9
REMARK    8  A    between atoms: C_13  and  C_14
REMARK    9  A    between atoms: C_14  and  C_17
REMARK                            x       y       z     vdW  Elec       q    Type
REMARK                         _______ _______ _______ _____ _____    ______ ____
ROOT
ATOM      1  C   UNL     1     -34.709  26.987   3.543  0.00  0.00    +0.113 C 
ENDROOT
BRANCH   1   2
ATOM      2  O   UNL     1     -35.066  28.350   3.757  0.00  0.00    -0.384 OA
ATOM      3  H   UNL     1     -35.990  28.487   3.495  0.00  0.00    +0.210 HD
ENDBRANCH   1   2
BRANCH   1   4
ATOM      4  C   UNL     1     -33.230  26.808   3.920  0.00  0.00    +0.060 C 
BRANCH   4   5
ATOM      5  C   UNL     1     -32.760  27.792   5.002  0.00  0.00    +0.137 C 
BRANCH   5   6
ATOM      6  O   UNL     1     -32.494  27.079   6.209  0.00  0.00    -0.383 OA
ATOM      7  H   UNL     1     -31.681  26.559   6.104  0.00  0.00    +0.210 HD
ENDBRANCH   5   6
BRANCH   5   8
ATOM      8  C   UNL     1     -31.493  28.520   4.564  0.00  0.00    +0.187 C 
BRANCH   8   9
ATOM      9  S   UNL     1     -30.602  29.168   5.947  0.00  0.00    +0.025 S 
ATOM     10  O   UNL     1     -29.847  27.788   6.375  0.00  0.00    -0.069 OA
ATOM     11  O   UNL     1     -31.549  29.526   6.987  0.00  0.00    -0.069 OA
ATOM     12  O   UNL     1     -29.612  30.112   5.462  0.00  0.00    -0.069 OA
ENDBRANCH   8   9
ENDBRANCH   5   8
ENDBRANCH   4   5
ENDBRANCH   1   4
BRANCH   1  13
ATOM     13  C   UNL     1     -35.597  26.073   4.403  0.00  0.00    +0.034 C 
BRANCH  13  14
ATOM     14  C   UNL     1     -34.884  24.837   4.969  0.00  0.00    +0.030 C 
BRANCH  14  17
ATOM     15 CL   UNL     1     -35.488  22.190   6.443  0.00  0.00    -0.083 Cl
ATOM     16 CL   UNL     1     -35.630  19.935   1.558  0.00  0.00    -0.082 Cl
ATOM     17  C   UNL     1     -35.076  23.590   4.142  0.00  0.00    -0.011 C 
ATOM     18  C   UNL     1     -35.353  22.357   4.731  0.00  0.00    +0.055 C 
ATOM     19  C   UNL     1     -34.972  23.694   2.755  0.00  0.00    -0.003 C 
ATOM     20  C   UNL     1     -35.524  21.226   3.932  0.00  0.00    +0.022 C 
ATOM     21  C   UNL     1     -35.143  22.563   1.956  0.00  0.00    +0.011 C 
ATOM     22  C   UNL     1     -35.419  21.329   2.544  0.00  0.00    +0.058 C 
ENDBRANCH  14  17
ENDBRANCH  13  14
ENDBRANCH   1  13
TORSDOF 9
ENDMDL
MODEL 8
REMARK VINA RESULT:      -5.3      2.199      2.913
REMARK  Name = 20835986
REMARK  9 active torsions:
REMARK  status: ('A' for Active; 'I' for Inactive)
REMARK    1  A    between atoms: C_1  and  O_2
REMARK    2  A    between atoms: C_1  and  C_4
REMARK    3  A    between atoms: C_1  and  C_13
REMARK    4  A    between atoms: C_4  and  C_5
REMARK    5  A    between atoms: C_5  and  O_6
REMARK    6  A    between atoms: C_5  and  C_8
REMARK    7  A    between atoms: C_8  and  S_9
REMARK    8  A    between atoms: C_13  and  C_14
REMARK    9  A    between atoms: C_14  and  C_17
REMARK                            x       y       z     vdW  Elec       q    Type
REMARK                         _______ _______ _______ _____ _____    ______ ____
ROOT
ATOM      1  C   UNL     1     -36.148  22.098   3.355  0.00  0.00    +0.113 C 
ENDROOT
BRANCH   1   2
ATOM      2  O   UNL     1     -36.210  22.156   4.777  0.00  0.00    -0.384 OA
ATOM      3  H   UNL     1     -36.877  21.527   5.098  0.00  0.00    +0.210 HD
ENDBRANCH   1   2
BRANCH   1   4
ATOM      4  C   UNL     1     -35.354  23.315   2.855  0.00  0.00    +0.060 C 
BRANCH   4   5
ATOM      5  C   UNL     1     -36.130  24.635   2.981  0.00  0.00    +0.137 C 
BRANCH   5   6
ATOM      6  O   UNL     1     -37.193  24.473   3.919  0.00  0.00    -0.383 OA
ATOM      7  H   UNL     1     -37.986  24.158   3.457  0.00  0.00    +0.210 HD
ENDBRANCH   5   6
BRANCH   5   8
ATOM      8  C   UNL     1     -35.216  25.762   3.455  0.00  0.00    +0.187 C 
BRANCH   8   9
ATOM      9  S   UNL     1     -35.098  25.807   5.218  0.00  0.00    +0.025 S 
ATOM     10  O   UNL     1     -33.880  26.887   5.319  0.00  0.00    -0.069 OA
ATOM     11  O   UNL     1     -34.622  24.519   5.688  0.00  0.00    -0.069 OA
ATOM     12  O   UNL     1     -36.304  26.412   5.750  0.00  0.00    -0.069 OA
ENDBRANCH   8   9
ENDBRANCH   5   8
ENDBRANCH   4   5
ENDBRANCH   1   4
BRANCH   1  13
ATOM     13  C   UNL     1     -35.465  20.793   2.915  0.00  0.00    +0.034 C 
BRANCH  13  14
ATOM     14  C   UNL     1     -35.552  20.502   1.410  0.00  0.00    +0.030 C 
BRANCH  14  17
ATOM     15 CL   UNL     1     -36.727  18.653  -0.768  0.00  0.00    -0.083 Cl
ATOM     16 CL   UNL     1     -32.199  15.789  -0.254  0.00  0.00    -0.082 Cl
ATOM     17  C   UNL     1     -34.735  19.312   0.971  0.00  0.00    -0.011 C 
ATOM     18  C   UNL     1     -35.194  18.430  -0.007  0.00  0.00    +0.055 C 
ATOM     19  C   UNL     1     -33.492  19.105   1.569  0.00  0.00    -0.003 C 
ATOM     20  C   UNL     1     -34.409  17.340  -0.387  0.00  0.00    +0.022 C 
ATOM     21  C   UNL     1     -32.709  18.016   1.190  0.00  0.00    +0.011 C 
ATOM     22  C   UNL     1     -33.167  17.133   0.212  0.00  0.00    +0.058 C 
ENDBRANCH  14  17
ENDBRANCH  13  14
ENDBRANCH   1  13
TORSDOF 9
ENDMDL
MODEL 9
REMARK VINA RESULT:      -5.3      4.353      6.572
REMARK  Name = 20835986
REMARK  9 active torsions:
REMARK  status: ('A' for Active; 'I' for Inactive)
REMARK    1  A    between atoms: C_1  and  O_2
REMARK    2  A    between atoms: C_1  and  C_4
REMARK    3  A    between atoms: C_1  and  C_13
REMARK    4  A    between atoms: C_4  and  C_5
REMARK    5  A    between atoms: C_5  and  O_6
REMARK    6  A    between atoms: C_5  and  C_8
REMARK    7  A    between atoms: C_8  and  S_9
REMARK    8  A    between atoms: C_13  and  C_14
REMARK    9  A    between atoms: C_14  and  C_17
REMARK                            x       y       z     vdW  Elec       q    Type
REMARK                         _______ _______ _______ _____ _____    ______ ____
ROOT
ATOM      1  C   UNL     1     -34.152  26.533   4.568  0.00  0.00    +0.113 C 
ENDROOT
BRANCH   1   2
ATOM      2  O   UNL     1     -35.226  27.402   4.222  0.00  0.00    -0.384 OA
ATOM      3  H   UNL     1     -35.454  27.956   4.986  0.00  0.00    +0.210 HD
ENDBRANCH   1   2
BRANCH   1   4
ATOM      4  C   UNL     1     -33.011  27.381   5.152  0.00  0.00    +0.060 C 
BRANCH   4   5
ATOM      5  C   UNL     1     -32.114  28.010   4.075  0.00  0.00    +0.137 C 
BRANCH   5   6
ATOM      6  O   UNL     1     -32.573  27.611   2.784  0.00  0.00    -0.383 OA
ATOM      7  H   UNL     1     -32.472  28.350   2.163  0.00  0.00    +0.210 HD
ENDBRANCH   5   6
BRANCH   5   8
ATOM      8  C   UNL     1     -32.140  29.533   4.165  0.00  0.00    +0.187 C 
BRANCH   8   9
ATOM      9  S   UNL     1     -33.202  30.240   2.941  0.00  0.00    +0.025 S 
ATOM     10  O   UNL     1     -33.016  31.799   3.377  0.00  0.00    -0.069 OA
ATOM     11  O   UNL     1     -34.568  29.836   3.218  0.00  0.00    -0.069 OA
ATOM     12  O   UNL     1     -32.601  30.045   1.634  0.00  0.00    -0.069 OA
ENDBRANCH   8   9
ENDBRANCH   5   8
ENDBRANCH   4   5
ENDBRANCH   1   4
BRANCH   1  13
ATOM     13  C   UNL     1     -34.631  25.495   5.596  0.00  0.00    +0.034 C 
BRANCH  13  14
ATOM     14  C   UNL     1     -35.939  24.782   5.224  0.00  0.00    +0.030 C 
BRANCH  14  17
ATOM     15 CL   UNL     1     -35.495  22.047   6.589  0.00  0.00    -0.083 Cl
ATOM     16 CL   UNL     1     -35.181  20.032   1.608  0.00  0.00    -0.082 Cl
ATOM     17  C   UNL     1     -35.746  23.572   4.345  0.00  0.00    -0.011 C 
ATOM     18  C   UNL     1     -35.541  22.302   4.883  0.00  0.00    +0.055 C 
ATOM     19  C   UNL     1     -35.777  23.748   2.961  0.00  0.00    -0.003 C 
ATOM     20  C   UNL     1     -35.366  21.206   4.037  0.00  0.00    +0.022 C 
ATOM     21  C   UNL     1     -35.602  22.653   2.116  0.00  0.00    +0.011 C 
ATOM     22  C   UNL     1     -35.397  21.382   2.653  0.00  0.00    +0.058 C 
ENDBRANCH  14  17
ENDBRANCH  13  14
ENDBRANCH   1  13
TORSDOF 9
ENDMDL
