MODEL 1
REMARK VINA RESULT:      -5.1      0.000      0.000
REMARK  Name = 2061
REMARK  6 active torsions:
REMARK  status: ('A' for Active; 'I' for Inactive)
REMARK    1  A    between atoms: C_1  and  C_13
REMARK    2  A    between atoms: C_4  and  O_7
REMARK    3  A    between atoms: C_5  and  O_9
REMARK    4  A    between atoms: C_6  and  O_11
REMARK    5  A    between atoms: C_14  and  C_16
REMARK    6  A    between atoms: C_14  and  C_18
REMARK                            x       y       z     vdW  Elec       q    Type
REMARK                         _______ _______ _______ _____ _____    ______ ____
ROOT
ATOM      1  C   UNL     1     -35.914  22.503   2.850  0.00  0.00    +0.008 C 
ATOM      2  C   UNL     1     -34.966  21.511   2.602  0.00  0.00    +0.040 C 
ATOM      3  C   UNL     1     -37.246  22.301   2.488  0.00  0.00    +0.040 C 
ATOM      4  C   UNL     1     -37.629  21.106   1.877  0.00  0.00    +0.171 C 
ATOM      5  C   UNL     1     -35.349  20.317   1.992  0.00  0.00    +0.171 C 
ATOM      6  C   UNL     1     -36.680  20.114   1.630  0.00  0.00    +0.202 C 
ENDROOT
BRANCH   4   7
ATOM      7  O   UNL     1     -38.933  20.922   1.528  0.00  0.00    -0.503 OA
ATOM      8  H   UNL     1     -39.539  21.633   1.586  0.00  0.00    +0.292 HD
ENDBRANCH   4   7
BRANCH   5   9
ATOM      9  O   UNL     1     -34.413  19.355   1.757  0.00  0.00    -0.503 OA
ATOM     10  H   UNL     1     -34.678  18.505   1.463  0.00  0.00    +0.292 HD
ENDBRANCH   5   9
BRANCH   6  11
ATOM     11  O   UNL     1     -37.054  18.946   1.033  0.00  0.00    -0.501 OA
ATOM     12  H   UNL     1     -37.742  18.429   1.405  0.00  0.00    +0.292 HD
ENDBRANCH   6  11
BRANCH   1  13
ATOM     13  C   UNL     1     -35.515  23.748   3.486  0.00  0.00    +0.021 C 
ATOM     14  C   UNL     1     -35.349  23.963   4.815  0.00  0.00    +0.136 C 
BRANCH  14  16
ATOM     15  N   UNL     1     -34.636  26.313   5.631  0.00  0.00    -0.190 NA
ATOM     16  C   UNL     1     -34.955  25.259   5.266  0.00  0.00    +0.111 C 
ENDBRANCH  14  16
BRANCH  14  18
ATOM     17  N   UNL     1     -35.772  22.089   6.549  0.00  0.00    -0.190 NA
ATOM     18  C   UNL     1     -35.580  22.930   5.772  0.00  0.00    +0.111 C 
ENDBRANCH  14  18
ENDBRANCH   1  13
TORSDOF 6
ENDMDL
MODEL 2
REMARK VINA RESULT:      -5.1      0.022      2.148
REMARK  Name = 2061
REMARK  6 active torsions:
REMARK  status: ('A' for Active; 'I' for Inactive)
REMARK    1  A    between atoms: C_1  and  C_13
REMARK    2  A    between atoms: C_4  and  O_7
REMARK    3  A    between atoms: C_5  and  O_9
REMARK    4  A    between atoms: C_6  and  O_11
REMARK    5  A    between atoms: C_14  and  C_16
REMARK    6  A    between atoms: C_14  and  C_18
REMARK                            x       y       z     vdW  Elec       q    Type
REMARK                         _______ _______ _______ _____ _____    ______ ____
ROOT
ATOM      1  C   UNL     1     -35.891  22.499   2.855  0.00  0.00    +0.008 C 
ATOM      2  C   UNL     1     -37.223  22.302   2.493  0.00  0.00    +0.040 C 
ATOM      3  C   UNL     1     -34.946  21.503   2.605  0.00  0.00    +0.040 C 
ATOM      4  C   UNL     1     -35.335  20.310   1.994  0.00  0.00    +0.171 C 
ATOM      5  C   UNL     1     -37.611  21.110   1.883  0.00  0.00    +0.171 C 
ATOM      6  C   UNL     1     -36.667  20.114   1.633  0.00  0.00    +0.202 C 
ENDROOT
BRANCH   4   7
ATOM      7  O   UNL     1     -34.402  19.346   1.757  0.00  0.00    -0.503 OA
ATOM      8  H   UNL     1     -34.336  18.606   2.327  0.00  0.00    +0.292 HD
ENDBRANCH   4   7
BRANCH   5   9
ATOM      9  O   UNL     1     -38.916  20.930   1.533  0.00  0.00    -0.503 OA
ATOM     10  H   UNL     1     -39.171  20.984   0.633  0.00  0.00    +0.292 HD
ENDBRANCH   5   9
BRANCH   6  11
ATOM     11  O   UNL     1     -37.047  18.948   1.036  0.00  0.00    -0.501 OA
ATOM     12  H   UNL     1     -36.457  18.221   1.010  0.00  0.00    +0.292 HD
ENDBRANCH   6  11
BRANCH   1  13
ATOM     13  C   UNL     1     -35.486  23.742   3.491  0.00  0.00    +0.021 C 
ATOM     14  C   UNL     1     -35.326  23.957   4.821  0.00  0.00    +0.136 C 
BRANCH  14  16
ATOM     15  N   UNL     1     -34.598  26.303   5.637  0.00  0.00    -0.190 NA
ATOM     16  C   UNL     1     -34.925  25.251   5.272  0.00  0.00    +0.111 C 
ENDBRANCH  14  16
BRANCH  14  18
ATOM     17  N   UNL     1     -35.776  22.090   6.556  0.00  0.00    -0.190 NA
ATOM     18  C   UNL     1     -35.572  22.928   5.779  0.00  0.00    +0.111 C 
ENDBRANCH  14  18
ENDBRANCH   1  13
TORSDOF 6
ENDMDL
MODEL 3
REMARK VINA RESULT:      -4.9      1.207      1.812
REMARK  Name = 2061
REMARK  6 active torsions:
REMARK  status: ('A' for Active; 'I' for Inactive)
REMARK    1  A    between atoms: C_1  and  C_13
REMARK    2  A    between atoms: C_4  and  O_7
REMARK    3  A    between atoms: C_5  and  O_9
REMARK    4  A    between atoms: C_6  and  O_11
REMARK    5  A    between atoms: C_14  and  C_16
REMARK    6  A    between atoms: C_14  and  C_18
REMARK                            x       y       z     vdW  Elec       q    Type
REMARK                         _______ _______ _______ _____ _____    ______ ____
ROOT
ATOM      1  C   UNL     1     -36.787  23.311   2.925  0.00  0.00    +0.008 C 
ATOM      2  C   UNL     1     -36.406  22.027   2.538  0.00  0.00    +0.040 C 
ATOM      3  C   UNL     1     -38.111  23.722   2.771  0.00  0.00    +0.040 C 
ATOM      4  C   UNL     1     -39.054  22.848   2.229  0.00  0.00    +0.171 C 
ATOM      5  C   UNL     1     -37.349  21.153   1.997  0.00  0.00    +0.171 C 
ATOM      6  C   UNL     1     -38.673  21.563   1.843  0.00  0.00    +0.202 C 
ENDROOT
BRANCH   4   7
ATOM      7  O   UNL     1     -40.344  23.262   2.084  0.00  0.00    -0.503 OA
ATOM      8  H   UNL     1     -40.791  23.131   1.271  0.00  0.00    +0.292 HD
ENDBRANCH   4   7
BRANCH   5   9
ATOM      9  O   UNL     1     -36.964  19.900   1.624  0.00  0.00    -0.503 OA
ATOM     10  H   UNL     1     -37.386  19.151   1.997  0.00  0.00    +0.292 HD
ENDBRANCH   5   9
BRANCH   6  11
ATOM     11  O   UNL     1     -39.594  20.709   1.314  0.00  0.00    -0.501 OA
ATOM     12  H   UNL     1     -39.314  19.930   0.875  0.00  0.00    +0.292 HD
ENDBRANCH   6  11
BRANCH   1  13
ATOM     13  C   UNL     1     -35.804  24.223   3.489  0.00  0.00    +0.021 C 
ATOM     14  C   UNL     1     -35.229  24.137   4.714  0.00  0.00    +0.136 C 
BRANCH  14  16
ATOM     15  N   UNL     1     -33.512  25.937   5.429  0.00  0.00    -0.190 NA
ATOM     16  C   UNL     1     -34.281  25.130   5.108  0.00  0.00    +0.111 C 
ENDBRANCH  14  16
BRANCH  14  18
ATOM     17  N   UNL     1     -35.843  22.246   6.371  0.00  0.00    -0.190 NA
ATOM     18  C   UNL     1     -35.567  23.093   5.626  0.00  0.00    +0.111 C 
ENDBRANCH  14  18
ENDBRANCH   1  13
TORSDOF 6
ENDMDL
MODEL 4
REMARK VINA RESULT:      -4.8      2.566      3.379
REMARK  Name = 2061
REMARK  6 active torsions:
REMARK  status: ('A' for Active; 'I' for Inactive)
REMARK    1  A    between atoms: C_1  and  C_13
REMARK    2  A    between atoms: C_4  and  O_7
REMARK    3  A    between atoms: C_5  and  O_9
REMARK    4  A    between atoms: C_6  and  O_11
REMARK    5  A    between atoms: C_14  and  C_16
REMARK    6  A    between atoms: C_14  and  C_18
REMARK                            x       y       z     vdW  Elec       q    Type
REMARK                         _______ _______ _______ _____ _____    ______ ____
ROOT
ATOM      1  C   UNL     1     -35.559  24.405   4.819  0.00  0.00    +0.008 C 
ATOM      2  C   UNL     1     -35.177  23.066   4.740  0.00  0.00    +0.040 C 
ATOM      3  C   UNL     1     -36.690  24.849   4.133  0.00  0.00    +0.040 C 
ATOM      4  C   UNL     1     -37.437  23.953   3.367  0.00  0.00    +0.171 C 
ATOM      5  C   UNL     1     -35.924  22.171   3.975  0.00  0.00    +0.171 C 
ATOM      6  C   UNL     1     -37.054  22.614   3.289  0.00  0.00    +0.202 C 
ENDROOT
BRANCH   4   7
ATOM      7  O   UNL     1     -38.539  24.400   2.702  0.00  0.00    -0.503 OA
ATOM      8  H   UNL     1     -39.384  24.053   2.908  0.00  0.00    +0.292 HD
ENDBRANCH   4   7
BRANCH   5   9
ATOM      9  O   UNL     1     -35.540  20.865   3.907  0.00  0.00    -0.503 OA
ATOM     10  H   UNL     1     -34.679  20.616   4.179  0.00  0.00    +0.292 HD
ENDBRANCH   5   9
BRANCH   6  11
ATOM     11  O   UNL     1     -37.785  21.739   2.541  0.00  0.00    -0.501 OA
ATOM     12  H   UNL     1     -38.720  21.737   2.602  0.00  0.00    +0.292 HD
ENDBRANCH   6  11
BRANCH   1  13
ATOM     13  C   UNL     1     -34.780  25.338   5.616  0.00  0.00    +0.021 C 
ATOM     14  C   UNL     1     -33.781  26.144   5.177  0.00  0.00    +0.136 C 
BRANCH  14  16
ATOM     15  N   UNL     1     -32.577  27.695   6.862  0.00  0.00    -0.190 NA
ATOM     16  C   UNL     1     -33.117  26.999   6.107  0.00  0.00    +0.111 C 
ENDBRANCH  14  16
BRANCH  14  18
ATOM     17  N   UNL     1     -33.025  26.130   2.701  0.00  0.00    -0.190 NA
ATOM     18  C   UNL     1     -33.365  26.139   3.812  0.00  0.00    +0.111 C 
ENDBRANCH  14  18
ENDBRANCH   1  13
TORSDOF 6
ENDMDL
MODEL 5
REMARK VINA RESULT:      -4.7      2.667      4.022
REMARK  Name = 2061
REMARK  6 active torsions:
REMARK  status: ('A' for Active; 'I' for Inactive)
REMARK    1  A    between atoms: C_1  and  C_13
REMARK    2  A    between atoms: C_4  and  O_7
REMARK    3  A    between atoms: C_5  and  O_9
REMARK    4  A    between atoms: C_6  and  O_11
REMARK    5  A    between atoms: C_14  and  C_16
REMARK    6  A    between atoms: C_14  and  C_18
REMARK                            x       y       z     vdW  Elec       q    Type
REMARK                         _______ _______ _______ _____ _____    ______ ____
ROOT
ATOM      1  C   UNL     1     -35.486  24.535   4.845  0.00  0.00    +0.008 C 
ATOM      2  C   UNL     1     -36.617  24.978   4.160  0.00  0.00    +0.040 C 
ATOM      3  C   UNL     1     -35.124  23.188   4.797  0.00  0.00    +0.040 C 
ATOM      4  C   UNL     1     -35.895  22.285   4.064  0.00  0.00    +0.171 C 
ATOM      5  C   UNL     1     -37.387  24.075   3.428  0.00  0.00    +0.171 C 
ATOM      6  C   UNL     1     -37.026  22.729   3.380  0.00  0.00    +0.202 C 
ENDROOT
BRANCH   4   7
ATOM      7  O   UNL     1     -35.531  20.973   4.027  0.00  0.00    -0.503 OA
ATOM      8  H   UNL     1     -35.719  20.456   3.268  0.00  0.00    +0.292 HD
ENDBRANCH   4   7
BRANCH   5   9
ATOM      9  O   UNL     1     -38.489  24.521   2.763  0.00  0.00    -0.503 OA
ATOM     10  H   UNL     1     -39.259  24.762   3.241  0.00  0.00    +0.292 HD
ENDBRANCH   5   9
BRANCH   6  11
ATOM     11  O   UNL     1     -37.780  21.846   2.664  0.00  0.00    -0.501 OA
ATOM     12  H   UNL     1     -37.729  20.929   2.849  0.00  0.00    +0.292 HD
ENDBRANCH   6  11
BRANCH   1  13
ATOM     13  C   UNL     1     -34.682  25.477   5.609  0.00  0.00    +0.021 C 
ATOM     14  C   UNL     1     -33.705  26.284   5.128  0.00  0.00    +0.136 C 
BRANCH  14  16
ATOM     15  N   UNL     1     -32.446  27.850   6.760  0.00  0.00    -0.190 NA
ATOM     16  C   UNL     1     -33.011  27.148   6.029  0.00  0.00    +0.111 C 
ENDBRANCH  14  16
BRANCH  14  18
ATOM     17  N   UNL     1     -33.040  26.261   2.626  0.00  0.00    -0.190 NA
ATOM     18  C   UNL     1     -33.339  26.274   3.748  0.00  0.00    +0.111 C 
ENDBRANCH  14  18
ENDBRANCH   1  13
TORSDOF 6
ENDMDL
MODEL 6
REMARK VINA RESULT:      -4.6      3.408      4.197
REMARK  Name = 2061
REMARK  6 active torsions:
REMARK  status: ('A' for Active; 'I' for Inactive)
REMARK    1  A    between atoms: C_1  and  C_13
REMARK    2  A    between atoms: C_4  and  O_7
REMARK    3  A    between atoms: C_5  and  O_9
REMARK    4  A    between atoms: C_6  and  O_11
REMARK    5  A    between atoms: C_14  and  C_16
REMARK    6  A    between atoms: C_14  and  C_18
REMARK                            x       y       z     vdW  Elec       q    Type
REMARK                         _______ _______ _______ _____ _____    ______ ____
ROOT
ATOM      1  C   UNL     1     -36.105  23.928   3.290  0.00  0.00    +0.008 C 
ATOM      2  C   UNL     1     -35.767  24.075   4.634  0.00  0.00    +0.040 C 
ATOM      3  C   UNL     1     -36.121  22.659   2.709  0.00  0.00    +0.040 C 
ATOM      4  C   UNL     1     -35.798  21.538   3.475  0.00  0.00    +0.171 C 
ATOM      5  C   UNL     1     -35.444  22.955   5.399  0.00  0.00    +0.171 C 
ATOM      6  C   UNL     1     -35.460  21.686   4.820  0.00  0.00    +0.202 C 
ENDROOT
BRANCH   4   7
ATOM      7  O   UNL     1     -35.818  20.306   2.895  0.00  0.00    -0.503 OA
ATOM      8  H   UNL     1     -35.664  19.541   3.414  0.00  0.00    +0.292 HD
ENDBRANCH   4   7
BRANCH   5   9
ATOM      9  O   UNL     1     -35.117  23.112   6.713  0.00  0.00    -0.503 OA
ATOM     10  H   UNL     1     -35.711  22.828   7.380  0.00  0.00    +0.292 HD
ENDBRANCH   5   9
BRANCH   6  11
ATOM     11  O   UNL     1     -35.145  20.590   5.568  0.00  0.00    -0.501 OA
ATOM     12  H   UNL     1     -35.783  20.217   6.145  0.00  0.00    +0.292 HD
ENDBRANCH   6  11
BRANCH   1  13
ATOM     13  C   UNL     1     -36.441  25.096   2.492  0.00  0.00    +0.021 C 
ATOM     14  C   UNL     1     -37.664  25.669   2.368  0.00  0.00    +0.136 C 
BRANCH  14  16
ATOM     15  N   UNL     1     -37.934  27.749   0.852  0.00  0.00    -0.190 NA
ATOM     16  C   UNL     1     -37.813  26.817   1.532  0.00  0.00    +0.111 C 
ENDBRANCH  14  16
BRANCH  14  18
ATOM     17  N   UNL     1     -39.736  24.701   3.581  0.00  0.00    -0.190 NA
ATOM     18  C   UNL     1     -38.808  25.136   3.035  0.00  0.00    +0.111 C 
ENDBRANCH  14  18
ENDBRANCH   1  13
TORSDOF 6
ENDMDL
MODEL 7
REMARK VINA RESULT:      -4.6      3.430      4.198
REMARK  Name = 2061
REMARK  6 active torsions:
REMARK  status: ('A' for Active; 'I' for Inactive)
REMARK    1  A    between atoms: C_1  and  C_13
REMARK    2  A    between atoms: C_4  and  O_7
REMARK    3  A    between atoms: C_5  and  O_9
REMARK    4  A    between atoms: C_6  and  O_11
REMARK    5  A    between atoms: C_14  and  C_16
REMARK    6  A    between atoms: C_14  and  C_18
REMARK                            x       y       z     vdW  Elec       q    Type
REMARK                         _______ _______ _______ _____ _____    ______ ____
ROOT
ATOM      1  C   UNL     1     -36.163  23.912   3.228  0.00  0.00    +0.008 C 
ATOM      2  C   UNL     1     -36.175  22.639   2.661  0.00  0.00    +0.040 C 
ATOM      3  C   UNL     1     -35.809  24.075   4.568  0.00  0.00    +0.040 C 
ATOM      4  C   UNL     1     -35.468  22.963   5.340  0.00  0.00    +0.171 C 
ATOM      5  C   UNL     1     -35.836  21.527   3.432  0.00  0.00    +0.171 C 
ATOM      6  C   UNL     1     -35.482  21.690   4.771  0.00  0.00    +0.202 C 
ENDROOT
BRANCH   4   7
ATOM      7  O   UNL     1     -35.125  23.137   6.646  0.00  0.00    -0.503 OA
ATOM      8  H   UNL     1     -35.787  23.315   7.286  0.00  0.00    +0.292 HD
ENDBRANCH   4   7
BRANCH   5   9
ATOM      9  O   UNL     1     -35.851  20.289   2.865  0.00  0.00    -0.503 OA
ATOM     10  H   UNL     1     -36.606  19.741   2.958  0.00  0.00    +0.292 HD
ENDBRANCH   5   9
BRANCH   6  11
ATOM     11  O   UNL     1     -35.149  20.604   5.525  0.00  0.00    -0.501 OA
ATOM     12  H   UNL     1     -34.433  20.056   5.269  0.00  0.00    +0.292 HD
ENDBRANCH   6  11
BRANCH   1  13
ATOM     13  C   UNL     1     -36.517  25.071   2.424  0.00  0.00    +0.021 C 
ATOM     14  C   UNL     1     -37.743  25.641   2.320  0.00  0.00    +0.136 C 
BRANCH  14  16
ATOM     15  N   UNL     1     -38.047  27.704   0.787  0.00  0.00    -0.190 NA
ATOM     16  C   UNL     1     -37.911  26.779   1.474  0.00  0.00    +0.111 C 
ENDBRANCH  14  16
BRANCH  14  18
ATOM     17  N   UNL     1     -39.788  24.689   3.591  0.00  0.00    -0.190 NA
ATOM     18  C   UNL     1     -38.872  25.117   3.019  0.00  0.00    +0.111 C 
ENDBRANCH  14  18
ENDBRANCH   1  13
TORSDOF 6
ENDMDL
MODEL 8
REMARK VINA RESULT:      -4.6      3.899      5.886
REMARK  Name = 2061
REMARK  6 active torsions:
REMARK  status: ('A' for Active; 'I' for Inactive)
REMARK    1  A    between atoms: C_1  and  C_13
REMARK    2  A    between atoms: C_4  and  O_7
REMARK    3  A    between atoms: C_5  and  O_9
REMARK    4  A    between atoms: C_6  and  O_11
REMARK    5  A    between atoms: C_14  and  C_16
REMARK    6  A    between atoms: C_14  and  C_18
REMARK                            x       y       z     vdW  Elec       q    Type
REMARK                         _______ _______ _______ _____ _____    ______ ____
ROOT
ATOM      1  C   UNL     1     -35.841  23.003   3.630  0.00  0.00    +0.008 C 
ATOM      2  C   UNL     1     -37.052  23.647   3.384  0.00  0.00    +0.040 C 
ATOM      3  C   UNL     1     -34.895  23.593   4.470  0.00  0.00    +0.040 C 
ATOM      4  C   UNL     1     -35.163  24.827   5.062  0.00  0.00    +0.171 C 
ATOM      5  C   UNL     1     -37.320  24.881   3.976  0.00  0.00    +0.171 C 
ATOM      6  C   UNL     1     -36.375  25.471   4.815  0.00  0.00    +0.202 C 
ENDROOT
BRANCH   4   7
ATOM      7  O   UNL     1     -34.231  25.392   5.879  0.00  0.00    -0.503 OA
ATOM      8  H   UNL     1     -33.329  25.406   5.624  0.00  0.00    +0.292 HD
ENDBRANCH   4   7
BRANCH   5   9
ATOM      9  O   UNL     1     -38.509  25.499   3.728  0.00  0.00    -0.503 OA
ATOM     10  H   UNL     1     -38.752  26.259   4.220  0.00  0.00    +0.292 HD
ENDBRANCH   5   9
BRANCH   6  11
ATOM     11  O   UNL     1     -36.637  26.677   5.394  0.00  0.00    -0.501 OA
ATOM     12  H   UNL     1     -37.165  26.722   6.167  0.00  0.00    +0.292 HD
ENDBRANCH   6  11
BRANCH   1  13
ATOM     13  C   UNL     1     -35.562  21.716   3.013  0.00  0.00    +0.021 C 
ATOM     14  C   UNL     1     -34.968  21.505   1.812  0.00  0.00    +0.136 C 
BRANCH  14  16
ATOM     15  N   UNL     1     -34.621  19.076   0.987  0.00  0.00    -0.190 NA
ATOM     16  C   UNL     1     -34.777  20.164   1.357  0.00  0.00    +0.111 C 
ENDBRANCH  14  16
BRANCH  14  18
ATOM     17  N   UNL     1     -34.215  23.476   0.312  0.00  0.00    -0.190 NA
ATOM     18  C   UNL     1     -34.552  22.590   0.983  0.00  0.00    +0.111 C 
ENDBRANCH  14  18
ENDBRANCH   1  13
TORSDOF 6
ENDMDL
MODEL 9
REMARK VINA RESULT:      -4.6      3.907      5.540
REMARK  Name = 2061
REMARK  6 active torsions:
REMARK  status: ('A' for Active; 'I' for Inactive)
REMARK    1  A    between atoms: C_1  and  C_13
REMARK    2  A    between atoms: C_4  and  O_7
REMARK    3  A    between atoms: C_5  and  O_9
REMARK    4  A    between atoms: C_6  and  O_11
REMARK    5  A    between atoms: C_14  and  C_16
REMARK    6  A    between atoms: C_14  and  C_18
REMARK                            x       y       z     vdW  Elec       q    Type
REMARK                         _______ _______ _______ _____ _____    ______ ____
ROOT
ATOM      1  C   UNL     1     -35.776  23.011   3.647  0.00  0.00    +0.008 C 
ATOM      2  C   UNL     1     -34.825  23.623   4.463  0.00  0.00    +0.040 C 
ATOM      3  C   UNL     1     -37.002  23.636   3.416  0.00  0.00    +0.040 C 
ATOM      4  C   UNL     1     -37.277  24.871   4.003  0.00  0.00    +0.171 C 
ATOM      5  C   UNL     1     -35.100  24.858   5.050  0.00  0.00    +0.171 C 
ATOM      6  C   UNL     1     -36.325  25.482   4.819  0.00  0.00    +0.202 C 
ENDROOT
BRANCH   4   7
ATOM      7  O   UNL     1     -38.478  25.469   3.769  0.00  0.00    -0.503 OA
ATOM      8  H   UNL     1     -38.581  26.047   3.039  0.00  0.00    +0.292 HD
ENDBRANCH   4   7
BRANCH   5   9
ATOM      9  O   UNL     1     -34.162  25.445   5.845  0.00  0.00    -0.503 OA
ATOM     10  H   UNL     1     -33.452  25.919   5.459  0.00  0.00    +0.292 HD
ENDBRANCH   5   9
BRANCH   6  11
ATOM     11  O   UNL     1     -36.594  26.690   5.393  0.00  0.00    -0.501 OA
ATOM     12  H   UNL     1     -36.981  26.728   6.246  0.00  0.00    +0.292 HD
ENDBRANCH   6  11
BRANCH   1  13
ATOM     13  C   UNL     1     -35.489  21.724   3.035  0.00  0.00    +0.021 C 
ATOM     14  C   UNL     1     -34.922  21.511   1.821  0.00  0.00    +0.136 C 
BRANCH  14  16
ATOM     15  N   UNL     1     -34.553  19.081   1.010  0.00  0.00    -0.190 NA
ATOM     16  C   UNL     1     -34.718  20.170   1.375  0.00  0.00    +0.111 C 
ENDBRANCH  14  16
BRANCH  14  18
ATOM     17  N   UNL     1     -34.244  23.480   0.283  0.00  0.00    -0.190 NA
ATOM     18  C   UNL     1     -34.546  22.595   0.973  0.00  0.00    +0.111 C 
ENDBRANCH  14  18
ENDBRANCH   1  13
TORSDOF 6
ENDMDL
