MODEL 1
REMARK VINA RESULT:      -6.9      0.000      0.000
REMARK  Name = 5129
REMARK  9 active torsions:
REMARK  status: ('A' for Active; 'I' for Inactive)
REMARK    1  A    between atoms: N_1  and  C1*_12
REMARK    2  A    between atoms: C_8  and  S_22
REMARK    3  A    between atoms: C2*_11  and  O2*_15
REMARK    4  A    between atoms: C3*_13  and  O3*_17
REMARK    5  A    between atoms: C4*_14  and  C5*_19
REMARK    6  A    between atoms: C5*_19  and  O5*_20
REMARK    7  A    between atoms: S_22  and  C_23
REMARK    8  A    between atoms: C_23  and  C_24
REMARK    9  A    between atoms: C_29  and  N_32
REMARK                            x       y       z     vdW  Elec       q    Type
REMARK                         _______ _______ _______ _____ _____    ______ ____
ROOT
ATOM      1  N   UNL     1     -33.921  25.847   3.622  0.00  0.00    -0.247 N 
ATOM      2  N   UNL     1     -34.355  28.035   3.660  0.00  0.00    -0.243 NA
ATOM      3  N   UNL     1     -31.681  25.884   2.683  0.00  0.00    -0.228 NA
ATOM      4  N   UNL     1     -30.947  28.168   2.227  0.00  0.00    -0.236 NA
ATOM      5  C   UNL     1     -32.810  26.463   3.117  0.00  0.00    +0.151 C 
ATOM      6  C   UNL     1     -34.820  26.834   3.933  0.00  0.00    +0.223 C 
ATOM      7  C   UNL     1     -33.099  27.818   3.150  0.00  0.00    +0.132 C 
ATOM      8  C   UNL     1     -32.115  28.683   2.682  0.00  0.00    +0.124 C 
ATOM      9  C   UNL     1     -30.805  26.820   2.255  0.00  0.00    +0.252 C 
ENDROOT
BRANCH   1  12
ATOM     10  O4* UNL     1     -34.375  24.136   5.193  0.00  0.00    -0.333 OA
ATOM     11  C2* UNL     1     -35.303  23.856   3.013  0.00  0.00    +0.187 C 
ATOM     12  C1* UNL     1     -34.123  24.411   3.802  0.00  0.00    +0.225 C 
ATOM     13  C3* UNL     1     -35.766  22.723   3.904  0.00  0.00    +0.171 C 
ATOM     14  C4* UNL     1     -35.555  23.319   5.287  0.00  0.00    +0.175 C 
BRANCH  11  15
ATOM     15  O2* UNL     1     -34.910  23.393   1.732  0.00  0.00    -0.378 OA
ATOM     16  H2* UNL     1     -35.695  23.280   1.174  0.00  0.00    +0.211 HD
ENDBRANCH  11  15
BRANCH  13  17
ATOM     17  O3* UNL     1     -37.125  22.410   3.665  0.00  0.00    -0.379 OA
ATOM     18  H3* UNL     1     -37.307  22.469   2.714  0.00  0.00    +0.211 HD
ENDBRANCH  13  17
BRANCH  14  19
ATOM     19  C5* UNL     1     -35.361  22.273   6.371  0.00  0.00    +0.169 C 
BRANCH  19  20
ATOM     20  O5* UNL     1     -35.419  20.985   5.781  0.00  0.00    -0.379 OA
ATOM     21  H5* UNL     1     -34.833  20.382   6.263  0.00  0.00    +0.211 HD
ENDBRANCH  19  20
ENDBRANCH  14  19
ENDBRANCH   1  12
BRANCH   8  22
ATOM     22  S   UNL     1     -32.382  30.422   2.678  0.00  0.00    -0.089 S 
BRANCH  22  23
ATOM     23  C   UNL     1     -32.684  30.776   4.438  0.00  0.00    +0.090 C 
BRANCH  23  24
ATOM     24  C   UNL     1     -31.519  30.382   5.304  0.00  0.00    -0.011 C 
ATOM     25  C   UNL     1     -31.734  29.572   6.412  0.00  0.00    -0.002 C 
ATOM     26  C   UNL     1     -30.245  30.831   4.984  0.00  0.00    -0.002 C 
ATOM     27  C   UNL     1     -30.653  29.206   7.214  0.00  0.00    +0.024 C 
ATOM     28  C   UNL     1     -29.165  30.465   5.786  0.00  0.00    +0.024 C 
ATOM     29  C   UNL     1     -29.368  29.652   6.901  0.00  0.00    +0.143 C 
BRANCH  29  32
ATOM     30  O   UNL     1     -27.875  30.070   8.609  0.00  0.00    -0.126 OA
ATOM     31  O   UNL     1     -27.720  28.166   7.527  0.00  0.00    -0.126 OA
ATOM     32  N   UNL     1     -28.268  29.278   7.718  0.00  0.00    +0.058 N 
ENDBRANCH  29  32
ENDBRANCH  23  24
ENDBRANCH  22  23
ENDBRANCH   8  22
TORSDOF 9
ENDMDL
MODEL 2
REMARK VINA RESULT:      -6.5      1.988      3.121
REMARK  Name = 5129
REMARK  9 active torsions:
REMARK  status: ('A' for Active; 'I' for Inactive)
REMARK    1  A    between atoms: N_1  and  C1*_12
REMARK    2  A    between atoms: C_8  and  S_22
REMARK    3  A    between atoms: C2*_11  and  O2*_15
REMARK    4  A    between atoms: C3*_13  and  O3*_17
REMARK    5  A    between atoms: C4*_14  and  C5*_19
REMARK    6  A    between atoms: C5*_19  and  O5*_20
REMARK    7  A    between atoms: S_22  and  C_23
REMARK    8  A    between atoms: C_23  and  C_24
REMARK    9  A    between atoms: C_29  and  N_32
REMARK                            x       y       z     vdW  Elec       q    Type
REMARK                         _______ _______ _______ _____ _____    ______ ____
ROOT
ATOM      1  N   UNL     1     -36.037  24.916   2.936  0.00  0.00    -0.247 N 
ATOM      2  N   UNL     1     -34.725  26.364   1.859  0.00  0.00    -0.243 NA
ATOM      3  N   UNL     1     -35.198  25.200   5.198  0.00  0.00    -0.228 NA
ATOM      4  N   UNL     1     -33.399  26.848   5.278  0.00  0.00    -0.236 NA
ATOM      5  C   UNL     1     -35.220  25.466   3.884  0.00  0.00    +0.151 C 
ATOM      6  C   UNL     1     -35.700  25.488   1.737  0.00  0.00    +0.223 C 
ATOM      7  C   UNL     1     -34.415  26.361   3.196  0.00  0.00    +0.132 C 
ATOM      8  C   UNL     1     -33.477  27.066   3.943  0.00  0.00    +0.124 C 
ATOM      9  C   UNL     1     -34.252  25.941   5.815  0.00  0.00    +0.252 C 
ENDROOT
BRANCH   1  12
ATOM     10  O4* UNL     1     -37.980  23.916   2.028  0.00  0.00    -0.333 OA
ATOM     11  C2* UNL     1     -36.535  22.492   3.283  0.00  0.00    +0.187 C 
ATOM     12  C1* UNL     1     -37.075  23.910   3.149  0.00  0.00    +0.225 C 
ATOM     13  C3* UNL     1     -37.669  21.672   2.706  0.00  0.00    +0.171 C 
ATOM     14  C4* UNL     1     -38.139  22.563   1.567  0.00  0.00    +0.175 C 
BRANCH  11  15
ATOM     15  O2* UNL     1     -36.272  22.153   4.634  0.00  0.00    -0.378 OA
ATOM     16  H2* UNL     1     -36.705  22.793   5.218  0.00  0.00    +0.211 HD
ENDBRANCH  11  15
BRANCH  13  17
ATOM     17  O3* UNL     1     -37.206  20.419   2.241  0.00  0.00    -0.379 OA
ATOM     18  H3* UNL     1     -36.238  20.435   2.177  0.00  0.00    +0.211 HD
ENDBRANCH  13  17
BRANCH  14  19
ATOM     19  C5* UNL     1     -39.588  22.328   1.177  0.00  0.00    +0.169 C 
BRANCH  19  20
ATOM     20  O5* UNL     1     -40.055  21.159   1.830  0.00  0.00    -0.379 OA
ATOM     21  H5* UNL     1     -39.962  20.398   1.236  0.00  0.00    +0.211 HD
ENDBRANCH  19  20
ENDBRANCH  14  19
ENDBRANCH   1  12
BRANCH   8  22
ATOM     22  S   UNL     1     -32.406  28.225   3.166  0.00  0.00    -0.089 S 
BRANCH  22  23
ATOM     23  C   UNL     1     -32.405  29.610   4.346  0.00  0.00    +0.090 C 
BRANCH  23  24
ATOM     24  C   UNL     1     -31.254  29.533   5.311  0.00  0.00    -0.011 C 
ATOM     25  C   UNL     1     -31.499  29.600   6.676  0.00  0.00    -0.002 C 
ATOM     26  C   UNL     1     -29.961  29.394   4.825  0.00  0.00    -0.002 C 
ATOM     27  C   UNL     1     -30.432  29.527   7.571  0.00  0.00    +0.024 C 
ATOM     28  C   UNL     1     -28.894  29.321   5.719  0.00  0.00    +0.024 C 
ATOM     29  C   UNL     1     -29.129  29.387   7.092  0.00  0.00    +0.143 C 
BRANCH  29  32
ATOM     30  O   UNL     1     -27.481  28.206   8.192  0.00  0.00    -0.126 OA
ATOM     31  O   UNL     1     -27.673  30.354   8.597  0.00  0.00    -0.126 OA
ATOM     32  N   UNL     1     -28.042  29.312   8.004  0.00  0.00    +0.058 N 
ENDBRANCH  29  32
ENDBRANCH  23  24
ENDBRANCH  22  23
ENDBRANCH   8  22
TORSDOF 9
ENDMDL
MODEL 3
REMARK VINA RESULT:      -6.4      3.794      5.569
REMARK  Name = 5129
REMARK  9 active torsions:
REMARK  status: ('A' for Active; 'I' for Inactive)
REMARK    1  A    between atoms: N_1  and  C1*_12
REMARK    2  A    between atoms: C_8  and  S_22
REMARK    3  A    between atoms: C2*_11  and  O2*_15
REMARK    4  A    between atoms: C3*_13  and  O3*_17
REMARK    5  A    between atoms: C4*_14  and  C5*_19
REMARK    6  A    between atoms: C5*_19  and  O5*_20
REMARK    7  A    between atoms: S_22  and  C_23
REMARK    8  A    between atoms: C_23  and  C_24
REMARK    9  A    between atoms: C_29  and  N_32
REMARK                            x       y       z     vdW  Elec       q    Type
REMARK                         _______ _______ _______ _____ _____    ______ ____
ROOT
ATOM      1  N   UNL     1     -35.928  21.313   2.399  0.00  0.00    -0.247 N 
ATOM      2  N   UNL     1     -36.438  23.481   2.513  0.00  0.00    -0.243 NA
ATOM      3  N   UNL     1     -35.178  20.942   4.680  0.00  0.00    -0.228 NA
ATOM      4  N   UNL     1     -35.311  22.990   6.002  0.00  0.00    -0.236 NA
ATOM      5  C   UNL     1     -35.655  21.700   3.682  0.00  0.00    +0.151 C 
ATOM      6  C   UNL     1     -36.394  22.418   1.738  0.00  0.00    +0.223 C 
ATOM      7  C   UNL     1     -35.979  23.047   3.732  0.00  0.00    +0.132 C 
ATOM      8  C   UNL     1     -35.791  23.694   4.949  0.00  0.00    +0.124 C 
ATOM      9  C   UNL     1     -35.038  21.677   5.806  0.00  0.00    +0.252 C 
ENDROOT
BRANCH   1  12
ATOM     10  O4* UNL     1     -36.960  19.600   1.134  0.00  0.00    -0.333 OA
ATOM     11  C2* UNL     1     -34.610  19.878   0.833  0.00  0.00    +0.187 C 
ATOM     12  C1* UNL     1     -35.757  19.977   1.831  0.00  0.00    +0.225 C 
ATOM     13  C3* UNL     1     -35.113  18.810  -0.113  0.00  0.00    +0.171 C 
ATOM     14  C4* UNL     1     -36.597  19.135  -0.178  0.00  0.00    +0.175 C 
BRANCH  11  15
ATOM     15  O2* UNL     1     -33.396  19.500   1.460  0.00  0.00    -0.378 OA
ATOM     16  H2* UNL     1     -32.784  20.252   1.462  0.00  0.00    +0.211 HD
ENDBRANCH  11  15
BRANCH  13  17
ATOM     17  O3* UNL     1     -34.492  18.918  -1.380  0.00  0.00    -0.379 OA
ATOM     18  H3* UNL     1     -33.980  19.740  -1.419  0.00  0.00    +0.211 HD
ENDBRANCH  13  17
BRANCH  14  19
ATOM     19  C5* UNL     1     -37.460  17.942  -0.548  0.00  0.00    +0.169 C 
BRANCH  19  20
ATOM     20  O5* UNL     1     -37.414  16.997   0.508  0.00  0.00    -0.379 OA
ATOM     21  H5* UNL     1     -38.257  17.005   0.986  0.00  0.00    +0.211 HD
ENDBRANCH  19  20
ENDBRANCH  14  19
ENDBRANCH   1  12
BRANCH   8  22
ATOM     22  S   UNL     1     -36.169  25.404   5.118  0.00  0.00    -0.089 S 
BRANCH  22  23
ATOM     23  C   UNL     1     -35.017  26.179   3.942  0.00  0.00    +0.090 C 
BRANCH  23  24
ATOM     24  C   UNL     1     -33.881  26.877   4.637  0.00  0.00    -0.011 C 
ATOM     25  C   UNL     1     -33.094  27.775   3.929  0.00  0.00    -0.002 C 
ATOM     26  C   UNL     1     -33.634  26.614   5.978  0.00  0.00    -0.002 C 
ATOM     27  C   UNL     1     -32.040  28.423   4.575  0.00  0.00    +0.024 C 
ATOM     28  C   UNL     1     -32.581  27.262   6.623  0.00  0.00    +0.024 C 
ATOM     29  C   UNL     1     -31.784  28.166   5.922  0.00  0.00    +0.143 C 
BRANCH  29  32
ATOM     30  O   UNL     1     -29.533  28.507   6.292  0.00  0.00    -0.126 OA
ATOM     31  O   UNL     1     -30.973  29.713   7.428  0.00  0.00    -0.126 OA
ATOM     32  N   UNL     1     -30.712  28.827   6.579  0.00  0.00    +0.058 N 
ENDBRANCH  29  32
ENDBRANCH  23  24
ENDBRANCH  22  23
ENDBRANCH   8  22
TORSDOF 9
ENDMDL
MODEL 4
REMARK VINA RESULT:      -6.4      1.702      2.877
REMARK  Name = 5129
REMARK  9 active torsions:
REMARK  status: ('A' for Active; 'I' for Inactive)
REMARK    1  A    between atoms: N_1  and  C1*_12
REMARK    2  A    between atoms: C_8  and  S_22
REMARK    3  A    between atoms: C2*_11  and  O2*_15
REMARK    4  A    between atoms: C3*_13  and  O3*_17
REMARK    5  A    between atoms: C4*_14  and  C5*_19
REMARK    6  A    between atoms: C5*_19  and  O5*_20
REMARK    7  A    between atoms: S_22  and  C_23
REMARK    8  A    between atoms: C_23  and  C_24
REMARK    9  A    between atoms: C_29  and  N_32
REMARK                            x       y       z     vdW  Elec       q    Type
REMARK                         _______ _______ _______ _____ _____    ______ ____
ROOT
ATOM      1  N   UNL     1     -35.056  25.291   3.267  0.00  0.00    -0.247 N 
ATOM      2  N   UNL     1     -33.228  26.569   3.267  0.00  0.00    -0.243 NA
ATOM      3  N   UNL     1     -36.591  26.761   2.091  0.00  0.00    -0.228 NA
ATOM      4  N   UNL     1     -35.510  28.859   1.468  0.00  0.00    -0.236 NA
ATOM      5  C   UNL     1     -35.401  26.446   2.622  0.00  0.00    +0.151 C 
ATOM      6  C   UNL     1     -33.742  25.415   3.636  0.00  0.00    +0.223 C 
ATOM      7  C   UNL     1     -34.254  27.224   2.632  0.00  0.00    +0.132 C 
ATOM      8  C   UNL     1     -34.337  28.474   2.026  0.00  0.00    +0.124 C 
ATOM      9  C   UNL     1     -36.549  27.992   1.535  0.00  0.00    +0.252 C 
ENDROOT
BRANCH   1  12
ATOM     10  O4* UNL     1     -35.993  23.329   2.332  0.00  0.00    -0.333 OA
ATOM     11  C2* UNL     1     -35.417  23.237   4.646  0.00  0.00    +0.187 C 
ATOM     12  C1* UNL     1     -35.917  24.137   3.522  0.00  0.00    +0.225 C 
ATOM     13  C3* UNL     1     -35.913  21.879   4.199  0.00  0.00    +0.171 C 
ATOM     14  C4* UNL     1     -35.717  21.964   2.693  0.00  0.00    +0.175 C 
BRANCH  11  15
ATOM     15  O2* UNL     1     -35.959  23.610   5.901  0.00  0.00    -0.378 OA
ATOM     16  H2* UNL     1     -36.564  22.919   6.211  0.00  0.00    +0.211 HD
ENDBRANCH  11  15
BRANCH  13  17
ATOM     17  O3* UNL     1     -35.143  20.841   4.774  0.00  0.00    -0.379 OA
ATOM     18  H3* UNL     1     -34.323  21.210   5.137  0.00  0.00    +0.211 HD
ENDBRANCH  13  17
BRANCH  14  19
ATOM     19  C5* UNL     1     -36.634  21.039   1.913  0.00  0.00    +0.169 C 
BRANCH  19  20
ATOM     20  O5* UNL     1     -36.674  19.779   2.561  0.00  0.00    -0.379 OA
ATOM     21  H5* UNL     1     -37.515  19.685   3.035  0.00  0.00    +0.211 HD
ENDBRANCH  19  20
ENDBRANCH  14  19
ENDBRANCH   1  12
BRANCH   8  22
ATOM     22  S   UNL     1     -32.939  29.541   1.986  0.00  0.00    -0.089 S 
BRANCH  22  23
ATOM     23  C   UNL     1     -32.958  30.276   3.651  0.00  0.00    +0.090 C 
BRANCH  23  24
ATOM     24  C   UNL     1     -31.875  29.716   4.531  0.00  0.00    -0.011 C 
ATOM     25  C   UNL     1     -30.850  28.971   3.964  0.00  0.00    -0.002 C 
ATOM     26  C   UNL     1     -31.914  29.953   5.899  0.00  0.00    -0.002 C 
ATOM     27  C   UNL     1     -29.844  28.452   4.781  0.00  0.00    +0.024 C 
ATOM     28  C   UNL     1     -30.909  29.434   6.715  0.00  0.00    +0.024 C 
ATOM     29  C   UNL     1     -29.874  28.685   6.157  0.00  0.00    +0.143 C 
BRANCH  29  32
ATOM     30  O   UNL     1     -28.550  26.943   6.887  0.00  0.00    -0.126 OA
ATOM     31  O   UNL     1     -28.274  28.920   7.800  0.00  0.00    -0.126 OA
ATOM     32  N   UNL     1     -28.850  28.157   6.988  0.00  0.00    +0.058 N 
ENDBRANCH  29  32
ENDBRANCH  23  24
ENDBRANCH  22  23
ENDBRANCH   8  22
TORSDOF 9
ENDMDL
MODEL 5
REMARK VINA RESULT:      -6.4      5.022      6.633
REMARK  Name = 5129
REMARK  9 active torsions:
REMARK  status: ('A' for Active; 'I' for Inactive)
REMARK    1  A    between atoms: N_1  and  C1*_12
REMARK    2  A    between atoms: C_8  and  S_22
REMARK    3  A    between atoms: C2*_11  and  O2*_15
REMARK    4  A    between atoms: C3*_13  and  O3*_17
REMARK    5  A    between atoms: C4*_14  and  C5*_19
REMARK    6  A    between atoms: C5*_19  and  O5*_20
REMARK    7  A    between atoms: S_22  and  C_23
REMARK    8  A    between atoms: C_23  and  C_24
REMARK    9  A    between atoms: C_29  and  N_32
REMARK                            x       y       z     vdW  Elec       q    Type
REMARK                         _______ _______ _______ _____ _____    ______ ____
ROOT
ATOM      1  N   UNL     1     -34.243  25.993   3.806  0.00  0.00    -0.247 N 
ATOM      2  N   UNL     1     -33.565  28.082   4.195  0.00  0.00    -0.243 NA
ATOM      3  N   UNL     1     -35.996  26.423   2.179  0.00  0.00    -0.228 NA
ATOM      4  N   UNL     1     -36.218  28.811   1.723  0.00  0.00    -0.236 NA
ATOM      5  C   UNL     1     -35.020  26.798   3.019  0.00  0.00    +0.151 C 
ATOM      6  C   UNL     1     -33.386  26.812   4.493  0.00  0.00    +0.223 C 
ATOM      7  C   UNL     1     -34.583  28.088   3.275  0.00  0.00    +0.132 C 
ATOM      8  C   UNL     1     -35.222  29.116   2.589  0.00  0.00    +0.124 C 
ATOM      9  C   UNL     1     -36.539  27.503   1.574  0.00  0.00    +0.252 C 
ENDROOT
BRANCH   1  12
ATOM     10  O4* UNL     1     -34.527  24.161   5.276  0.00  0.00    -0.333 OA
ATOM     11  C2* UNL     1     -35.431  23.916   3.082  0.00  0.00    +0.187 C 
ATOM     12  C1* UNL     1     -34.307  24.536   3.903  0.00  0.00    +0.225 C 
ATOM     13  C3* UNL     1     -35.780  22.696   3.907  0.00  0.00    +0.171 C 
ATOM     14  C4* UNL     1     -35.623  23.231   5.322  0.00  0.00    +0.175 C 
BRANCH  11  15
ATOM     15  O2* UNL     1     -35.000  23.566   1.778  0.00  0.00    -0.378 OA
ATOM     16  H2* UNL     1     -35.282  24.248   1.149  0.00  0.00    +0.211 HD
ENDBRANCH  11  15
BRANCH  13  17
ATOM     17  O3* UNL     1     -37.104  22.269   3.647  0.00  0.00    -0.379 OA
ATOM     18  H3* UNL     1     -37.497  22.832   2.962  0.00  0.00    +0.211 HD
ENDBRANCH  13  17
BRANCH  14  19
ATOM     19  C5* UNL     1     -35.327  22.149   6.345  0.00  0.00    +0.169 C 
BRANCH  19  20
ATOM     20  O5* UNL     1     -35.330  20.889   5.694  0.00  0.00    -0.379 OA
ATOM     21  H5* UNL     1     -34.905  20.972   4.826  0.00  0.00    +0.211 HD
ENDBRANCH  19  20
ENDBRANCH  14  19
ENDBRANCH   1  12
BRANCH   8  22
ATOM     22  S   UNL     1     -34.744  30.790   2.843  0.00  0.00    -0.089 S 
BRANCH  22  23
ATOM     23  C   UNL     1     -35.120  31.553   1.234  0.00  0.00    +0.090 C 
BRANCH  23  24
ATOM     24  C   UNL     1     -36.179  32.616   1.344  0.00  0.00    -0.011 C 
ATOM     25  C   UNL     1     -37.455  32.269   1.766  0.00  0.00    -0.002 C 
ATOM     26  C   UNL     1     -35.865  33.930   1.023  0.00  0.00    -0.002 C 
ATOM     27  C   UNL     1     -38.437  33.255   1.868  0.00  0.00    +0.024 C 
ATOM     28  C   UNL     1     -36.847  34.916   1.125  0.00  0.00    +0.024 C 
ATOM     29  C   UNL     1     -38.132  34.579   1.549  0.00  0.00    +0.143 C 
BRANCH  29  32
ATOM     30  O   UNL     1     -39.676  36.011   0.608  0.00  0.00    -0.126 OA
ATOM     31  O   UNL     1     -39.442  36.013   2.791  0.00  0.00    -0.126 OA
ATOM     32  N   UNL     1     -39.132  35.583   1.654  0.00  0.00    +0.058 N 
ENDBRANCH  29  32
ENDBRANCH  23  24
ENDBRANCH  22  23
ENDBRANCH   8  22
TORSDOF 9
ENDMDL
MODEL 6
REMARK VINA RESULT:      -6.4      6.112      9.620
REMARK  Name = 5129
REMARK  9 active torsions:
REMARK  status: ('A' for Active; 'I' for Inactive)
REMARK    1  A    between atoms: N_1  and  C1*_12
REMARK    2  A    between atoms: C_8  and  S_22
REMARK    3  A    between atoms: C2*_11  and  O2*_15
REMARK    4  A    between atoms: C3*_13  and  O3*_17
REMARK    5  A    between atoms: C4*_14  and  C5*_19
REMARK    6  A    between atoms: C5*_19  and  O5*_20
REMARK    7  A    between atoms: S_22  and  C_23
REMARK    8  A    between atoms: C_23  and  C_24
REMARK    9  A    between atoms: C_29  and  N_32
REMARK                            x       y       z     vdW  Elec       q    Type
REMARK                         _______ _______ _______ _____ _____    ______ ____
ROOT
ATOM      1  N   UNL     1     -37.919  24.988   3.127  0.00  0.00    -0.247 N 
ATOM      2  N   UNL     1     -38.935  25.981   1.406  0.00  0.00    -0.243 NA
ATOM      3  N   UNL     1     -38.776  22.730   2.868  0.00  0.00    -0.228 NA
ATOM      4  N   UNL     1     -40.278  22.564   0.951  0.00  0.00    -0.236 NA
ATOM      5  C   UNL     1     -38.666  24.019   2.517  0.00  0.00    +0.151 C 
ATOM      6  C   UNL     1     -38.115  26.147   2.423  0.00  0.00    +0.223 C 
ATOM      7  C   UNL     1     -39.287  24.654   1.452  0.00  0.00    +0.132 C 
ATOM      8  C   UNL     1     -40.119  23.877   0.655  0.00  0.00    +0.124 C 
ATOM      9  C   UNL     1     -39.607  22.079   2.024  0.00  0.00    +0.252 C 
ENDROOT
BRANCH   1  12
ATOM     10  O4* UNL     1     -36.719  23.440   4.456  0.00  0.00    -0.333 OA
ATOM     11  C2* UNL     1     -35.767  25.616   4.232  0.00  0.00    +0.187 C 
ATOM     12  C1* UNL     1     -37.070  24.829   4.306  0.00  0.00    +0.225 C 
ATOM     13  C3* UNL     1     -34.829  24.739   5.033  0.00  0.00    +0.171 C 
ATOM     14  C4* UNL     1     -35.295  23.348   4.629  0.00  0.00    +0.175 C 
BRANCH  11  15
ATOM     15  O2* UNL     1     -35.898  26.908   4.802  0.00  0.00    -0.378 OA
ATOM     16  H2* UNL     1     -36.061  27.556   4.100  0.00  0.00    +0.211 HD
ENDBRANCH  11  15
BRANCH  13  17
ATOM     17  O3* UNL     1     -33.481  24.971   4.671  0.00  0.00    -0.379 OA
ATOM     18  H3* UNL     1     -32.960  24.171   4.839  0.00  0.00    +0.211 HD
ENDBRANCH  13  17
BRANCH  14  19
ATOM     19  C5* UNL     1     -34.978  22.283   5.663  0.00  0.00    +0.169 C 
BRANCH  19  20
ATOM     20  O5* UNL     1     -36.175  21.926   6.335  0.00  0.00    -0.379 OA
ATOM     21  H5* UNL     1     -36.697  22.724   6.513  0.00  0.00    +0.211 HD
ENDBRANCH  19  20
ENDBRANCH  14  19
ENDBRANCH   1  12
BRANCH   8  22
ATOM     22  S   UNL     1     -40.956  24.587  -0.721  0.00  0.00    -0.089 S 
BRANCH  22  23
ATOM     23  C   UNL     1     -42.644  24.811  -0.079  0.00  0.00    +0.090 C 
BRANCH  23  24
ATOM     24  C   UNL     1     -42.721  25.909   0.946  0.00  0.00    -0.011 C 
ATOM     25  C   UNL     1     -43.340  25.666   2.164  0.00  0.00    -0.002 C 
ATOM     26  C   UNL     1     -42.169  27.151   0.661  0.00  0.00    -0.002 C 
ATOM     27  C   UNL     1     -43.410  26.685   3.115  0.00  0.00    +0.024 C 
ATOM     28  C   UNL     1     -42.239  28.169   1.611  0.00  0.00    +0.024 C 
ATOM     29  C   UNL     1     -42.859  27.937   2.838  0.00  0.00    +0.143 C 
BRANCH  29  32
ATOM     30  O   UNL     1     -43.820  29.849   3.697  0.00  0.00    -0.126 OA
ATOM     31  O   UNL     1     -42.098  28.984   4.747  0.00  0.00    -0.126 OA
ATOM     32  N   UNL     1     -42.929  28.973   3.807  0.00  0.00    +0.058 N 
ENDBRANCH  29  32
ENDBRANCH  23  24
ENDBRANCH  22  23
ENDBRANCH   8  22
TORSDOF 9
ENDMDL
MODEL 7
REMARK VINA RESULT:      -6.3      4.790      8.825
REMARK  Name = 5129
REMARK  9 active torsions:
REMARK  status: ('A' for Active; 'I' for Inactive)
REMARK    1  A    between atoms: N_1  and  C1*_12
REMARK    2  A    between atoms: C_8  and  S_22
REMARK    3  A    between atoms: C2*_11  and  O2*_15
REMARK    4  A    between atoms: C3*_13  and  O3*_17
REMARK    5  A    between atoms: C4*_14  and  C5*_19
REMARK    6  A    between atoms: C5*_19  and  O5*_20
REMARK    7  A    between atoms: S_22  and  C_23
REMARK    8  A    between atoms: C_23  and  C_24
REMARK    9  A    between atoms: C_29  and  N_32
REMARK                            x       y       z     vdW  Elec       q    Type
REMARK                         _______ _______ _______ _____ _____    ______ ____
ROOT
ATOM      1  N   UNL     1     -34.833  25.466   3.473  0.00  0.00    -0.247 N 
ATOM      2  N   UNL     1     -35.292  23.983   1.871  0.00  0.00    -0.243 NA
ATOM      3  N   UNL     1     -34.871  24.006   5.414  0.00  0.00    -0.228 NA
ATOM      4  N   UNL     1     -35.365  21.701   4.781  0.00  0.00    -0.236 NA
ATOM      5  C   UNL     1     -34.979  24.261   4.102  0.00  0.00    +0.151 C 
ATOM      6  C   UNL     1     -35.031  25.246   2.135  0.00  0.00    +0.223 C 
ATOM      7  C   UNL     1     -35.263  23.355   3.092  0.00  0.00    +0.132 C 
ATOM      8  C   UNL     1     -35.459  22.032   3.471  0.00  0.00    +0.124 C 
ATOM      9  C   UNL     1     -35.082  22.694   5.659  0.00  0.00    +0.252 C 
ENDROOT
BRANCH   1  12
ATOM     10  O4* UNL     1     -33.285  26.641   4.824  0.00  0.00    -0.333 OA
ATOM     11  C2* UNL     1     -34.361  27.893   3.102  0.00  0.00    +0.187 C 
ATOM     12  C1* UNL     1     -34.524  26.751   4.098  0.00  0.00    +0.225 C 
ATOM     13  C3* UNL     1     -33.348  28.772   3.801  0.00  0.00    +0.171 C 
ATOM     14  C4* UNL     1     -32.435  27.735   4.440  0.00  0.00    +0.175 C 
BRANCH  11  15
ATOM     15  O2* UNL     1     -35.584  28.574   2.875  0.00  0.00    -0.378 OA
ATOM     16  H2* UNL     1     -35.947  28.309   2.016  0.00  0.00    +0.211 HD
ENDBRANCH  11  15
BRANCH  13  17
ATOM     17  O3* UNL     1     -32.655  29.587   2.875  0.00  0.00    -0.379 OA
ATOM     18  H3* UNL     1     -31.737  29.281   2.799  0.00  0.00    +0.211 HD
ENDBRANCH  13  17
BRANCH  14  19
ATOM     19  C5* UNL     1     -31.696  28.254   5.660  0.00  0.00    +0.169 C 
BRANCH  19  20
ATOM     20  O5* UNL     1     -31.772  27.283   6.691  0.00  0.00    -0.379 OA
ATOM     21  H5* UNL     1     -32.670  26.918   6.725  0.00  0.00    +0.211 HD
ENDBRANCH  19  20
ENDBRANCH  14  19
ENDBRANCH   1  12
BRANCH   8  22
ATOM     22  S   UNL     1     -35.826  20.803   2.266  0.00  0.00    -0.089 S 
BRANCH  22  23
ATOM     23  C   UNL     1     -34.671  21.215   0.922  0.00  0.00    +0.090 C 
BRANCH  23  24
ATOM     24  C   UNL     1     -33.520  20.249   0.846  0.00  0.00    -0.011 C 
ATOM     25  C   UNL     1     -33.617  19.019   1.482  0.00  0.00    -0.002 C 
ATOM     26  C   UNL     1     -32.377  20.600   0.141  0.00  0.00    -0.002 C 
ATOM     27  C   UNL     1     -32.550  18.122   1.411  0.00  0.00    +0.024 C 
ATOM     28  C   UNL     1     -31.310  19.705   0.071  0.00  0.00    +0.024 C 
ATOM     29  C   UNL     1     -31.397  18.466   0.705  0.00  0.00    +0.143 C 
BRANCH  29  32
ATOM     30  O   UNL     1     -30.551  16.322   0.609  0.00  0.00    -0.126 OA
ATOM     31  O   UNL     1     -29.140  18.003   0.594  0.00  0.00    -0.126 OA
ATOM     32  N   UNL     1     -30.310  17.553   0.632  0.00  0.00    +0.058 N 
ENDBRANCH  29  32
ENDBRANCH  23  24
ENDBRANCH  22  23
ENDBRANCH   8  22
TORSDOF 9
ENDMDL
MODEL 8
REMARK VINA RESULT:      -6.3      3.535      5.466
REMARK  Name = 5129
REMARK  9 active torsions:
REMARK  status: ('A' for Active; 'I' for Inactive)
REMARK    1  A    between atoms: N_1  and  C1*_12
REMARK    2  A    between atoms: C_8  and  S_22
REMARK    3  A    between atoms: C2*_11  and  O2*_15
REMARK    4  A    between atoms: C3*_13  and  O3*_17
REMARK    5  A    between atoms: C4*_14  and  C5*_19
REMARK    6  A    between atoms: C5*_19  and  O5*_20
REMARK    7  A    between atoms: S_22  and  C_23
REMARK    8  A    between atoms: C_23  and  C_24
REMARK    9  A    between atoms: C_29  and  N_32
REMARK                            x       y       z     vdW  Elec       q    Type
REMARK                         _______ _______ _______ _____ _____    ______ ____
ROOT
ATOM      1  N   UNL     1     -35.055  25.554   3.836  0.00  0.00    -0.247 N 
ATOM      2  N   UNL     1     -34.014  27.101   2.612  0.00  0.00    -0.243 NA
ATOM      3  N   UNL     1     -34.041  25.986   6.001  0.00  0.00    -0.228 NA
ATOM      4  N   UNL     1     -32.430  27.816   5.878  0.00  0.00    -0.236 NA
ATOM      5  C   UNL     1     -34.215  26.212   4.691  0.00  0.00    +0.151 C 
ATOM      6  C   UNL     1     -34.896  26.124   2.601  0.00  0.00    +0.223 C 
ATOM      7  C   UNL     1     -33.580  27.167   3.913  0.00  0.00    +0.132 C 
ATOM      8  C   UNL     1     -32.657  27.987   4.553  0.00  0.00    +0.124 C 
ATOM      9  C   UNL     1     -33.125  26.839   6.510  0.00  0.00    +0.252 C 
ENDROOT
BRANCH   1  12
ATOM     10  O4* UNL     1     -36.790  24.161   3.029  0.00  0.00    -0.333 OA
ATOM     11  C2* UNL     1     -35.231  23.159   4.533  0.00  0.00    +0.187 C 
ATOM     12  C1* UNL     1     -35.954  24.450   4.167  0.00  0.00    +0.225 C 
ATOM     13  C3* UNL     1     -36.209  22.109   4.052  0.00  0.00    +0.171 C 
ATOM     14  C4* UNL     1     -36.736  22.746   2.775  0.00  0.00    +0.175 C 
BRANCH  11  15
ATOM     15  O2* UNL     1     -34.997  23.064   5.928  0.00  0.00    -0.378 OA
ATOM     16  H2* UNL     1     -35.532  22.345   6.297  0.00  0.00    +0.211 HD
ENDBRANCH  11  15
BRANCH  13  17
ATOM     17  O3* UNL     1     -35.553  20.881   3.798  0.00  0.00    -0.379 OA
ATOM     18  H3* UNL     1     -35.020  20.960   2.992  0.00  0.00    +0.211 HD
ENDBRANCH  13  17
BRANCH  14  19
ATOM     19  C5* UNL     1     -38.115  22.250   2.379  0.00  0.00    +0.169 C 
BRANCH  19  20
ATOM     20  O5* UNL     1     -38.080  20.837   2.268  0.00  0.00    -0.379 OA
ATOM     21  H5* UNL     1     -38.004  20.588   1.334  0.00  0.00    +0.211 HD
ENDBRANCH  19  20
ENDBRANCH  14  19
ENDBRANCH   1  12
BRANCH   8  22
ATOM     22  S   UNL     1     -31.794  29.231   3.656  0.00  0.00    -0.089 S 
BRANCH  22  23
ATOM     23  C   UNL     1     -32.572  30.761   4.260  0.00  0.00    +0.090 C 
BRANCH  23  24
ATOM     24  C   UNL     1     -33.610  31.285   3.305  0.00  0.00    -0.011 C 
ATOM     25  C   UNL     1     -33.299  32.354   2.476  0.00  0.00    -0.002 C 
ATOM     26  C   UNL     1     -34.864  30.693   3.266  0.00  0.00    -0.002 C 
ATOM     27  C   UNL     1     -34.261  32.840   1.590  0.00  0.00    +0.024 C 
ATOM     28  C   UNL     1     -35.827  31.178   2.380  0.00  0.00    +0.024 C 
ATOM     29  C   UNL     1     -35.525  32.251   1.542  0.00  0.00    +0.143 C 
BRANCH  29  32
ATOM     30  O   UNL     1     -37.678  32.306   0.715  0.00  0.00    -0.126 OA
ATOM     31  O   UNL     1     -36.169  33.606  -0.209  0.00  0.00    -0.126 OA
ATOM     32  N   UNL     1     -36.505  32.745   0.639  0.00  0.00    +0.058 N 
ENDBRANCH  29  32
ENDBRANCH  23  24
ENDBRANCH  22  23
ENDBRANCH   8  22
TORSDOF 9
ENDMDL
MODEL 9
REMARK VINA RESULT:      -6.3      1.604      2.713
REMARK  Name = 5129
REMARK  9 active torsions:
REMARK  status: ('A' for Active; 'I' for Inactive)
REMARK    1  A    between atoms: N_1  and  C1*_12
REMARK    2  A    between atoms: C_8  and  S_22
REMARK    3  A    between atoms: C2*_11  and  O2*_15
REMARK    4  A    between atoms: C3*_13  and  O3*_17
REMARK    5  A    between atoms: C4*_14  and  C5*_19
REMARK    6  A    between atoms: C5*_19  and  O5*_20
REMARK    7  A    between atoms: S_22  and  C_23
REMARK    8  A    between atoms: C_23  and  C_24
REMARK    9  A    between atoms: C_29  and  N_32
REMARK                            x       y       z     vdW  Elec       q    Type
REMARK                         _______ _______ _______ _____ _____    ______ ____
ROOT
ATOM      1  N   UNL     1     -34.409  27.161   3.284  0.00  0.00    -0.247 N 
ATOM      2  N   UNL     1     -32.328  27.956   3.402  0.00  0.00    -0.243 NA
ATOM      3  N   UNL     1     -35.499  29.016   2.156  0.00  0.00    -0.228 NA
ATOM      4  N   UNL     1     -33.922  30.818   1.683  0.00  0.00    -0.236 NA
ATOM      5  C   UNL     1     -34.441  28.395   2.697  0.00  0.00    +0.151 C 
ATOM      6  C   UNL     1     -33.119  26.944   3.691  0.00  0.00    +0.223 C 
ATOM      7  C   UNL     1     -33.142  28.871   2.780  0.00  0.00    +0.132 C 
ATOM      8  C   UNL     1     -32.898  30.132   2.246  0.00  0.00    +0.124 C 
ATOM      9  C   UNL     1     -35.141  30.226   1.673  0.00  0.00    +0.252 C 
ENDROOT
BRANCH   1  12
ATOM     10  O4* UNL     1     -35.321  25.080   2.621  0.00  0.00    -0.333 OA
ATOM     11  C2* UNL     1     -35.708  25.743   4.880  0.00  0.00    +0.187 C 
ATOM     12  C1* UNL     1     -35.531  26.239   3.450  0.00  0.00    +0.225 C 
ATOM     13  C3* UNL     1     -36.279  24.359   4.659  0.00  0.00    +0.171 C 
ATOM     14  C4* UNL     1     -35.509  23.905   3.429  0.00  0.00    +0.175 C 
BRANCH  11  15
ATOM     15  O2* UNL     1     -36.593  26.568   5.619  0.00  0.00    -0.378 OA
ATOM     16  H2* UNL     1     -36.495  26.382   6.565  0.00  0.00    +0.211 HD
ENDBRANCH  11  15
BRANCH  13  17
ATOM     17  O3* UNL     1     -36.035  23.523   5.774  0.00  0.00    -0.379 OA
ATOM     18  H3* UNL     1     -36.238  24.006   6.591  0.00  0.00    +0.211 HD
ENDBRANCH  13  17
BRANCH  14  19
ATOM     19  C5* UNL     1     -36.237  22.846   2.620  0.00  0.00    +0.169 C 
BRANCH  19  20
ATOM     20  O5* UNL     1     -37.272  22.292   3.415  0.00  0.00    -0.379 OA
ATOM     21  H5* UNL     1     -38.070  22.836   3.332  0.00  0.00    +0.211 HD
ENDBRANCH  19  20
ENDBRANCH  14  19
ENDBRANCH   1  12
BRANCH   8  22
ATOM     22  S   UNL     1     -31.284  30.829   2.301  0.00  0.00    -0.089 S 
BRANCH  22  23
ATOM     23  C   UNL     1     -31.309  31.754   3.868  0.00  0.00    +0.090 C 
BRANCH  23  24
ATOM     24  C   UNL     1     -30.485  31.087   4.935  0.00  0.00    -0.011 C 
ATOM     25  C   UNL     1     -29.129  31.369   5.028  0.00  0.00    -0.002 C 
ATOM     26  C   UNL     1     -31.091  30.200   5.813  0.00  0.00    -0.002 C 
ATOM     27  C   UNL     1     -28.364  30.751   6.018  0.00  0.00    +0.024 C 
ATOM     28  C   UNL     1     -30.328  29.582   6.803  0.00  0.00    +0.024 C 
ATOM     29  C   UNL     1     -28.965  29.858   6.906  0.00  0.00    +0.143 C 
BRANCH  29  32
ATOM     30  O   UNL     1     -27.816  29.903   8.906  0.00  0.00    -0.126 OA
ATOM     31  O   UNL     1     -27.890  28.017   7.786  0.00  0.00    -0.126 OA
ATOM     32  N   UNL     1     -28.186  29.229   7.915  0.00  0.00    +0.058 N 
ENDBRANCH  29  32
ENDBRANCH  23  24
ENDBRANCH  22  23
ENDBRANCH   8  22
TORSDOF 9
ENDMDL
