MODEL 1
REMARK VINA RESULT:      -6.6      0.000      0.000
REMARK  Name = 5281697
REMARK  5 active torsions:
REMARK  status: ('A' for Active; 'I' for Inactive)
REMARK    1  A    between atoms: C_5  and  C_12
REMARK    2  A    between atoms: C_7  and  O_20
REMARK    3  A    between atoms: C_10  and  O_22
REMARK    4  A    between atoms: C_11  and  O_24
REMARK    5  A    between atoms: C_17  and  O_18
REMARK                            x       y       z     vdW  Elec       q    Type
REMARK                         _______ _______ _______ _____ _____    ______ ____
ROOT
ATOM      1  O   UNL     1     -35.052  22.045   2.800  0.00  0.00    -0.453 OA
ATOM      2  O   UNL     1     -38.991  23.061   2.570  0.00  0.00    -0.286 OA
ATOM      3  C   UNL     1     -36.843  23.567   3.414  0.00  0.00    +0.110 C 
ATOM      4  C   UNL     1     -35.508  23.163   3.450  0.00  0.00    +0.154 C 
ATOM      5  C   UNL     1     -35.959  21.280   2.082  0.00  0.00    +0.148 C 
ATOM      6  C   UNL     1     -37.806  22.763   2.646  0.00  0.00    +0.205 C 
ATOM      7  C   UNL     1     -37.252  24.715   4.097  0.00  0.00    +0.177 C 
ATOM      8  C   UNL     1     -37.266  21.569   1.966  0.00  0.00    +0.080 C 
ATOM      9  C   UNL     1     -34.574  23.907   4.170  0.00  0.00    +0.078 C 
ATOM     10  C   UNL     1     -36.315  25.458   4.815  0.00  0.00    +0.202 C 
ATOM     11  C   UNL     1     -34.979  25.055   4.852  0.00  0.00    +0.174 C 
ENDROOT
BRANCH   5  12
ATOM     12  C   UNL     1     -35.361  20.106   1.416  0.00  0.00    +0.035 C 
ATOM     13  C   UNL     1     -36.086  19.401   0.453  0.00  0.00    +0.006 C 
ATOM     14  C   UNL     1     -34.067  19.696   1.746  0.00  0.00    +0.006 C 
ATOM     15  C   UNL     1     -35.521  18.291  -0.176  0.00  0.00    +0.037 C 
ATOM     16  C   UNL     1     -33.502  18.587   1.118  0.00  0.00    +0.037 C 
ATOM     17  C   UNL     1     -34.228  17.884   0.156  0.00  0.00    +0.134 C 
BRANCH  17  18
ATOM     18  O   UNL     1     -33.676  16.802  -0.458  0.00  0.00    -0.506 OA
ATOM     19  H   UNL     1     -34.136  15.987  -0.471  0.00  0.00    +0.292 HD
ENDBRANCH  17  18
ENDBRANCH   5  12
BRANCH   7  20
ATOM     20  O   UNL     1     -38.547  25.140   4.084  0.00  0.00    -0.503 OA
ATOM     21  H   UNL     1     -38.768  25.955   3.679  0.00  0.00    +0.292 HD
ENDBRANCH   7  20
BRANCH  10  22
ATOM     22  O   UNL     1     -36.701  26.581   5.486  0.00  0.00    -0.501 OA
ATOM     23  H   UNL     1     -36.622  26.619   6.419  0.00  0.00    +0.292 HD
ENDBRANCH  10  22
BRANCH  11  24
ATOM     24  O   UNL     1     -34.058  25.775   5.553  0.00  0.00    -0.503 OA
ATOM     25  H   UNL     1     -34.308  26.575   5.971  0.00  0.00    +0.292 HD
ENDBRANCH  11  24
TORSDOF 5
ENDMDL
MODEL 2
REMARK VINA RESULT:      -6.3      2.398      6.904
REMARK  Name = 5281697
REMARK  5 active torsions:
REMARK  status: ('A' for Active; 'I' for Inactive)
REMARK    1  A    between atoms: C_5  and  C_12
REMARK    2  A    between atoms: C_7  and  O_20
REMARK    3  A    between atoms: C_10  and  O_22
REMARK    4  A    between atoms: C_11  and  O_24
REMARK    5  A    between atoms: C_17  and  O_18
REMARK                            x       y       z     vdW  Elec       q    Type
REMARK                         _______ _______ _______ _____ _____    ______ ____
ROOT
ATOM      1  O   UNL     1     -34.779  24.228   4.067  0.00  0.00    -0.453 OA
ATOM      2  O   UNL     1     -38.541  25.569   3.264  0.00  0.00    -0.286 OA
ATOM      3  C   UNL     1     -37.005  23.774   3.208  0.00  0.00    +0.110 C 
ATOM      4  C   UNL     1     -35.702  23.380   3.509  0.00  0.00    +0.154 C 
ATOM      5  C   UNL     1     -35.158  25.534   4.336  0.00  0.00    +0.148 C 
ATOM      6  C   UNL     1     -37.413  25.157   3.500  0.00  0.00    +0.205 C 
ATOM      7  C   UNL     1     -37.903  22.869   2.639  0.00  0.00    +0.177 C 
ATOM      8  C   UNL     1     -36.384  26.029   4.098  0.00  0.00    +0.080 C 
ATOM      9  C   UNL     1     -35.290  22.075   3.243  0.00  0.00    +0.078 C 
ATOM     10  C   UNL     1     -37.488  21.563   2.375  0.00  0.00    +0.202 C 
ATOM     11  C   UNL     1     -36.184  21.167   2.676  0.00  0.00    +0.174 C 
ENDROOT
BRANCH   5  12
ATOM     12  C   UNL     1     -34.092  26.356   4.942  0.00  0.00    +0.035 C 
ATOM     13  C   UNL     1     -33.355  27.243   4.153  0.00  0.00    +0.006 C 
ATOM     14  C   UNL     1     -33.815  26.251   6.308  0.00  0.00    +0.006 C 
ATOM     15  C   UNL     1     -32.348  28.020   4.726  0.00  0.00    +0.037 C 
ATOM     16  C   UNL     1     -32.808  27.027   6.880  0.00  0.00    +0.037 C 
ATOM     17  C   UNL     1     -32.074  27.912   6.090  0.00  0.00    +0.134 C 
BRANCH  17  18
ATOM     18  O   UNL     1     -31.092  28.670   6.649  0.00  0.00    -0.506 OA
ATOM     19  H   UNL     1     -30.269  28.282   6.870  0.00  0.00    +0.292 HD
ENDBRANCH  17  18
ENDBRANCH   5  12
BRANCH   7  20
ATOM     20  O   UNL     1     -39.185  23.218   2.331  0.00  0.00    -0.503 OA
ATOM     21  H   UNL     1     -39.551  24.006   2.680  0.00  0.00    +0.292 HD
ENDBRANCH   7  20
BRANCH  10  22
ATOM     22  O   UNL     1     -38.356  20.668   1.819  0.00  0.00    -0.501 OA
ATOM     23  H   UNL     1     -38.803  20.883   1.024  0.00  0.00    +0.292 HD
ENDBRANCH  10  22
BRANCH  11  24
ATOM     24  O   UNL     1     -35.771  19.894   2.419  0.00  0.00    -0.503 OA
ATOM     25  H   UNL     1     -35.979  19.490   1.599  0.00  0.00    +0.292 HD
ENDBRANCH  11  24
TORSDOF 5
ENDMDL
MODEL 3
REMARK VINA RESULT:      -6.3      3.259      7.649
REMARK  Name = 5281697
REMARK  5 active torsions:
REMARK  status: ('A' for Active; 'I' for Inactive)
REMARK    1  A    between atoms: C_5  and  C_12
REMARK    2  A    between atoms: C_7  and  O_20
REMARK    3  A    between atoms: C_10  and  O_22
REMARK    4  A    between atoms: C_11  and  O_24
REMARK    5  A    between atoms: C_17  and  O_18
REMARK                            x       y       z     vdW  Elec       q    Type
REMARK                         _______ _______ _______ _____ _____    ______ ____
ROOT
ATOM      1  O   UNL     1     -33.886  25.201   4.952  0.00  0.00    -0.453 OA
ATOM      2  O   UNL     1     -34.840  24.816   1.010  0.00  0.00    -0.286 OA
ATOM      3  C   UNL     1     -34.817  23.846   3.165  0.00  0.00    +0.110 C 
ATOM      4  C   UNL     1     -34.467  24.044   4.500  0.00  0.00    +0.154 C 
ATOM      5  C   UNL     1     -33.631  26.214   4.041  0.00  0.00    +0.148 C 
ATOM      6  C   UNL     1     -34.556  24.921   2.196  0.00  0.00    +0.205 C 
ATOM      7  C   UNL     1     -35.405  22.646   2.760  0.00  0.00    +0.177 C 
ATOM      8  C   UNL     1     -33.928  26.145   2.732  0.00  0.00    +0.080 C 
ATOM      9  C   UNL     1     -34.704  23.041   5.439  0.00  0.00    +0.078 C 
ATOM     10  C   UNL     1     -35.643  21.644   3.701  0.00  0.00    +0.202 C 
ATOM     11  C   UNL     1     -35.293  21.841   5.038  0.00  0.00    +0.174 C 
ENDROOT
BRANCH   5  12
ATOM     12  C   UNL     1     -33.012  27.415   4.635  0.00  0.00    +0.035 C 
ATOM     13  C   UNL     1     -32.828  28.564   3.863  0.00  0.00    +0.006 C 
ATOM     14  C   UNL     1     -32.610  27.409   5.973  0.00  0.00    +0.006 C 
ATOM     15  C   UNL     1     -32.243  29.700   4.424  0.00  0.00    +0.037 C 
ATOM     16  C   UNL     1     -32.026  28.544   6.535  0.00  0.00    +0.037 C 
ATOM     17  C   UNL     1     -31.842  29.689   5.761  0.00  0.00    +0.134 C 
BRANCH  17  18
ATOM     18  O   UNL     1     -31.273  30.797   6.309  0.00  0.00    -0.506 OA
ATOM     19  H   UNL     1     -30.416  30.747   6.683  0.00  0.00    +0.292 HD
ENDBRANCH  17  18
ENDBRANCH   5  12
BRANCH   7  20
ATOM     20  O   UNL     1     -35.761  22.416   1.463  0.00  0.00    -0.503 OA
ATOM     21  H   UNL     1     -35.526  21.610   1.049  0.00  0.00    +0.292 HD
ENDBRANCH   7  20
BRANCH  10  22
ATOM     22  O   UNL     1     -36.217  20.467   3.318  0.00  0.00    -0.501 OA
ATOM     23  H   UNL     1     -37.031  20.199   3.697  0.00  0.00    +0.292 HD
ENDBRANCH  10  22
BRANCH  11  24
ATOM     24  O   UNL     1     -35.520  20.867   5.964  0.00  0.00    -0.503 OA
ATOM     25  H   UNL     1     -34.837  20.612   6.553  0.00  0.00    +0.292 HD
ENDBRANCH  11  24
TORSDOF 5
ENDMDL
MODEL 4
REMARK VINA RESULT:      -6.3      3.421      7.060
REMARK  Name = 5281697
REMARK  5 active torsions:
REMARK  status: ('A' for Active; 'I' for Inactive)
REMARK    1  A    between atoms: C_5  and  C_12
REMARK    2  A    between atoms: C_7  and  O_20
REMARK    3  A    between atoms: C_10  and  O_22
REMARK    4  A    between atoms: C_11  and  O_24
REMARK    5  A    between atoms: C_17  and  O_18
REMARK                            x       y       z     vdW  Elec       q    Type
REMARK                         _______ _______ _______ _____ _____    ______ ____
ROOT
ATOM      1  O   UNL     1     -36.183  25.909   4.002  0.00  0.00    -0.453 OA
ATOM      2  O   UNL     1     -35.559  21.895   3.685  0.00  0.00    -0.286 OA
ATOM      3  C   UNL     1     -37.014  23.725   3.339  0.00  0.00    +0.110 C 
ATOM      4  C   UNL     1     -37.162  25.104   3.474  0.00  0.00    +0.154 C 
ATOM      5  C   UNL     1     -35.000  25.322   4.424  0.00  0.00    +0.148 C 
ATOM      6  C   UNL     1     -35.757  23.099   3.777  0.00  0.00    +0.205 C 
ATOM      7  C   UNL     1     -38.044  22.954   2.795  0.00  0.00    +0.177 C 
ATOM      8  C   UNL     1     -34.737  24.007   4.338  0.00  0.00    +0.080 C 
ATOM      9  C   UNL     1     -38.343  25.723   3.066  0.00  0.00    +0.078 C 
ATOM     10  C   UNL     1     -39.225  23.575   2.386  0.00  0.00    +0.202 C 
ATOM     11  C   UNL     1     -39.374  24.956   2.521  0.00  0.00    +0.174 C 
ENDROOT
BRANCH   5  12
ATOM     12  C   UNL     1     -34.015  26.278   4.966  0.00  0.00    +0.035 C 
ATOM     13  C   UNL     1     -33.693  26.258   6.325  0.00  0.00    +0.006 C 
ATOM     14  C   UNL     1     -33.400  27.207   4.122  0.00  0.00    +0.006 C 
ATOM     15  C   UNL     1     -32.762  27.162   6.838  0.00  0.00    +0.037 C 
ATOM     16  C   UNL     1     -32.470  28.110   4.635  0.00  0.00    +0.037 C 
ATOM     17  C   UNL     1     -32.150  28.088   5.992  0.00  0.00    +0.134 C 
BRANCH  17  18
ATOM     18  O   UNL     1     -31.241  28.969   6.492  0.00  0.00    -0.506 OA
ATOM     19  H   UNL     1     -31.171  29.828   6.126  0.00  0.00    +0.292 HD
ENDBRANCH  17  18
ENDBRANCH   5  12
BRANCH   7  20
ATOM     20  O   UNL     1     -37.936  21.603   2.647  0.00  0.00    -0.503 OA
ATOM     21  H   UNL     1     -37.090  21.207   2.576  0.00  0.00    +0.292 HD
ENDBRANCH   7  20
BRANCH  10  22
ATOM     22  O   UNL     1     -40.239  22.834   1.854  0.00  0.00    -0.501 OA
ATOM     23  H   UNL     1     -40.889  22.460   2.415  0.00  0.00    +0.292 HD
ENDBRANCH  10  22
BRANCH  11  24
ATOM     24  O   UNL     1     -40.525  25.570   2.126  0.00  0.00    -0.503 OA
ATOM     25  H   UNL     1     -40.678  25.737   1.216  0.00  0.00    +0.292 HD
ENDBRANCH  11  24
TORSDOF 5
ENDMDL
MODEL 5
REMARK VINA RESULT:      -6.2      2.917      6.794
REMARK  Name = 5281697
REMARK  5 active torsions:
REMARK  status: ('A' for Active; 'I' for Inactive)
REMARK    1  A    between atoms: C_5  and  C_12
REMARK    2  A    between atoms: C_7  and  O_20
REMARK    3  A    between atoms: C_10  and  O_22
REMARK    4  A    between atoms: C_11  and  O_24
REMARK    5  A    between atoms: C_17  and  O_18
REMARK                            x       y       z     vdW  Elec       q    Type
REMARK                         _______ _______ _______ _____ _____    ______ ____
ROOT
ATOM      1  O   UNL     1     -36.651  24.751   3.453  0.00  0.00    -0.453 OA
ATOM      2  O   UNL     1     -35.420  20.873   3.239  0.00  0.00    -0.286 OA
ATOM      3  C   UNL     1     -37.137  22.449   2.850  0.00  0.00    +0.110 C 
ATOM      4  C   UNL     1     -37.494  23.793   2.950  0.00  0.00    +0.154 C 
ATOM      5  C   UNL     1     -35.393  24.363   3.888  0.00  0.00    +0.148 C 
ATOM      6  C   UNL     1     -35.800  22.035   3.301  0.00  0.00    +0.205 C 
ATOM      7  C   UNL     1     -38.037  21.517   2.329  0.00  0.00    +0.177 C 
ATOM      8  C   UNL     1     -34.932  23.102   3.836  0.00  0.00    +0.080 C 
ATOM      9  C   UNL     1     -38.755  24.213   2.528  0.00  0.00    +0.078 C 
ATOM     10  C   UNL     1     -39.298  21.939   1.907  0.00  0.00    +0.202 C 
ATOM     11  C   UNL     1     -39.657  23.284   2.007  0.00  0.00    +0.174 C 
ENDROOT
BRANCH   5  12
ATOM     12  C   UNL     1     -34.566  25.472   4.403  0.00  0.00    +0.035 C 
ATOM     13  C   UNL     1     -34.046  26.426   3.526  0.00  0.00    +0.006 C 
ATOM     14  C   UNL     1     -34.301  25.573   5.772  0.00  0.00    +0.006 C 
ATOM     15  C   UNL     1     -33.265  27.475   4.013  0.00  0.00    +0.037 C 
ATOM     16  C   UNL     1     -33.521  26.621   6.259  0.00  0.00    +0.037 C 
ATOM     17  C   UNL     1     -33.003  27.572   5.380  0.00  0.00    +0.134 C 
BRANCH  17  18
ATOM     18  O   UNL     1     -32.242  28.595   5.856  0.00  0.00    -0.506 OA
ATOM     19  H   UNL     1     -32.247  28.796   6.770  0.00  0.00    +0.292 HD
ENDBRANCH  17  18
ENDBRANCH   5  12
BRANCH   7  20
ATOM     20  O   UNL     1     -37.723  20.194   2.216  0.00  0.00    -0.503 OA
ATOM     21  H   UNL     1     -37.845  19.621   2.946  0.00  0.00    +0.292 HD
ENDBRANCH   7  20
BRANCH  10  22
ATOM     22  O   UNL     1     -40.186  21.038   1.397  0.00  0.00    -0.501 OA
ATOM     23  H   UNL     1     -40.346  20.232   1.847  0.00  0.00    +0.292 HD
ENDBRANCH  10  22
BRANCH  11  24
ATOM     24  O   UNL     1     -40.887  23.705   1.598  0.00  0.00    -0.503 OA
ATOM     25  H   UNL     1     -41.659  23.288   1.929  0.00  0.00    +0.292 HD
ENDBRANCH  11  24
TORSDOF 5
ENDMDL
MODEL 6
REMARK VINA RESULT:      -6.2      1.684      2.553
REMARK  Name = 5281697
REMARK  5 active torsions:
REMARK  status: ('A' for Active; 'I' for Inactive)
REMARK    1  A    between atoms: C_5  and  C_12
REMARK    2  A    between atoms: C_7  and  O_20
REMARK    3  A    between atoms: C_10  and  O_22
REMARK    4  A    between atoms: C_11  and  O_24
REMARK    5  A    between atoms: C_17  and  O_18
REMARK                            x       y       z     vdW  Elec       q    Type
REMARK                         _______ _______ _______ _____ _____    ______ ____
ROOT
ATOM      1  O   UNL     1     -35.243  22.252   2.173  0.00  0.00    -0.453 OA
ATOM      2  O   UNL     1     -38.885  20.893   0.954  0.00  0.00    -0.286 OA
ATOM      3  C   UNL     1     -37.658  22.509   2.165  0.00  0.00    +0.110 C 
ATOM      4  C   UNL     1     -36.381  22.920   2.545  0.00  0.00    +0.154 C 
ATOM      5  C   UNL     1     -35.369  21.115   1.389  0.00  0.00    +0.148 C 
ATOM      6  C   UNL     1     -37.796  21.309   1.326  0.00  0.00    +0.205 C 
ATOM      7  C   UNL     1     -38.783  23.228   2.575  0.00  0.00    +0.177 C 
ATOM      8  C   UNL     1     -36.542  20.625   0.954  0.00  0.00    +0.080 C 
ATOM      9  C   UNL     1     -36.223  24.056   3.339  0.00  0.00    +0.078 C 
ATOM     10  C   UNL     1     -38.622  24.364   3.368  0.00  0.00    +0.202 C 
ATOM     11  C   UNL     1     -37.344  24.777   3.750  0.00  0.00    +0.174 C 
ENDROOT
BRANCH   5  12
ATOM     12  C   UNL     1     -34.083  20.480   1.040  0.00  0.00    +0.035 C 
ATOM     13  C   UNL     1     -33.764  19.218   1.546  0.00  0.00    +0.006 C 
ATOM     14  C   UNL     1     -33.180  21.139   0.201  0.00  0.00    +0.006 C 
ATOM     15  C   UNL     1     -32.548  18.618   1.216  0.00  0.00    +0.037 C 
ATOM     16  C   UNL     1     -31.965  20.539  -0.129  0.00  0.00    +0.037 C 
ATOM     17  C   UNL     1     -31.649  19.278   0.378  0.00  0.00    +0.134 C 
BRANCH  17  18
ATOM     18  O   UNL     1     -30.464  18.692   0.055  0.00  0.00    -0.506 OA
ATOM     19  H   UNL     1     -30.079  18.846  -0.784  0.00  0.00    +0.292 HD
ENDBRANCH  17  18
ENDBRANCH   5  12
BRANCH   7  20
ATOM     20  O   UNL     1     -40.047  22.856   2.222  0.00  0.00    -0.503 OA
ATOM     21  H   UNL     1     -40.720  22.813   2.871  0.00  0.00    +0.292 HD
ENDBRANCH   7  20
BRANCH  10  22
ATOM     22  O   UNL     1     -39.712  25.075   3.775  0.00  0.00    -0.501 OA
ATOM     23  H   UNL     1     -40.052  24.957   4.640  0.00  0.00    +0.292 HD
ENDBRANCH  10  22
BRANCH  11  24
ATOM     24  O   UNL     1     -37.178  25.885   4.526  0.00  0.00    -0.503 OA
ATOM     25  H   UNL     1     -37.106  25.798   5.457  0.00  0.00    +0.292 HD
ENDBRANCH  11  24
TORSDOF 5
ENDMDL
MODEL 7
REMARK VINA RESULT:      -6.0      3.787      6.053
REMARK  Name = 5281697
REMARK  5 active torsions:
REMARK  status: ('A' for Active; 'I' for Inactive)
REMARK    1  A    between atoms: C_5  and  C_12
REMARK    2  A    between atoms: C_7  and  O_20
REMARK    3  A    between atoms: C_10  and  O_22
REMARK    4  A    between atoms: C_11  and  O_24
REMARK    5  A    between atoms: C_17  and  O_18
REMARK                            x       y       z     vdW  Elec       q    Type
REMARK                         _______ _______ _______ _____ _____    ______ ____
ROOT
ATOM      1  O   UNL     1     -33.352  26.265   4.964  0.00  0.00    -0.453 OA
ATOM      2  O   UNL     1     -33.752  28.863   1.851  0.00  0.00    -0.286 OA
ATOM      3  C   UNL     1     -32.944  28.473   4.037  0.00  0.00    +0.110 C 
ATOM      4  C   UNL     1     -32.841  27.534   5.063  0.00  0.00    +0.154 C 
ATOM      5  C   UNL     1     -34.005  25.904   3.795  0.00  0.00    +0.148 C 
ATOM      6  C   UNL     1     -33.628  28.091   2.792  0.00  0.00    +0.205 C 
ATOM      7  C   UNL     1     -32.405  29.752   4.193  0.00  0.00    +0.177 C 
ATOM      8  C   UNL     1     -34.162  26.715   2.736  0.00  0.00    +0.080 C 
ATOM      9  C   UNL     1     -32.196  27.870   6.253  0.00  0.00    +0.078 C 
ATOM     10  C   UNL     1     -31.760  30.085   5.385  0.00  0.00    +0.202 C 
ATOM     11  C   UNL     1     -31.656  29.146   6.412  0.00  0.00    +0.174 C 
ENDROOT
BRANCH   5  12
ATOM     12  C   UNL     1     -34.508  24.516   3.792  0.00  0.00    +0.035 C 
ATOM     13  C   UNL     1     -34.731  23.853   2.583  0.00  0.00    +0.006 C 
ATOM     14  C   UNL     1     -34.763  23.859   4.999  0.00  0.00    +0.006 C 
ATOM     15  C   UNL     1     -35.206  22.541   2.580  0.00  0.00    +0.037 C 
ATOM     16  C   UNL     1     -35.238  22.548   4.996  0.00  0.00    +0.037 C 
ATOM     17  C   UNL     1     -35.460  21.889   3.788  0.00  0.00    +0.134 C 
BRANCH  17  18
ATOM     18  O   UNL     1     -35.923  20.609   3.785  0.00  0.00    -0.506 OA
ATOM     19  H   UNL     1     -35.502  19.960   3.257  0.00  0.00    +0.292 HD
ENDBRANCH  17  18
ENDBRANCH   5  12
BRANCH   7  20
ATOM     20  O   UNL     1     -32.487  30.696   3.212  0.00  0.00    -0.503 OA
ATOM     21  H   UNL     1     -31.797  30.779   2.585  0.00  0.00    +0.292 HD
ENDBRANCH   7  20
BRANCH  10  22
ATOM     22  O   UNL     1     -31.229  31.331   5.550  0.00  0.00    -0.501 OA
ATOM     23  H   UNL     1     -31.701  32.084   5.252  0.00  0.00    +0.292 HD
ENDBRANCH  10  22
BRANCH  11  24
ATOM     24  O   UNL     1     -31.029  29.465   7.580  0.00  0.00    -0.503 OA
ATOM     25  H   UNL     1     -30.590  30.288   7.666  0.00  0.00    +0.292 HD
ENDBRANCH  11  24
TORSDOF 5
ENDMDL
MODEL 8
REMARK VINA RESULT:      -6.0      1.606      2.874
REMARK  Name = 5281697
REMARK  5 active torsions:
REMARK  status: ('A' for Active; 'I' for Inactive)
REMARK    1  A    between atoms: C_5  and  C_12
REMARK    2  A    between atoms: C_7  and  O_20
REMARK    3  A    between atoms: C_10  and  O_22
REMARK    4  A    between atoms: C_11  and  O_24
REMARK    5  A    between atoms: C_17  and  O_18
REMARK                            x       y       z     vdW  Elec       q    Type
REMARK                         _______ _______ _______ _____ _____    ______ ____
ROOT
ATOM      1  O   UNL     1     -36.380  21.959   1.187  0.00  0.00    -0.453 OA
ATOM      2  O   UNL     1     -35.977  22.781   5.157  0.00  0.00    -0.286 OA
ATOM      3  C   UNL     1     -36.852  23.432   3.060  0.00  0.00    +0.110 C 
ATOM      4  C   UNL     1     -36.952  23.090   1.712  0.00  0.00    +0.154 C 
ATOM      5  C   UNL     1     -35.666  21.124   2.033  0.00  0.00    +0.148 C 
ATOM      6  C   UNL     1     -36.103  22.544   3.963  0.00  0.00    +0.205 C 
ATOM      7  C   UNL     1     -37.454  24.597   3.540  0.00  0.00    +0.177 C 
ATOM      8  C   UNL     1     -35.505  21.341   3.349  0.00  0.00    +0.080 C 
ATOM      9  C   UNL     1     -37.657  23.914   0.835  0.00  0.00    +0.078 C 
ATOM     10  C   UNL     1     -38.159  25.419   2.661  0.00  0.00    +0.202 C 
ATOM     11  C   UNL     1     -38.261  25.078   1.311  0.00  0.00    +0.174 C 
ENDROOT
BRANCH   5  12
ATOM     12  C   UNL     1     -35.101  19.935   1.367  0.00  0.00    +0.035 C 
ATOM     13  C   UNL     1     -33.826  19.478   1.709  0.00  0.00    +0.006 C 
ATOM     14  C   UNL     1     -35.839  19.260   0.390  0.00  0.00    +0.006 C 
ATOM     15  C   UNL     1     -33.292  18.353   1.079  0.00  0.00    +0.037 C 
ATOM     16  C   UNL     1     -35.306  18.136  -0.239  0.00  0.00    +0.037 C 
ATOM     17  C   UNL     1     -34.032  17.682   0.105  0.00  0.00    +0.134 C 
BRANCH  17  18
ATOM     18  O   UNL     1     -33.512  16.585  -0.509  0.00  0.00    -0.506 OA
ATOM     19  H   UNL     1     -33.814  15.730  -0.274  0.00  0.00    +0.292 HD
ENDBRANCH  17  18
ENDBRANCH   5  12
BRANCH   7  20
ATOM     20  O   UNL     1     -37.377  24.963   4.852  0.00  0.00    -0.503 OA
ATOM     21  H   UNL     1     -38.155  25.011   5.370  0.00  0.00    +0.292 HD
ENDBRANCH   7  20
BRANCH  10  22
ATOM     22  O   UNL     1     -38.752  26.560   3.117  0.00  0.00    -0.501 OA
ATOM     23  H   UNL     1     -39.677  26.578   3.267  0.00  0.00    +0.292 HD
ENDBRANCH  10  22
BRANCH  11  24
ATOM     24  O   UNL     1     -38.947  25.876   0.446  0.00  0.00    -0.503 OA
ATOM     25  H   UNL     1     -38.522  26.211  -0.320  0.00  0.00    +0.292 HD
ENDBRANCH  11  24
TORSDOF 5
ENDMDL
MODEL 9
REMARK VINA RESULT:      -6.0      2.332      3.961
REMARK  Name = 5281697
REMARK  5 active torsions:
REMARK  status: ('A' for Active; 'I' for Inactive)
REMARK    1  A    between atoms: C_5  and  C_12
REMARK    2  A    between atoms: C_7  and  O_20
REMARK    3  A    between atoms: C_10  and  O_22
REMARK    4  A    between atoms: C_11  and  O_24
REMARK    5  A    between atoms: C_17  and  O_18
REMARK                            x       y       z     vdW  Elec       q    Type
REMARK                         _______ _______ _______ _____ _____    ______ ____
ROOT
ATOM      1  O   UNL     1     -34.962  20.888   1.620  0.00  0.00    -0.453 OA
ATOM      2  O   UNL     1     -38.002  18.964  -0.292  0.00  0.00    -0.286 OA
ATOM      3  C   UNL     1     -37.340  20.713   1.152  0.00  0.00    +0.110 C 
ATOM      4  C   UNL     1     -36.253  21.325   1.776  0.00  0.00    +0.154 C 
ATOM      5  C   UNL     1     -34.731  19.785   0.813  0.00  0.00    +0.148 C 
ATOM      6  C   UNL     1     -37.097  19.548   0.288  0.00  0.00    +0.205 C 
ATOM      7  C   UNL     1     -38.633  21.201   1.348  0.00  0.00    +0.177 C 
ATOM      8  C   UNL     1     -35.691  19.115   0.154  0.00  0.00    +0.080 C 
ATOM      9  C   UNL     1     -36.455  22.432   2.600  0.00  0.00    +0.078 C 
ATOM     10  C   UNL     1     -38.833  22.309   2.171  0.00  0.00    +0.202 C 
ATOM     11  C   UNL     1     -37.746  22.923   2.796  0.00  0.00    +0.174 C 
ENDROOT
BRANCH   5  12
ATOM     12  C   UNL     1     -33.308  19.404   0.709  0.00  0.00    +0.035 C 
ATOM     13  C   UNL     1     -32.852  18.225   1.303  0.00  0.00    +0.006 C 
ATOM     14  C   UNL     1     -32.412  20.222   0.016  0.00  0.00    +0.006 C 
ATOM     15  C   UNL     1     -31.507  17.866   1.205  0.00  0.00    +0.037 C 
ATOM     16  C   UNL     1     -31.068  19.863  -0.083  0.00  0.00    +0.037 C 
ATOM     17  C   UNL     1     -30.615  18.685   0.511  0.00  0.00    +0.134 C 
BRANCH  17  18
ATOM     18  O   UNL     1     -29.304  18.334   0.415  0.00  0.00    -0.506 OA
ATOM     19  H   UNL     1     -29.063  17.539  -0.018  0.00  0.00    +0.292 HD
ENDBRANCH  17  18
ENDBRANCH   5  12
BRANCH   7  20
ATOM     20  O   UNL     1     -39.719  20.628   0.754  0.00  0.00    -0.503 OA
ATOM     21  H   UNL     1     -40.175  19.933   1.186  0.00  0.00    +0.292 HD
ENDBRANCH   7  20
BRANCH  10  22
ATOM     22  O   UNL     1     -40.092  22.796   2.371  0.00  0.00    -0.501 OA
ATOM     23  H   UNL     1     -40.427  22.885   3.241  0.00  0.00    +0.292 HD
ENDBRANCH  10  22
BRANCH  11  24
ATOM     24  O   UNL     1     -37.933  24.005   3.604  0.00  0.00    -0.503 OA
ATOM     25  H   UNL     1     -37.194  24.447   3.975  0.00  0.00    +0.292 HD
ENDBRANCH  11  24
TORSDOF 5
ENDMDL
