MODEL 1
REMARK VINA RESULT:      -5.7      0.000      0.000
REMARK  Name = 193351
REMARK  9 active torsions:
REMARK  status: ('A' for Active; 'I' for Inactive)
REMARK    1  A    between atoms: C_1  and  S_7
REMARK    2  A    between atoms: C_4  and  N_19
REMARK    3  A    between atoms: C_6  and  C_21
REMARK    4  A    between atoms: S_7  and  N_10
REMARK    5  A    between atoms: N_10  and  C_11
REMARK    6  A    between atoms: N_10  and  C_14
REMARK    7  A    between atoms: C_11  and  C_12
REMARK    8  A    between atoms: C_14  and  C_15
REMARK    9  A    between atoms: C_21  and  O_22
REMARK                            x       y       z     vdW  Elec       q    Type
REMARK                         _______ _______ _______ _____ _____    ______ ____
ROOT
ATOM      1  C   UNL     1     -35.079  25.112   3.964  0.00  0.00    +0.124 C 
ATOM      2  C   UNL     1     -34.103  25.750   3.220  0.00  0.00    +0.044 C 
ATOM      3  C   UNL     1     -35.204  25.315   5.327  0.00  0.00    +0.020 C 
ATOM      4  C   UNL     1     -33.221  26.620   3.861  0.00  0.00    +0.150 C 
ATOM      5  C   UNL     1     -34.322  26.185   5.967  0.00  0.00    +0.009 C 
ATOM      6  C   UNL     1     -33.331  26.838   5.234  0.00  0.00    +0.098 C 
ENDROOT
BRANCH   1   7
ATOM      7  S   UNL     1     -36.198  24.006   3.153  0.00  0.00    +0.063 S 
ATOM      8  O   UNL     1     -37.355  23.854   4.015  0.00  0.00    -0.153 OA
ATOM      9  O   UNL     1     -36.379  24.495   1.798  0.00  0.00    -0.153 OA
BRANCH   7  10
ATOM     10  N   UNL     1     -35.309  22.529   3.118  0.00  0.00    -0.156 NA
BRANCH  10  11
ATOM     11  C   UNL     1     -35.007  21.935   1.790  0.00  0.00    +0.096 C 
BRANCH  11  12
ATOM     12  C   UNL     1     -35.152  20.419   1.843  0.00  0.00    +0.019 C 
ATOM     13  C   UNL     1     -33.898  19.691   1.377  0.00  0.00    +0.002 C 
ENDBRANCH  11  12
ENDBRANCH  10  11
BRANCH  10  14
ATOM     14  C   UNL     1     -35.644  21.494   4.127  0.00  0.00    +0.096 C 
BRANCH  14  15
ATOM     15  C   UNL     1     -34.774  21.659   5.366  0.00  0.00    +0.019 C 
ATOM     16  C   UNL     1     -35.577  22.037   6.603  0.00  0.00    +0.002 C 
ENDBRANCH  14  15
ENDBRANCH  10  14
ENDBRANCH   7  10
ENDBRANCH   1   7
BRANCH   4  19
ATOM     17  O   UNL     1     -32.498  28.355   2.525  0.00  0.00    -0.126 OA
ATOM     18  O   UNL     1     -31.084  26.746   3.003  0.00  0.00    -0.126 OA
ATOM     19  N   UNL     1     -32.218  27.272   3.091  0.00  0.00    +0.058 N 
ENDBRANCH   4  19
BRANCH   6  21
ATOM     20  O   UNL     1     -32.419  28.969   5.829  0.00  0.00    -0.245 OA
ATOM     21  C   UNL     1     -32.428  27.740   5.938  0.00  0.00    +0.340 C 
BRANCH  21  22
ATOM     22  O   UNL     1     -31.567  27.076   6.755  0.00  0.00    -0.477 OA
ATOM     23  H   UNL     1     -30.711  27.420   6.913  0.00  0.00    +0.295 HD
ENDBRANCH  21  22
ENDBRANCH   6  21
TORSDOF 9
ENDMDL
MODEL 2
REMARK VINA RESULT:      -5.4      0.759      2.363
REMARK  Name = 193351
REMARK  9 active torsions:
REMARK  status: ('A' for Active; 'I' for Inactive)
REMARK    1  A    between atoms: C_1  and  S_7
REMARK    2  A    between atoms: C_4  and  N_19
REMARK    3  A    between atoms: C_6  and  C_21
REMARK    4  A    between atoms: S_7  and  N_10
REMARK    5  A    between atoms: N_10  and  C_11
REMARK    6  A    between atoms: N_10  and  C_14
REMARK    7  A    between atoms: C_11  and  C_12
REMARK    8  A    between atoms: C_14  and  C_15
REMARK    9  A    between atoms: C_21  and  O_22
REMARK                            x       y       z     vdW  Elec       q    Type
REMARK                         _______ _______ _______ _____ _____    ______ ____
ROOT
ATOM      1  C   UNL     1     -35.660  24.995   3.771  0.00  0.00    +0.124 C 
ATOM      2  C   UNL     1     -34.573  25.398   3.017  0.00  0.00    +0.044 C 
ATOM      3  C   UNL     1     -35.806  25.371   5.094  0.00  0.00    +0.020 C 
ATOM      4  C   UNL     1     -33.599  26.204   3.605  0.00  0.00    +0.150 C 
ATOM      5  C   UNL     1     -34.832  26.176   5.683  0.00  0.00    +0.009 C 
ATOM      6  C   UNL     1     -33.729  26.593   4.939  0.00  0.00    +0.098 C 
ENDROOT
BRANCH   1   7
ATOM      7  S   UNL     1     -36.897  23.972   3.025  0.00  0.00    +0.063 S 
ATOM      8  O   UNL     1     -38.126  24.169   3.770  0.00  0.00    -0.153 OA
ATOM      9  O   UNL     1     -36.876  24.242   1.599  0.00  0.00    -0.153 OA
BRANCH   7  10
ATOM     10  N   UNL     1     -36.296  22.382   3.318  0.00  0.00    -0.156 NA
BRANCH  10  11
ATOM     11  C   UNL     1     -35.049  22.248   4.113  0.00  0.00    +0.096 C 
BRANCH  11  12
ATOM     12  C   UNL     1     -35.290  21.369   5.334  0.00  0.00    +0.019 C 
ATOM     13  C   UNL     1     -35.368  22.168   6.628  0.00  0.00    +0.002 C 
ENDBRANCH  11  12
ENDBRANCH  10  11
BRANCH  10  14
ATOM     14  C   UNL     1     -36.352  21.404   2.203  0.00  0.00    +0.096 C 
BRANCH  14  15
ATOM     15  C   UNL     1     -34.974  21.234   1.576  0.00  0.00    +0.019 C 
ATOM     16  C   UNL     1     -34.490  19.792   1.599  0.00  0.00    +0.002 C 
ENDBRANCH  14  15
ENDBRANCH  10  14
ENDBRANCH   7  10
ENDBRANCH   1   7
BRANCH   4  19
ATOM     17  O   UNL     1     -32.522  27.729   2.252  0.00  0.00    -0.126 OA
ATOM     18  O   UNL     1     -31.493  25.851   2.736  0.00  0.00    -0.126 OA
ATOM     19  N   UNL     1     -32.482  26.615   2.825  0.00  0.00    +0.058 N 
ENDBRANCH   4  19
BRANCH   6  21
ATOM     20  O   UNL     1     -31.927  27.055   6.444  0.00  0.00    -0.245 OA
ATOM     21  C   UNL     1     -32.731  27.434   5.588  0.00  0.00    +0.340 C 
BRANCH  21  22
ATOM     22  O   UNL     1     -32.771  28.719   5.146  0.00  0.00    -0.477 OA
ATOM     23  H   UNL     1     -33.306  28.945   4.411  0.00  0.00    +0.295 HD
ENDBRANCH  21  22
ENDBRANCH   6  21
TORSDOF 9
ENDMDL
MODEL 3
REMARK VINA RESULT:      -5.2      2.220      3.004
REMARK  Name = 193351
REMARK  9 active torsions:
REMARK  status: ('A' for Active; 'I' for Inactive)
REMARK    1  A    between atoms: C_1  and  S_7
REMARK    2  A    between atoms: C_4  and  N_19
REMARK    3  A    between atoms: C_6  and  C_21
REMARK    4  A    between atoms: S_7  and  N_10
REMARK    5  A    between atoms: N_10  and  C_11
REMARK    6  A    between atoms: N_10  and  C_14
REMARK    7  A    between atoms: C_11  and  C_12
REMARK    8  A    between atoms: C_14  and  C_15
REMARK    9  A    between atoms: C_21  and  O_22
REMARK                            x       y       z     vdW  Elec       q    Type
REMARK                         _______ _______ _______ _____ _____    ______ ____
ROOT
ATOM      1  C   UNL     1     -34.891  24.369   4.509  0.00  0.00    +0.124 C 
ATOM      2  C   UNL     1     -34.108  24.715   3.423  0.00  0.00    +0.044 C 
ATOM      3  C   UNL     1     -34.942  25.153   5.648  0.00  0.00    +0.020 C 
ATOM      4  C   UNL     1     -33.350  25.884   3.478  0.00  0.00    +0.150 C 
ATOM      5  C   UNL     1     -34.184  26.322   5.702  0.00  0.00    +0.009 C 
ATOM      6  C   UNL     1     -33.389  26.688   4.617  0.00  0.00    +0.098 C 
ENDROOT
BRANCH   1   7
ATOM      7  S   UNL     1     -35.853  22.885   4.442  0.00  0.00    +0.063 S 
ATOM      8  O   UNL     1     -35.096  21.913   3.676  0.00  0.00    -0.153 OA
ATOM      9  O   UNL     1     -36.250  22.567   5.802  0.00  0.00    -0.153 OA
BRANCH   7  10
ATOM     10  N   UNL     1     -37.238  23.375   3.539  0.00  0.00    -0.156 NA
BRANCH  10  11
ATOM     11  C   UNL     1     -37.328  22.944   2.120  0.00  0.00    +0.096 C 
BRANCH  11  12
ATOM     12  C   UNL     1     -38.138  21.659   2.006  0.00  0.00    +0.019 C 
ATOM     13  C   UNL     1     -39.636  21.914   1.909  0.00  0.00    +0.002 C 
ENDBRANCH  11  12
ENDBRANCH  10  11
BRANCH  10  14
ATOM     14  C   UNL     1     -37.737  24.759   3.732  0.00  0.00    +0.096 C 
BRANCH  14  15
ATOM     15  C   UNL     1     -37.870  25.467   2.390  0.00  0.00    +0.019 C 
ATOM     16  C   UNL     1     -36.928  26.654   2.254  0.00  0.00    +0.002 C 
ENDBRANCH  14  15
ENDBRANCH  10  14
ENDBRANCH   7  10
ENDBRANCH   1   7
BRANCH   4  19
ATOM     17  O   UNL     1     -33.057  26.905   1.431  0.00  0.00    -0.126 OA
ATOM     18  O   UNL     1     -31.348  25.864   2.333  0.00  0.00    -0.126 OA
ATOM     19  N   UNL     1     -32.545  26.235   2.358  0.00  0.00    +0.058 N 
ENDBRANCH   4  19
BRANCH   6  21
ATOM     20  O   UNL     1     -32.993  29.032   4.351  0.00  0.00    -0.245 OA
ATOM     21  C   UNL     1     -32.610  27.916   4.711  0.00  0.00    +0.340 C 
BRANCH  21  22
ATOM     22  O   UNL     1     -31.380  27.709   5.252  0.00  0.00    -0.477 OA
ATOM     23  H   UNL     1     -30.769  28.417   5.313  0.00  0.00    +0.295 HD
ENDBRANCH  21  22
ENDBRANCH   6  21
TORSDOF 9
ENDMDL
MODEL 4
REMARK VINA RESULT:      -5.1      3.252      6.938
REMARK  Name = 193351
REMARK  9 active torsions:
REMARK  status: ('A' for Active; 'I' for Inactive)
REMARK    1  A    between atoms: C_1  and  S_7
REMARK    2  A    between atoms: C_4  and  N_19
REMARK    3  A    between atoms: C_6  and  C_21
REMARK    4  A    between atoms: S_7  and  N_10
REMARK    5  A    between atoms: N_10  and  C_11
REMARK    6  A    between atoms: N_10  and  C_14
REMARK    7  A    between atoms: C_11  and  C_12
REMARK    8  A    between atoms: C_14  and  C_15
REMARK    9  A    between atoms: C_21  and  O_22
REMARK                            x       y       z     vdW  Elec       q    Type
REMARK                         _______ _______ _______ _____ _____    ______ ____
ROOT
ATOM      1  C   UNL     1     -33.819  27.018   4.539  0.00  0.00    +0.124 C 
ATOM      2  C   UNL     1     -34.436  27.187   3.313  0.00  0.00    +0.044 C 
ATOM      3  C   UNL     1     -34.387  26.251   5.540  0.00  0.00    +0.020 C 
ATOM      4  C   UNL     1     -35.664  26.568   3.080  0.00  0.00    +0.150 C 
ATOM      5  C   UNL     1     -35.615  25.632   5.307  0.00  0.00    +0.009 C 
ATOM      6  C   UNL     1     -36.253  25.790   4.078  0.00  0.00    +0.098 C 
ENDROOT
BRANCH   1   7
ATOM      7  S   UNL     1     -32.260  27.804   4.837  0.00  0.00    +0.063 S 
ATOM      8  O   UNL     1     -31.861  27.471   6.191  0.00  0.00    -0.153 OA
ATOM      9  O   UNL     1     -31.386  27.458   3.731  0.00  0.00    -0.153 OA
BRANCH   7  10
ATOM     10  N   UNL     1     -32.661  29.479   4.751  0.00  0.00    -0.156 NA
BRANCH  10  11
ATOM     11  C   UNL     1     -32.721  30.108   3.407  0.00  0.00    +0.096 C 
BRANCH  11  12
ATOM     12  C   UNL     1     -33.777  31.206   3.382  0.00  0.00    +0.019 C 
ATOM     13  C   UNL     1     -35.168  30.677   3.061  0.00  0.00    +0.002 C 
ENDBRANCH  11  12
ENDBRANCH  10  11
BRANCH  10  14
ATOM     14  C   UNL     1     -32.067  30.386   5.764  0.00  0.00    +0.096 C 
BRANCH  14  15
ATOM     15  C   UNL     1     -30.754  30.965   5.253  0.00  0.00    +0.019 C 
ATOM     16  C   UNL     1     -29.538  30.199   5.756  0.00  0.00    +0.002 C 
ENDBRANCH  14  15
ENDBRANCH  10  14
ENDBRANCH   7  10
ENDBRANCH   1   7
BRANCH   4  19
ATOM     17  O   UNL     1     -36.016  25.956   0.885  0.00  0.00    -0.126 OA
ATOM     18  O   UNL     1     -37.113  27.686   1.677  0.00  0.00    -0.126 OA
ATOM     19  N   UNL     1     -36.295  26.746   1.818  0.00  0.00    +0.058 N 
ENDBRANCH   4  19
BRANCH   6  21
ATOM     20  O   UNL     1     -37.703  23.910   3.781  0.00  0.00    -0.245 OA
ATOM     21  C   UNL     1     -37.536  25.129   3.871  0.00  0.00    +0.340 C 
BRANCH  21  22
ATOM     22  O   UNL     1     -38.565  26.013   3.786  0.00  0.00    -0.477 OA
ATOM     23  H   UNL     1     -38.984  26.320   4.565  0.00  0.00    +0.295 HD
ENDBRANCH  21  22
ENDBRANCH   6  21
TORSDOF 9
ENDMDL
MODEL 5
REMARK VINA RESULT:      -5.1      3.363      7.383
REMARK  Name = 193351
REMARK  9 active torsions:
REMARK  status: ('A' for Active; 'I' for Inactive)
REMARK    1  A    between atoms: C_1  and  S_7
REMARK    2  A    between atoms: C_4  and  N_19
REMARK    3  A    between atoms: C_6  and  C_21
REMARK    4  A    between atoms: S_7  and  N_10
REMARK    5  A    between atoms: N_10  and  C_11
REMARK    6  A    between atoms: N_10  and  C_14
REMARK    7  A    between atoms: C_11  and  C_12
REMARK    8  A    between atoms: C_14  and  C_15
REMARK    9  A    between atoms: C_21  and  O_22
REMARK                            x       y       z     vdW  Elec       q    Type
REMARK                         _______ _______ _______ _____ _____    ______ ____
ROOT
ATOM      1  C   UNL     1     -36.518  22.281   3.090  0.00  0.00    +0.124 C 
ATOM      2  C   UNL     1     -37.562  22.257   2.184  0.00  0.00    +0.044 C 
ATOM      3  C   UNL     1     -35.520  21.323   3.075  0.00  0.00    +0.020 C 
ATOM      4  C   UNL     1     -37.610  21.241   1.230  0.00  0.00    +0.150 C 
ATOM      5  C   UNL     1     -35.569  20.307   2.122  0.00  0.00    +0.009 C 
ATOM      6  C   UNL     1     -36.613  20.266   1.199  0.00  0.00    +0.098 C 
ENDROOT
BRANCH   1   7
ATOM      7  S   UNL     1     -36.456  23.570   4.302  0.00  0.00    +0.063 S 
ATOM      8  O   UNL     1     -37.640  24.388   4.123  0.00  0.00    -0.153 OA
ATOM      9  O   UNL     1     -36.212  22.941   5.587  0.00  0.00    -0.153 OA
BRANCH   7  10
ATOM     10  N   UNL     1     -35.061  24.466   3.827  0.00  0.00    -0.156 NA
BRANCH  10  11
ATOM     11  C   UNL     1     -34.008  24.701   4.849  0.00  0.00    +0.096 C 
BRANCH  11  12
ATOM     12  C   UNL     1     -34.378  25.890   5.727  0.00  0.00    +0.019 C 
ATOM     13  C   UNL     1     -33.235  26.884   5.883  0.00  0.00    +0.002 C 
ENDBRANCH  11  12
ENDBRANCH  10  11
BRANCH  10  14
ATOM     14  C   UNL     1     -35.261  25.648   2.953  0.00  0.00    +0.096 C 
BRANCH  14  15
ATOM     15  C   UNL     1     -34.276  25.622   1.791  0.00  0.00    +0.019 C 
ATOM     16  C   UNL     1     -34.147  24.244   1.159  0.00  0.00    +0.002 C 
ENDBRANCH  14  15
ENDBRANCH  10  14
ENDBRANCH   7  10
ENDBRANCH   1   7
BRANCH   4  19
ATOM     17  O   UNL     1     -38.526  21.751  -0.824  0.00  0.00    -0.126 OA
ATOM     18  O   UNL     1     -39.764  20.673   0.633  0.00  0.00    -0.126 OA
ATOM     19  N   UNL     1     -38.687  21.221   0.300  0.00  0.00    +0.058 N 
ENDBRANCH   4  19
BRANCH   6  21
ATOM     20  O   UNL     1     -36.188  19.264  -0.932  0.00  0.00    -0.245 OA
ATOM     21  C   UNL     1     -36.630  19.189   0.217  0.00  0.00    +0.340 C 
BRANCH  21  22
ATOM     22  O   UNL     1     -37.197  18.053   0.705  0.00  0.00    -0.477 OA
ATOM     23  H   UNL     1     -37.278  17.297   0.158  0.00  0.00    +0.295 HD
ENDBRANCH  21  22
ENDBRANCH   6  21
TORSDOF 9
ENDMDL
MODEL 6
REMARK VINA RESULT:      -5.0      2.946      4.322
REMARK  Name = 193351
REMARK  9 active torsions:
REMARK  status: ('A' for Active; 'I' for Inactive)
REMARK    1  A    between atoms: C_1  and  S_7
REMARK    2  A    between atoms: C_4  and  N_19
REMARK    3  A    between atoms: C_6  and  C_21
REMARK    4  A    between atoms: S_7  and  N_10
REMARK    5  A    between atoms: N_10  and  C_11
REMARK    6  A    between atoms: N_10  and  C_14
REMARK    7  A    between atoms: C_11  and  C_12
REMARK    8  A    between atoms: C_14  and  C_15
REMARK    9  A    between atoms: C_21  and  O_22
REMARK                            x       y       z     vdW  Elec       q    Type
REMARK                         _______ _______ _______ _____ _____    ______ ____
ROOT
ATOM      1  C   UNL     1     -35.590  22.656   2.916  0.00  0.00    +0.124 C 
ATOM      2  C   UNL     1     -35.393  23.907   2.360  0.00  0.00    +0.044 C 
ATOM      3  C   UNL     1     -35.703  22.477   4.282  0.00  0.00    +0.020 C 
ATOM      4  C   UNL     1     -35.305  25.016   3.199  0.00  0.00    +0.150 C 
ATOM      5  C   UNL     1     -35.615  23.586   5.122  0.00  0.00    +0.009 C 
ATOM      6  C   UNL     1     -35.416  24.856   4.581  0.00  0.00    +0.098 C 
ENDROOT
BRANCH   1   7
ATOM      7  S   UNL     1     -35.701  21.246   1.851  0.00  0.00    +0.063 S 
ATOM      8  O   UNL     1     -34.594  21.323   0.916  0.00  0.00    -0.153 OA
ATOM      9  O   UNL     1     -35.837  20.076   2.699  0.00  0.00    -0.153 OA
BRANCH   7  10
ATOM     10  N   UNL     1     -37.182  21.523   1.012  0.00  0.00    -0.156 NA
BRANCH  10  11
ATOM     11  C   UNL     1     -38.444  21.441   1.791  0.00  0.00    +0.096 C 
BRANCH  11  12
ATOM     12  C   UNL     1     -39.299  22.680   1.549  0.00  0.00    +0.019 C 
ATOM     13  C   UNL     1     -39.114  23.741   2.625  0.00  0.00    +0.002 C 
ENDBRANCH  11  12
ENDBRANCH  10  11
BRANCH  10  14
ATOM     14  C   UNL     1     -37.328  20.945  -0.346  0.00  0.00    +0.096 C 
BRANCH  14  15
ATOM     15  C   UNL     1     -38.140  19.657  -0.290  0.00  0.00    +0.019 C 
ATOM     16  C   UNL     1     -37.266  18.414  -0.192  0.00  0.00    +0.002 C 
ENDBRANCH  14  15
ENDBRANCH  10  14
ENDBRANCH   7  10
ENDBRANCH   1   7
BRANCH   4  19
ATOM     17  O   UNL     1     -33.939  26.642   2.300  0.00  0.00    -0.126 OA
ATOM     18  O   UNL     1     -36.090  27.052   2.453  0.00  0.00    -0.126 OA
ATOM     19  N   UNL     1     -35.101  26.301   2.623  0.00  0.00    +0.058 N 
ENDBRANCH   4  19
BRANCH   6  21
ATOM     20  O   UNL     1     -34.310  26.353   6.085  0.00  0.00    -0.245 OA
ATOM     21  C   UNL     1     -35.329  25.992   5.490  0.00  0.00    +0.340 C 
BRANCH  21  22
ATOM     22  O   UNL     1     -36.517  26.641   5.623  0.00  0.00    -0.477 OA
ATOM     23  H   UNL     1     -36.899  27.074   4.886  0.00  0.00    +0.295 HD
ENDBRANCH  21  22
ENDBRANCH   6  21
TORSDOF 9
ENDMDL
MODEL 7
REMARK VINA RESULT:      -5.0      3.311      6.977
REMARK  Name = 193351
REMARK  9 active torsions:
REMARK  status: ('A' for Active; 'I' for Inactive)
REMARK    1  A    between atoms: C_1  and  S_7
REMARK    2  A    between atoms: C_4  and  N_19
REMARK    3  A    between atoms: C_6  and  C_21
REMARK    4  A    between atoms: S_7  and  N_10
REMARK    5  A    between atoms: N_10  and  C_11
REMARK    6  A    between atoms: N_10  and  C_14
REMARK    7  A    between atoms: C_11  and  C_12
REMARK    8  A    between atoms: C_14  and  C_15
REMARK    9  A    between atoms: C_21  and  O_22
REMARK                            x       y       z     vdW  Elec       q    Type
REMARK                         _______ _______ _______ _____ _____    ______ ____
ROOT
ATOM      1  C   UNL     1     -36.577  22.408   2.928  0.00  0.00    +0.124 C 
ATOM      2  C   UNL     1     -37.512  22.263   1.920  0.00  0.00    +0.044 C 
ATOM      3  C   UNL     1     -35.563  21.486   3.118  0.00  0.00    +0.020 C 
ATOM      4  C   UNL     1     -37.431  21.159   1.073  0.00  0.00    +0.150 C 
ATOM      5  C   UNL     1     -35.483  20.382   2.271  0.00  0.00    +0.009 C 
ATOM      6  C   UNL     1     -36.416  20.218   1.248  0.00  0.00    +0.098 C 
ENDROOT
BRANCH   1   7
ATOM      7  S   UNL     1     -36.678  23.810   4.005  0.00  0.00    +0.063 S 
ATOM      8  O   UNL     1     -38.009  24.369   3.860  0.00  0.00    -0.153 OA
ATOM      9  O   UNL     1     -36.225  23.380   5.315  0.00  0.00    -0.153 OA
BRANCH   7  10
ATOM     10  N   UNL     1     -35.522  24.892   3.323  0.00  0.00    -0.156 NA
BRANCH  10  11
ATOM     11  C   UNL     1     -35.410  24.944   1.843  0.00  0.00    +0.096 C 
BRANCH  11  12
ATOM     12  C   UNL     1     -34.008  24.541   1.403  0.00  0.00    +0.019 C 
ATOM     13  C   UNL     1     -34.015  23.431   0.360  0.00  0.00    +0.002 C 
ENDBRANCH  11  12
ENDBRANCH  10  11
BRANCH  10  14
ATOM     14  C   UNL     1     -34.197  24.998   3.984  0.00  0.00    +0.096 C 
BRANCH  14  15
ATOM     15  C   UNL     1     -34.049  26.355   4.661  0.00  0.00    +0.019 C 
ATOM     16  C   UNL     1     -33.829  26.243   6.163  0.00  0.00    +0.002 C 
ENDBRANCH  14  15
ENDBRANCH  10  14
ENDBRANCH   7  10
ENDBRANCH   1   7
BRANCH   4  19
ATOM     17  O   UNL     1     -39.406  20.301   0.248  0.00  0.00    -0.126 OA
ATOM     18  O   UNL     1     -38.209  21.604  -1.052  0.00  0.00    -0.126 OA
ATOM     19  N   UNL     1     -38.396  21.014   0.038  0.00  0.00    +0.058 N 
ENDBRANCH   4  19
BRANCH   6  21
ATOM     20  O   UNL     1     -35.490  18.924  -0.539  0.00  0.00    -0.245 OA
ATOM     21  C   UNL     1     -36.300  19.051   0.383  0.00  0.00    +0.340 C 
BRANCH  21  22
ATOM     22  O   UNL     1     -37.199  18.081   0.700  0.00  0.00    -0.477 OA
ATOM     23  H   UNL     1     -37.119  17.227   0.322  0.00  0.00    +0.295 HD
ENDBRANCH  21  22
ENDBRANCH   6  21
TORSDOF 9
ENDMDL
MODEL 8
REMARK VINA RESULT:      -5.0      2.344      3.191
REMARK  Name = 193351
REMARK  9 active torsions:
REMARK  status: ('A' for Active; 'I' for Inactive)
REMARK    1  A    between atoms: C_1  and  S_7
REMARK    2  A    between atoms: C_4  and  N_19
REMARK    3  A    between atoms: C_6  and  C_21
REMARK    4  A    between atoms: S_7  and  N_10
REMARK    5  A    between atoms: N_10  and  C_11
REMARK    6  A    between atoms: N_10  and  C_14
REMARK    7  A    between atoms: C_11  and  C_12
REMARK    8  A    between atoms: C_14  and  C_15
REMARK    9  A    between atoms: C_21  and  O_22
REMARK                            x       y       z     vdW  Elec       q    Type
REMARK                         _______ _______ _______ _____ _____    ______ ____
ROOT
ATOM      1  C   UNL     1     -33.804  26.590   4.123  0.00  0.00    +0.124 C 
ATOM      2  C   UNL     1     -32.993  27.582   3.603  0.00  0.00    +0.044 C 
ATOM      3  C   UNL     1     -33.823  26.301   5.475  0.00  0.00    +0.020 C 
ATOM      4  C   UNL     1     -32.172  28.309   4.464  0.00  0.00    +0.150 C 
ATOM      5  C   UNL     1     -33.002  27.028   6.337  0.00  0.00    +0.009 C 
ATOM      6  C   UNL     1     -32.177  28.032   5.831  0.00  0.00    +0.098 C 
ENDROOT
BRANCH   1   7
ATOM      7  S   UNL     1     -34.846  25.666   3.031  0.00  0.00    +0.063 S 
ATOM      8  O   UNL     1     -35.604  26.622   2.245  0.00  0.00    -0.153 OA
ATOM      9  O   UNL     1     -34.007  24.694   2.354  0.00  0.00    -0.153 OA
BRANCH   7  10
ATOM     10  N   UNL     1     -35.905  24.851   4.121  0.00  0.00    -0.156 NA
BRANCH  10  11
ATOM     11  C   UNL     1     -35.716  23.390   4.307  0.00  0.00    +0.096 C 
BRANCH  11  12
ATOM     12  C   UNL     1     -35.404  23.077   5.766  0.00  0.00    +0.019 C 
ATOM     13  C   UNL     1     -35.186  21.591   6.015  0.00  0.00    +0.002 C 
ENDBRANCH  11  12
ENDBRANCH  10  11
BRANCH  10  14
ATOM     14  C   UNL     1     -37.341  25.228   4.105  0.00  0.00    +0.096 C 
BRANCH  14  15
ATOM     15  C   UNL     1     -38.116  24.325   3.153  0.00  0.00    +0.019 C 
ATOM     16  C   UNL     1     -39.610  24.613   3.155  0.00  0.00    +0.002 C 
ENDBRANCH  14  15
ENDBRANCH  10  14
ENDBRANCH   7  10
ENDBRANCH   1   7
BRANCH   4  19
ATOM     17  O   UNL     1     -30.137  29.061   3.681  0.00  0.00    -0.126 OA
ATOM     18  O   UNL     1     -31.829  30.460   3.705  0.00  0.00    -0.126 OA
ATOM     19  N   UNL     1     -31.338  29.328   3.924  0.00  0.00    +0.058 N 
ENDBRANCH   4  19
BRANCH   6  21
ATOM     20  O   UNL     1     -31.689  29.744   7.430  0.00  0.00    -0.245 OA
ATOM     21  C   UNL     1     -31.332  28.770   6.762  0.00  0.00    +0.340 C 
BRANCH  21  22
ATOM     22  O   UNL     1     -30.071  28.266   6.828  0.00  0.00    -0.477 OA
ATOM     23  H   UNL     1     -29.385  28.768   7.221  0.00  0.00    +0.295 HD
ENDBRANCH  21  22
ENDBRANCH   6  21
TORSDOF 9
ENDMDL
MODEL 9
REMARK VINA RESULT:      -5.0      2.804      6.513
REMARK  Name = 193351
REMARK  9 active torsions:
REMARK  status: ('A' for Active; 'I' for Inactive)
REMARK    1  A    between atoms: C_1  and  S_7
REMARK    2  A    between atoms: C_4  and  N_19
REMARK    3  A    between atoms: C_6  and  C_21
REMARK    4  A    between atoms: S_7  and  N_10
REMARK    5  A    between atoms: N_10  and  C_11
REMARK    6  A    between atoms: N_10  and  C_14
REMARK    7  A    between atoms: C_11  and  C_12
REMARK    8  A    between atoms: C_14  and  C_15
REMARK    9  A    between atoms: C_21  and  O_22
REMARK                            x       y       z     vdW  Elec       q    Type
REMARK                         _______ _______ _______ _____ _____    ______ ____
ROOT
ATOM      1  C   UNL     1     -33.040  26.916   3.735  0.00  0.00    +0.124 C 
ATOM      2  C   UNL     1     -33.614  26.079   2.795  0.00  0.00    +0.044 C 
ATOM      3  C   UNL     1     -33.472  26.939   5.048  0.00  0.00    +0.020 C 
ATOM      4  C   UNL     1     -34.655  25.236   3.182  0.00  0.00    +0.150 C 
ATOM      5  C   UNL     1     -34.513  26.096   5.436  0.00  0.00    +0.009 C 
ATOM      6  C   UNL     1     -35.104  25.244   4.503  0.00  0.00    +0.098 C 
ENDROOT
BRANCH   1   7
ATOM      7  S   UNL     1     -31.719  27.987   3.244  0.00  0.00    +0.063 S 
ATOM      8  O   UNL     1     -30.551  27.614   4.020  0.00  0.00    -0.153 OA
ATOM      9  O   UNL     1     -31.652  27.952   1.795  0.00  0.00    -0.153 OA
BRANCH   7  10
ATOM     10  N   UNL     1     -32.279  29.535   3.757  0.00  0.00    -0.156 NA
BRANCH  10  11
ATOM     11  C   UNL     1     -33.032  30.358   2.776  0.00  0.00    +0.096 C 
BRANCH  11  12
ATOM     12  C   UNL     1     -34.519  30.353   3.110  0.00  0.00    +0.019 C 
ATOM     13  C   UNL     1     -35.322  29.431   2.203  0.00  0.00    +0.002 C 
ENDBRANCH  11  12
ENDBRANCH  10  11
BRANCH  10  14
ATOM     14  C   UNL     1     -31.371  30.359   4.593  0.00  0.00    +0.096 C 
BRANCH  14  15
ATOM     15  C   UNL     1     -31.979  30.587   5.971  0.00  0.00    +0.019 C 
ATOM     16  C   UNL     1     -31.574  29.520   6.977  0.00  0.00    +0.002 C 
ENDBRANCH  14  15
ENDBRANCH  10  14
ENDBRANCH   7  10
ENDBRANCH   1   7
BRANCH   4  19
ATOM     17  O   UNL     1     -36.314  24.728   1.663  0.00  0.00    -0.126 OA
ATOM     18  O   UNL     1     -34.671  23.298   1.933  0.00  0.00    -0.126 OA
ATOM     19  N   UNL     1     -35.243  24.377   2.211  0.00  0.00    +0.058 N 
ENDBRANCH   4  19
BRANCH   6  21
ATOM     20  O   UNL     1     -36.051  23.302   5.531  0.00  0.00    -0.245 OA
ATOM     21  C   UNL     1     -36.191  24.378   4.945  0.00  0.00    +0.340 C 
BRANCH  21  22
ATOM     22  O   UNL     1     -37.414  24.887   4.640  0.00  0.00    -0.477 OA
ATOM     23  H   UNL     1     -37.815  25.514   5.208  0.00  0.00    +0.295 HD
ENDBRANCH  21  22
ENDBRANCH   6  21
TORSDOF 9
ENDMDL
