MODEL 1
REMARK VINA RESULT:      -7.8      0.000      0.000
REMARK  Name = 59472121
REMARK  7 active torsions:
REMARK  status: ('A' for Active; 'I' for Inactive)
REMARK    1  A    between atoms: C_4  and  C_13
REMARK    2  A    between atoms: C_5  and  C_24
REMARK    3  A    between atoms: C_10  and  S_16
REMARK    4  A    between atoms: S_16  and  C_19
REMARK    5  A    between atoms: C_25  and  C_27
REMARK    6  A    between atoms: C_28  and  C_33
REMARK    7  A    between atoms: C_33  and  N_34
REMARK                            x       y       z     vdW  Elec       q    Type
REMARK                         _______ _______ _______ _____ _____    ______ ____
ROOT
ATOM      1  N   UNL     1     -35.795  21.885   2.495  0.00  0.00    -0.398 NA
ATOM      2  N   UNL     1     -38.522  21.868   1.837  0.00  0.00    -0.247 NA
ATOM      3  N   UNL     1     -38.817  23.867   3.082  0.00  0.00    -0.341 N 
ATOM      4  C   UNL     1     -36.340  20.917   1.730  0.00  0.00    +0.134 C 
ATOM      5  C   UNL     1     -36.639  22.843   2.925  0.00  0.00    +0.198 C 
ATOM      6  C   UNL     1     -37.679  20.909   1.407  0.00  0.00    +0.185 C 
ATOM      7  C   UNL     1     -37.979  22.836   2.603  0.00  0.00    +0.154 C 
ATOM      8  H   UNL     1     -39.776  23.868   2.855  0.00  0.00    +0.144 HD
ATOM      9  H   UNL     1     -38.444  24.585   3.642  0.00  0.00    +0.144 HD
ENDROOT
BRANCH   4  13
ATOM     10  C   UNL     1     -33.681  17.908   0.381  0.00  0.00    +0.106 C 
ATOM     11  C   UNL     1     -33.309  18.748   1.431  0.00  0.00    +0.018 C 
ATOM     12  C   UNL     1     -34.928  18.058  -0.225  0.00  0.00    +0.018 C 
ATOM     13  C   UNL     1     -35.432  19.889   1.269  0.00  0.00    +0.027 C 
ATOM     14  C   UNL     1     -34.185  19.739   1.875  0.00  0.00    +0.004 C 
ATOM     15  C   UNL     1     -35.804  19.049   0.220  0.00  0.00    +0.004 C 
BRANCH  10  16
ATOM     16  S   UNL     1     -32.572  16.653  -0.182  0.00  0.00    +0.007 S 
ATOM     17  O   UNL     1     -31.412  16.652   0.688  0.00  0.00    -0.169 OA
ATOM     18  O   UNL     1     -33.352  15.447  -0.372  0.00  0.00    -0.169 OA
BRANCH  16  19
ATOM     19  C   UNL     1     -32.046  17.238  -1.771  0.00  0.00    +0.134 C 
ATOM     20  C   UNL     1     -31.450  18.632  -1.649  0.00  0.00    +0.026 C 
ATOM     21  C   UNL     1     -31.057  16.262  -2.391  0.00  0.00    +0.026 C 
ENDBRANCH  16  19
ENDBRANCH  10  16
ENDBRANCH   4  13
BRANCH   5  24
ATOM     22  O   UNL     1     -36.680  24.187   4.875  0.00  0.00    -0.351 OA
ATOM     23  N   UNL     1     -35.967  25.170   5.552  0.00  0.00    -0.077 NA
ATOM     24  C   UNL     1     -36.016  23.856   3.738  0.00  0.00    +0.209 C 
ATOM     25  C   UNL     1     -34.891  25.400   4.795  0.00  0.00    +0.123 C 
ATOM     26  C   UNL     1     -34.871  24.600   3.639  0.00  0.00    +0.065 C 
BRANCH  25  27
ATOM     27  C   UNL     1     -33.909  26.374   5.191  0.00  0.00    +0.021 C 
ATOM     28  C   UNL     1     -32.004  28.263   5.955  0.00  0.00    -0.044 C 
ATOM     29  C   UNL     1     -33.352  27.228   4.239  0.00  0.00    +0.001 C 
ATOM     30  C   UNL     1     -33.515  26.465   6.525  0.00  0.00    +0.001 C 
ATOM     31  C   UNL     1     -32.399  28.172   4.621  0.00  0.00    -0.006 C 
ATOM     32  C   UNL     1     -32.562  27.410   6.908  0.00  0.00    -0.006 C 
BRANCH  28  33
ATOM     33  C   UNL     1     -30.985  29.272   6.365  0.00  0.00    -0.054 C 
BRANCH  33  34
ATOM     34  N   UNL     1     -29.886  28.677   7.126  0.00  0.00    +0.385 N 
ATOM     35  C   UNL     1     -28.889  28.113   6.231  0.00  0.00    -0.105 C 
ATOM     36  H   UNL     1     -30.255  27.937   7.725  0.00  0.00    -0.084 HD
ATOM     37  H   UNL     1     -29.446  29.403   7.691  0.00  0.00    -0.084 HD
ENDBRANCH  33  34
ENDBRANCH  28  33
ENDBRANCH  25  27
ENDBRANCH   5  24
TORSDOF 7
ENDMDL
MODEL 2
REMARK VINA RESULT:      -7.5      3.724     10.072
REMARK  Name = 59472121
REMARK  7 active torsions:
REMARK  status: ('A' for Active; 'I' for Inactive)
REMARK    1  A    between atoms: C_4  and  C_13
REMARK    2  A    between atoms: C_5  and  C_24
REMARK    3  A    between atoms: C_10  and  S_16
REMARK    4  A    between atoms: S_16  and  C_19
REMARK    5  A    between atoms: C_25  and  C_27
REMARK    6  A    between atoms: C_28  and  C_33
REMARK    7  A    between atoms: C_33  and  N_34
REMARK                            x       y       z     vdW  Elec       q    Type
REMARK                         _______ _______ _______ _____ _____    ______ ____
ROOT
ATOM      1  N   UNL     1     -35.329  23.176   2.914  0.00  0.00    -0.398 NA
ATOM      2  N   UNL     1     -38.079  23.449   3.392  0.00  0.00    -0.247 NA
ATOM      3  N   UNL     1     -38.464  21.409   2.243  0.00  0.00    -0.341 N 
ATOM      4  C   UNL     1     -35.836  24.228   3.588  0.00  0.00    +0.134 C 
ATOM      5  C   UNL     1     -36.222  22.264   2.484  0.00  0.00    +0.198 C 
ATOM      6  C   UNL     1     -37.186  24.362   3.823  0.00  0.00    +0.185 C 
ATOM      7  C   UNL     1     -37.573  22.397   2.718  0.00  0.00    +0.154 C 
ATOM      8  H   UNL     1     -39.431  21.498   2.407  0.00  0.00    +0.144 HD
ATOM      9  H   UNL     1     -38.119  20.631   1.748  0.00  0.00    +0.144 HD
ENDROOT
BRANCH   4  13
ATOM     10  C   UNL     1     -33.020  27.092   4.938  0.00  0.00    +0.106 C 
ATOM     11  C   UNL     1     -33.183  26.863   3.571  0.00  0.00    +0.018 C 
ATOM     12  C   UNL     1     -33.785  26.378   5.861  0.00  0.00    +0.018 C 
ATOM     13  C   UNL     1     -34.874  25.207   4.049  0.00  0.00    +0.027 C 
ATOM     14  C   UNL     1     -34.110  25.920   3.127  0.00  0.00    +0.004 C 
ATOM     15  C   UNL     1     -34.712  25.435   5.416  0.00  0.00    +0.004 C 
BRANCH  10  16
ATOM     16  S   UNL     1     -31.846  28.285   5.501  0.00  0.00    +0.007 S 
ATOM     17  O   UNL     1     -32.267  28.751   6.808  0.00  0.00    -0.169 OA
ATOM     18  O   UNL     1     -30.529  27.711   5.311  0.00  0.00    -0.169 OA
BRANCH  16  19
ATOM     19  C   UNL     1     -32.039  29.635   4.367  0.00  0.00    +0.134 C 
ATOM     20  C   UNL     1     -32.046  30.958   5.119  0.00  0.00    +0.026 C 
ATOM     21  C   UNL     1     -30.941  29.599   3.314  0.00  0.00    +0.026 C 
ENDBRANCH  16  19
ENDBRANCH  10  16
ENDBRANCH   4  13
BRANCH   5  24
ATOM     22  O   UNL     1     -36.255  20.815   0.610  0.00  0.00    -0.351 OA
ATOM     23  N   UNL     1     -35.587  19.740   0.036  0.00  0.00    -0.077 NA
ATOM     24  C   UNL     1     -35.638  21.157   1.769  0.00  0.00    +0.209 C 
ATOM     25  C   UNL     1     -34.584  19.468   0.875  0.00  0.00    +0.123 C 
ATOM     26  C   UNL     1     -34.568  20.330   1.984  0.00  0.00    +0.065 C 
BRANCH  25  27
ATOM     27  C   UNL     1     -33.666  18.396   0.598  0.00  0.00    +0.021 C 
ATOM     28  C   UNL     1     -31.887  16.315   0.061  0.00  0.00    -0.044 C 
ATOM     29  C   UNL     1     -34.126  17.220   0.005  0.00  0.00    +0.001 C 
ATOM     30  C   UNL     1     -32.316  18.531   0.921  0.00  0.00    +0.001 C 
ATOM     31  C   UNL     1     -33.237  16.179  -0.263  0.00  0.00    -0.006 C 
ATOM     32  C   UNL     1     -31.426  17.491   0.653  0.00  0.00    -0.006 C 
BRANCH  28  33
ATOM     33  C   UNL     1     -30.935  15.202  -0.226  0.00  0.00    -0.054 C 
BRANCH  33  34
ATOM     34  N   UNL     1     -31.309  13.961   0.455  0.00  0.00    +0.385 N 
ATOM     35  C   UNL     1     -30.261  12.963   0.313  0.00  0.00    -0.105 C 
ATOM     36  H   UNL     1     -32.172  13.602   0.047  0.00  0.00    -0.084 HD
ATOM     37  H   UNL     1     -31.442  14.158   1.447  0.00  0.00    -0.084 HD
ENDBRANCH  33  34
ENDBRANCH  28  33
ENDBRANCH  25  27
ENDBRANCH   5  24
TORSDOF 7
ENDMDL
MODEL 3
REMARK VINA RESULT:      -7.3      2.381      3.658
REMARK  Name = 59472121
REMARK  7 active torsions:
REMARK  status: ('A' for Active; 'I' for Inactive)
REMARK    1  A    between atoms: C_4  and  C_13
REMARK    2  A    between atoms: C_5  and  C_24
REMARK    3  A    between atoms: C_10  and  S_16
REMARK    4  A    between atoms: S_16  and  C_19
REMARK    5  A    between atoms: C_25  and  C_27
REMARK    6  A    between atoms: C_28  and  C_33
REMARK    7  A    between atoms: C_33  and  N_34
REMARK                            x       y       z     vdW  Elec       q    Type
REMARK                         _______ _______ _______ _____ _____    ______ ____
ROOT
ATOM      1  N   UNL     1     -34.554  24.400   3.553  0.00  0.00    -0.398 NA
ATOM      2  N   UNL     1     -37.223  24.620   4.387  0.00  0.00    -0.247 NA
ATOM      3  N   UNL     1     -36.660  26.573   5.613  0.00  0.00    -0.341 N 
ATOM      4  C   UNL     1     -35.497  23.515   3.173  0.00  0.00    +0.134 C 
ATOM      5  C   UNL     1     -34.970  25.397   4.358  0.00  0.00    +0.198 C 
ATOM      6  C   UNL     1     -36.808  23.623   3.582  0.00  0.00    +0.185 C 
ATOM      7  C   UNL     1     -36.280  25.506   4.768  0.00  0.00    +0.154 C 
ATOM      8  H   UNL     1     -37.596  26.657   5.910  0.00  0.00    +0.144 HD
ATOM      9  H   UNL     1     -35.991  27.233   5.905  0.00  0.00    +0.144 HD
ENDROOT
BRANCH   4  13
ATOM     10  C   UNL     1     -34.183  20.382   0.641  0.00  0.00    +0.106 C 
ATOM     11  C   UNL     1     -33.993  21.711   0.263  0.00  0.00    +0.018 C 
ATOM     12  C   UNL     1     -34.806  20.084   1.853  0.00  0.00    +0.018 C 
ATOM     13  C   UNL     1     -35.048  22.444   2.308  0.00  0.00    +0.027 C 
ATOM     14  C   UNL     1     -34.425  22.742   1.096  0.00  0.00    +0.004 C 
ATOM     15  C   UNL     1     -35.238  21.115   2.687  0.00  0.00    +0.004 C 
BRANCH  10  16
ATOM     16  S   UNL     1     -33.636  19.075  -0.415  0.00  0.00    +0.007 S 
ATOM     17  O   UNL     1     -34.780  18.590  -1.162  0.00  0.00    -0.169 OA
ATOM     18  O   UNL     1     -32.451  19.549  -1.103  0.00  0.00    -0.169 OA
BRANCH  16  19
ATOM     19  C   UNL     1     -33.155  17.795   0.713  0.00  0.00    +0.134 C 
ATOM     20  C   UNL     1     -33.323  16.429   0.063  0.00  0.00    +0.026 C 
ATOM     21  C   UNL     1     -31.724  18.015   1.181  0.00  0.00    +0.026 C 
ENDBRANCH  16  19
ENDBRANCH  10  16
ENDBRANCH   4  13
BRANCH   5  24
ATOM     22  O   UNL     1     -33.452  26.175   6.001  0.00  0.00    -0.351 OA
ATOM     23  N   UNL     1     -32.464  27.126   6.228  0.00  0.00    -0.077 NA
ATOM     24  C   UNL     1     -33.931  26.319   4.739  0.00  0.00    +0.209 C 
ATOM     25  C   UNL     1     -32.381  27.817   5.087  0.00  0.00    +0.123 C 
ATOM     26  C   UNL     1     -33.283  27.351   4.115  0.00  0.00    +0.065 C 
BRANCH  25  27
ATOM     27  C   UNL     1     -31.445  28.901   4.952  0.00  0.00    +0.021 C 
ATOM     28  C   UNL     1     -29.632  31.004   4.688  0.00  0.00    -0.044 C 
ATOM     29  C   UNL     1     -31.851  30.209   5.218  0.00  0.00    +0.001 C 
ATOM     30  C   UNL     1     -30.133  28.644   4.555  0.00  0.00    +0.001 C 
ATOM     31  C   UNL     1     -30.945  31.261   5.085  0.00  0.00    -0.006 C 
ATOM     32  C   UNL     1     -29.226  29.696   4.423  0.00  0.00    -0.006 C 
BRANCH  28  33
ATOM     33  C   UNL     1     -28.662  32.129   4.547  0.00  0.00    -0.054 C 
BRANCH  33  34
ATOM     34  N   UNL     1     -27.315  31.760   4.983  0.00  0.00    +0.385 N 
ATOM     35  C   UNL     1     -27.084  32.189   6.353  0.00  0.00    -0.105 C 
ATOM     36  H   UNL     1     -26.630  32.208   4.372  0.00  0.00    -0.084 HD
ATOM     37  H   UNL     1     -27.220  30.746   4.936  0.00  0.00    -0.084 HD
ENDBRANCH  33  34
ENDBRANCH  28  33
ENDBRANCH  25  27
ENDBRANCH   5  24
TORSDOF 7
ENDMDL
MODEL 4
REMARK VINA RESULT:      -7.1      8.097     10.510
REMARK  Name = 59472121
REMARK  7 active torsions:
REMARK  status: ('A' for Active; 'I' for Inactive)
REMARK    1  A    between atoms: C_4  and  C_13
REMARK    2  A    between atoms: C_5  and  C_24
REMARK    3  A    between atoms: C_10  and  S_16
REMARK    4  A    between atoms: S_16  and  C_19
REMARK    5  A    between atoms: C_25  and  C_27
REMARK    6  A    between atoms: C_28  and  C_33
REMARK    7  A    between atoms: C_33  and  N_34
REMARK                            x       y       z     vdW  Elec       q    Type
REMARK                         _______ _______ _______ _____ _____    ______ ____
ROOT
ATOM      1  N   UNL     1     -41.392  26.457   3.196  0.00  0.00    -0.398 NA
ATOM      2  N   UNL     1     -42.802  25.947   0.826  0.00  0.00    -0.247 NA
ATOM      3  N   UNL     1     -44.480  27.477   1.515  0.00  0.00    -0.341 N 
ATOM      4  C   UNL     1     -40.939  25.591   2.267  0.00  0.00    +0.134 C 
ATOM      5  C   UNL     1     -42.563  27.063   2.918  0.00  0.00    +0.198 C 
ATOM      6  C   UNL     1     -41.631  25.341   1.103  0.00  0.00    +0.185 C 
ATOM      7  C   UNL     1     -43.256  26.813   1.754  0.00  0.00    +0.154 C 
ATOM      8  H   UNL     1     -44.981  27.303   0.685  0.00  0.00    +0.144 HD
ATOM      9  H   UNL     1     -44.833  28.114   2.177  0.00  0.00    +0.144 HD
ENDROOT
BRANCH   4  13
ATOM     10  C   UNL     1     -37.255  23.691   3.147  0.00  0.00    +0.106 C 
ATOM     11  C   UNL     1     -37.407  25.059   3.374  0.00  0.00    +0.018 C 
ATOM     12  C   UNL     1     -38.317  22.948   2.630  0.00  0.00    +0.018 C 
ATOM     13  C   UNL     1     -39.680  24.942   2.568  0.00  0.00    +0.027 C 
ATOM     14  C   UNL     1     -38.619  25.685   3.085  0.00  0.00    +0.004 C 
ATOM     15  C   UNL     1     -39.530  23.574   2.341  0.00  0.00    +0.004 C 
BRANCH  10  16
ATOM     16  S   UNL     1     -35.720  22.899   3.513  0.00  0.00    +0.007 S 
ATOM     17  O   UNL     1     -35.881  21.476   3.288  0.00  0.00    -0.169 OA
ATOM     18  O   UNL     1     -34.681  23.641   2.826  0.00  0.00    -0.169 OA
BRANCH  16  19
ATOM     19  C   UNL     1     -35.524  23.143   5.258  0.00  0.00    +0.134 C 
ATOM     20  C   UNL     1     -35.030  21.864   5.917  0.00  0.00    +0.026 C 
ATOM     21  C   UNL     1     -34.580  24.306   5.525  0.00  0.00    +0.026 C 
ENDBRANCH  16  19
ENDBRANCH  10  16
ENDBRANCH   4  13
BRANCH   5  24
ATOM     22  O   UNL     1     -42.051  28.780   4.468  0.00  0.00    -0.351 OA
ATOM     23  N   UNL     1     -42.624  29.603   5.430  0.00  0.00    -0.077 NA
ATOM     24  C   UNL     1     -43.010  27.979   3.936  0.00  0.00    +0.209 C 
ATOM     25  C   UNL     1     -43.917  29.267   5.447  0.00  0.00    +0.123 C 
ATOM     26  C   UNL     1     -44.216  28.249   4.526  0.00  0.00    +0.065 C 
BRANCH  25  27
ATOM     27  C   UNL     1     -44.834  29.925   6.338  0.00  0.00    +0.021 C 
ATOM     28  C   UNL     1     -46.612  31.201   8.069  0.00  0.00    -0.044 C 
ATOM     29  C   UNL     1     -44.366  30.505   7.517  0.00  0.00    +0.001 C 
ATOM     30  C   UNL     1     -46.192  29.984   6.024  0.00  0.00    +0.001 C 
ATOM     31  C   UNL     1     -45.255  31.142   8.383  0.00  0.00    -0.006 C 
ATOM     32  C   UNL     1     -47.081  30.621   6.889  0.00  0.00    -0.006 C 
BRANCH  28  33
ATOM     33  C   UNL     1     -47.563  31.882   8.994  0.00  0.00    -0.054 C 
BRANCH  33  34
ATOM     34  N   UNL     1     -48.603  32.622   8.277  0.00  0.00    +0.385 N 
ATOM     35  C   UNL     1     -48.128  33.944   7.903  0.00  0.00    -0.105 C 
ATOM     36  H   UNL     1     -49.422  32.718   8.880  0.00  0.00    -0.084 HD
ATOM     37  H   UNL     1     -48.847  32.109   7.430  0.00  0.00    -0.084 HD
ENDBRANCH  33  34
ENDBRANCH  28  33
ENDBRANCH  25  27
ENDBRANCH   5  24
TORSDOF 7
ENDMDL
MODEL 5
REMARK VINA RESULT:      -7.1      5.337      8.929
REMARK  Name = 59472121
REMARK  7 active torsions:
REMARK  status: ('A' for Active; 'I' for Inactive)
REMARK    1  A    between atoms: C_4  and  C_13
REMARK    2  A    between atoms: C_5  and  C_24
REMARK    3  A    between atoms: C_10  and  S_16
REMARK    4  A    between atoms: S_16  and  C_19
REMARK    5  A    between atoms: C_25  and  C_27
REMARK    6  A    between atoms: C_28  and  C_33
REMARK    7  A    between atoms: C_33  and  N_34
REMARK                            x       y       z     vdW  Elec       q    Type
REMARK                         _______ _______ _______ _____ _____    ______ ____
ROOT
ATOM      1  N   UNL     1     -38.597  24.809   3.304  0.00  0.00    -0.398 NA
ATOM      2  N   UNL     1     -38.660  22.201   2.275  0.00  0.00    -0.247 NA
ATOM      3  N   UNL     1     -36.434  21.868   3.031  0.00  0.00    -0.341 N 
ATOM      4  C   UNL     1     -39.684  24.313   2.680  0.00  0.00    +0.134 C 
ATOM      5  C   UNL     1     -37.542  23.977   3.403  0.00  0.00    +0.198 C 
ATOM      6  C   UNL     1     -39.715  23.032   2.175  0.00  0.00    +0.185 C 
ATOM      7  C   UNL     1     -37.571  22.696   2.898  0.00  0.00    +0.154 C 
ATOM      8  H   UNL     1     -36.449  20.950   2.672  0.00  0.00    +0.144 HD
ATOM      9  H   UNL     1     -35.627  22.206   3.482  0.00  0.00    +0.144 HD
ENDROOT
BRANCH   4  13
ATOM     10  C   UNL     1     -42.999  26.934   2.370  0.00  0.00    +0.106 C 
ATOM     11  C   UNL     1     -42.788  25.957   1.397  0.00  0.00    +0.018 C 
ATOM     12  C   UNL     1     -42.118  27.048   3.447  0.00  0.00    +0.018 C 
ATOM     13  C   UNL     1     -40.817  25.208   2.575  0.00  0.00    +0.027 C 
ATOM     14  C   UNL     1     -41.697  25.094   1.499  0.00  0.00    +0.004 C 
ATOM     15  C   UNL     1     -41.027  26.185   3.549  0.00  0.00    +0.004 C 
BRANCH  10  16
ATOM     16  S   UNL     1     -44.380  28.027   2.241  0.00  0.00    +0.007 S 
ATOM     17  O   UNL     1     -43.954  29.345   2.669  0.00  0.00    -0.169 OA
ATOM     18  O   UNL     1     -44.960  27.829   0.927  0.00  0.00    -0.169 OA
BRANCH  16  19
ATOM     19  C   UNL     1     -45.518  27.415   3.455  0.00  0.00    +0.134 C 
ATOM     20  C   UNL     1     -45.469  25.895   3.504  0.00  0.00    +0.026 C 
ATOM     21  C   UNL     1     -45.217  28.025   4.815  0.00  0.00    +0.026 C 
ENDBRANCH  16  19
ENDBRANCH  10  16
ENDBRANCH   4  13
BRANCH   5  24
ATOM     22  O   UNL     1     -35.844  23.776   5.043  0.00  0.00    -0.351 OA
ATOM     23  N   UNL     1     -34.765  24.451   5.601  0.00  0.00    -0.077 NA
ATOM     24  C   UNL     1     -36.402  24.548   4.076  0.00  0.00    +0.209 C 
ATOM     25  C   UNL     1     -34.709  25.614   4.947  0.00  0.00    +0.123 C 
ATOM     26  C   UNL     1     -35.717  25.729   3.975  0.00  0.00    +0.065 C 
BRANCH  25  27
ATOM     27  C   UNL     1     -33.696  26.586   5.263  0.00  0.00    +0.021 C 
ATOM     28  C   UNL     1     -31.733  28.472   5.873  0.00  0.00    -0.044 C 
ATOM     29  C   UNL     1     -33.167  27.393   4.256  0.00  0.00    +0.001 C 
ATOM     30  C   UNL     1     -33.245  26.723   6.576  0.00  0.00    +0.001 C 
ATOM     31  C   UNL     1     -32.184  28.335   4.560  0.00  0.00    -0.006 C 
ATOM     32  C   UNL     1     -32.263  27.665   6.881  0.00  0.00    -0.006 C 
BRANCH  28  33
ATOM     33  C   UNL     1     -30.682  29.479   6.200  0.00  0.00    -0.054 C 
BRANCH  33  34
ATOM     34  N   UNL     1     -30.006  29.188   7.464  0.00  0.00    +0.385 N 
ATOM     35  C   UNL     1     -28.570  29.081   7.266  0.00  0.00    -0.105 C 
ATOM     36  H   UNL     1     -30.359  28.307   7.839  0.00  0.00    -0.084 HD
ATOM     37  H   UNL     1     -30.191  29.949   8.119  0.00  0.00    -0.084 HD
ENDBRANCH  33  34
ENDBRANCH  28  33
ENDBRANCH  25  27
ENDBRANCH   5  24
TORSDOF 7
ENDMDL
MODEL 6
REMARK VINA RESULT:      -7.0      6.207     12.122
REMARK  Name = 59472121
REMARK  7 active torsions:
REMARK  status: ('A' for Active; 'I' for Inactive)
REMARK    1  A    between atoms: C_4  and  C_13
REMARK    2  A    between atoms: C_5  and  C_24
REMARK    3  A    between atoms: C_10  and  S_16
REMARK    4  A    between atoms: S_16  and  C_19
REMARK    5  A    between atoms: C_25  and  C_27
REMARK    6  A    between atoms: C_28  and  C_33
REMARK    7  A    between atoms: C_33  and  N_34
REMARK                            x       y       z     vdW  Elec       q    Type
REMARK                         _______ _______ _______ _____ _____    ______ ____
ROOT
ATOM      1  N   UNL     1     -33.575  29.721   3.403  0.00  0.00    -0.398 NA
ATOM      2  N   UNL     1     -31.201  30.637   4.583  0.00  0.00    -0.247 NA
ATOM      3  N   UNL     1     -30.804  28.458   5.435  0.00  0.00    -0.341 N 
ATOM      4  C   UNL     1     -33.169  31.002   3.290  0.00  0.00    +0.134 C 
ATOM      5  C   UNL     1     -32.773  28.907   4.117  0.00  0.00    +0.198 C 
ATOM      6  C   UNL     1     -32.003  31.451   3.870  0.00  0.00    +0.185 C 
ATOM      7  C   UNL     1     -31.607  29.356   4.697  0.00  0.00    +0.154 C 
ATOM      8  H   UNL     1     -29.969  28.772   5.852  0.00  0.00    +0.144 HD
ATOM      9  H   UNL     1     -31.078  27.518   5.532  0.00  0.00    +0.144 HD
ENDROOT
BRANCH   4  13
ATOM     10  C   UNL     1     -35.696  33.556   1.045  0.00  0.00    +0.106 C 
ATOM     11  C   UNL     1     -34.411  33.974   1.391  0.00  0.00    +0.018 C 
ATOM     12  C   UNL     1     -36.150  32.296   1.439  0.00  0.00    +0.018 C 
ATOM     13  C   UNL     1     -34.033  31.874   2.523  0.00  0.00    +0.027 C 
ATOM     14  C   UNL     1     -33.579  33.133   2.130  0.00  0.00    +0.004 C 
ATOM     15  C   UNL     1     -35.318  31.455   2.177  0.00  0.00    +0.004 C 
BRANCH  10  16
ATOM     16  S   UNL     1     -36.751  34.621   0.110  0.00  0.00    +0.007 S 
ATOM     17  O   UNL     1     -36.015  35.076  -1.054  0.00  0.00    -0.169 OA
ATOM     18  O   UNL     1     -38.022  33.940  -0.040  0.00  0.00    -0.169 OA
BRANCH  16  19
ATOM     19  C   UNL     1     -36.986  36.020   1.173  0.00  0.00    +0.134 C 
ATOM     20  C   UNL     1     -36.645  37.306   0.434  0.00  0.00    +0.026 C 
ATOM     21  C   UNL     1     -38.412  36.045   1.703  0.00  0.00    +0.026 C 
ENDBRANCH  16  19
ENDBRANCH  10  16
ENDBRANCH   4  13
BRANCH   5  24
ATOM     22  O   UNL     1     -33.213  27.002   5.454  0.00  0.00    -0.351 OA
ATOM     23  N   UNL     1     -33.692  25.699   5.393  0.00  0.00    -0.077 NA
ATOM     24  C   UNL     1     -33.244  27.549   4.212  0.00  0.00    +0.209 C 
ATOM     25  C   UNL     1     -33.996  25.503   4.107  0.00  0.00    +0.123 C 
ATOM     26  C   UNL     1     -33.734  26.636   3.317  0.00  0.00    +0.065 C 
BRANCH  25  27
ATOM     27  C   UNL     1     -34.530  24.243   3.663  0.00  0.00    +0.021 C 
ATOM     28  C   UNL     1     -35.566  21.801   2.798  0.00  0.00    -0.044 C 
ATOM     29  C   UNL     1     -34.523  23.923   2.305  0.00  0.00    +0.001 C 
ATOM     30  C   UNL     1     -35.054  23.341   4.589  0.00  0.00    +0.001 C 
ATOM     31  C   UNL     1     -35.041  22.703   1.872  0.00  0.00    -0.006 C 
ATOM     32  C   UNL     1     -35.572  22.120   4.157  0.00  0.00    -0.006 C 
BRANCH  28  33
ATOM     33  C   UNL     1     -36.120  20.495   2.337  0.00  0.00    -0.054 C 
BRANCH  33  34
ATOM     34  N   UNL     1     -37.582  20.503   2.272  0.00  0.00    +0.385 N 
ATOM     35  C   UNL     1     -38.036  20.961   0.969  0.00  0.00    -0.105 C 
ATOM     36  H   UNL     1     -37.946  21.128   2.992  0.00  0.00    -0.084 HD
ATOM     37  H   UNL     1     -37.923  19.553   2.424  0.00  0.00    -0.084 HD
ENDBRANCH  33  34
ENDBRANCH  28  33
ENDBRANCH  25  27
ENDBRANCH   5  24
TORSDOF 7
ENDMDL
MODEL 7
REMARK VINA RESULT:      -7.0      1.623      2.183
REMARK  Name = 59472121
REMARK  7 active torsions:
REMARK  status: ('A' for Active; 'I' for Inactive)
REMARK    1  A    between atoms: C_4  and  C_13
REMARK    2  A    between atoms: C_5  and  C_24
REMARK    3  A    between atoms: C_10  and  S_16
REMARK    4  A    between atoms: S_16  and  C_19
REMARK    5  A    between atoms: C_25  and  C_27
REMARK    6  A    between atoms: C_28  and  C_33
REMARK    7  A    between atoms: C_33  and  N_34
REMARK                            x       y       z     vdW  Elec       q    Type
REMARK                         _______ _______ _______ _____ _____    ______ ____
ROOT
ATOM      1  N   UNL     1     -35.289  20.692   1.752  0.00  0.00    -0.398 NA
ATOM      2  N   UNL     1     -37.901  20.356   0.789  0.00  0.00    -0.247 NA
ATOM      3  N   UNL     1     -38.565  22.315   1.954  0.00  0.00    -0.341 N 
ATOM      4  C   UNL     1     -35.627  19.664   0.948  0.00  0.00    +0.134 C 
ATOM      5  C   UNL     1     -36.281  21.549   2.065  0.00  0.00    +0.198 C 
ATOM      6  C   UNL     1     -36.910  19.499   0.475  0.00  0.00    +0.185 C 
ATOM      7  C   UNL     1     -37.564  21.385   1.592  0.00  0.00    +0.154 C 
ATOM      8  H   UNL     1     -39.485  22.203   1.619  0.00  0.00    +0.144 HD
ATOM      9  H   UNL     1     -38.344  23.074   2.539  0.00  0.00    +0.144 HD
ENDROOT
BRANCH   4  13
ATOM     10  C   UNL     1     -32.505  16.973  -0.032  0.00  0.00    +0.106 C 
ATOM     11  C   UNL     1     -33.701  16.945  -0.749  0.00  0.00    +0.018 C 
ATOM     12  C   UNL     1     -32.336  17.887   1.009  0.00  0.00    +0.018 C 
ATOM     13  C   UNL     1     -34.560  18.745   0.614  0.00  0.00    +0.027 C 
ATOM     14  C   UNL     1     -34.729  17.831  -0.426  0.00  0.00    +0.004 C 
ATOM     15  C   UNL     1     -33.364  18.773   1.331  0.00  0.00    +0.004 C 
BRANCH  10  16
ATOM     16  S   UNL     1     -31.203  15.851  -0.439  0.00  0.00    +0.007 S 
ATOM     17  O   UNL     1     -31.338  14.678   0.403  0.00  0.00    -0.169 OA
ATOM     18  O   UNL     1     -31.184  15.724  -1.883  0.00  0.00    -0.169 OA
BRANCH  16  19
ATOM     19  C   UNL     1     -29.735  16.705   0.068  0.00  0.00    +0.134 C 
ATOM     20  C   UNL     1     -28.659  15.709   0.474  0.00  0.00    +0.026 C 
ATOM     21  C   UNL     1     -29.250  17.626  -1.042  0.00  0.00    +0.026 C 
ENDBRANCH  16  19
ENDBRANCH  10  16
ENDBRANCH   4  13
BRANCH   5  24
ATOM     22  O   UNL     1     -36.651  22.834   4.020  0.00  0.00    -0.351 OA
ATOM     23  N   UNL     1     -36.145  23.903   4.749  0.00  0.00    -0.077 NA
ATOM     24  C   UNL     1     -35.876  22.632   2.924  0.00  0.00    +0.209 C 
ATOM     25  C   UNL     1     -35.074  24.313   4.063  0.00  0.00    +0.123 C 
ATOM     26  C   UNL     1     -34.857  23.547   2.905  0.00  0.00    +0.065 C 
BRANCH  25  27
ATOM     27  C   UNL     1     -34.283  25.421   4.529  0.00  0.00    +0.021 C 
ATOM     28  C   UNL     1     -32.749  27.570   5.429  0.00  0.00    -0.044 C 
ATOM     29  C   UNL     1     -33.708  26.301   3.611  0.00  0.00    +0.001 C 
ATOM     30  C   UNL     1     -34.092  25.617   5.896  0.00  0.00    +0.001 C 
ATOM     31  C   UNL     1     -32.941  27.375   4.061  0.00  0.00    -0.006 C 
ATOM     32  C   UNL     1     -33.325  26.691   6.346  0.00  0.00    -0.006 C 
BRANCH  28  33
ATOM     33  C   UNL     1     -31.929  28.719   5.910  0.00  0.00    -0.054 C 
BRANCH  33  34
ATOM     34  N   UNL     1     -32.482  30.010   5.499  0.00  0.00    +0.385 N 
ATOM     35  C   UNL     1     -31.475  30.806   4.816  0.00  0.00    -0.105 C 
ATOM     36  H   UNL     1     -32.805  30.515   6.325  0.00  0.00    -0.084 HD
ATOM     37  H   UNL     1     -33.260  29.845   4.859  0.00  0.00    -0.084 HD
ENDBRANCH  33  34
ENDBRANCH  28  33
ENDBRANCH  25  27
ENDBRANCH   5  24
TORSDOF 7
ENDMDL
MODEL 8
REMARK VINA RESULT:      -6.9      7.019     12.800
REMARK  Name = 59472121
REMARK  7 active torsions:
REMARK  status: ('A' for Active; 'I' for Inactive)
REMARK    1  A    between atoms: C_4  and  C_13
REMARK    2  A    between atoms: C_5  and  C_24
REMARK    3  A    between atoms: C_10  and  S_16
REMARK    4  A    between atoms: S_16  and  C_19
REMARK    5  A    between atoms: C_25  and  C_27
REMARK    6  A    between atoms: C_28  and  C_33
REMARK    7  A    between atoms: C_33  and  N_34
REMARK                            x       y       z     vdW  Elec       q    Type
REMARK                         _______ _______ _______ _____ _____    ______ ____
ROOT
ATOM      1  N   UNL     1     -33.045  31.386   3.050  0.00  0.00    -0.398 NA
ATOM      2  N   UNL     1     -30.394  32.266   3.307  0.00  0.00    -0.247 NA
ATOM      3  N   UNL     1     -29.826  30.202   4.332  0.00  0.00    -0.341 N 
ATOM      4  C   UNL     1     -32.651  32.602   2.622  0.00  0.00    +0.134 C 
ATOM      5  C   UNL     1     -32.089  30.618   3.610  0.00  0.00    +0.198 C 
ATOM      6  C   UNL     1     -31.349  33.034   2.748  0.00  0.00    +0.185 C 
ATOM      7  C   UNL     1     -30.787  31.049   3.737  0.00  0.00    +0.154 C 
ATOM      8  H   UNL     1     -28.893  30.504   4.426  0.00  0.00    +0.144 HD
ATOM      9  H   UNL     1     -30.088  29.309   4.654  0.00  0.00    +0.144 HD
ENDROOT
BRANCH   4  13
ATOM     10  C   UNL     1     -35.661  35.009   0.862  0.00  0.00    +0.106 C 
ATOM     11  C   UNL     1     -35.800  33.622   0.882  0.00  0.00    +0.018 C 
ATOM     12  C   UNL     1     -34.530  35.605   1.422  0.00  0.00    +0.018 C 
ATOM     13  C   UNL     1     -33.679  33.425   2.021  0.00  0.00    +0.027 C 
ATOM     14  C   UNL     1     -34.809  32.829   1.461  0.00  0.00    +0.004 C 
ATOM     15  C   UNL     1     -33.539  34.812   2.001  0.00  0.00    +0.004 C 
BRANCH  10  16
ATOM     16  S   UNL     1     -36.914  36.013   0.128  0.00  0.00    +0.007 S 
ATOM     17  O   UNL     1     -36.767  37.363   0.636  0.00  0.00    -0.169 OA
ATOM     18  O   UNL     1     -36.888  35.755  -1.299  0.00  0.00    -0.169 OA
BRANCH  16  19
ATOM     19  C   UNL     1     -38.423  35.356   0.789  0.00  0.00    +0.134 C 
ATOM     20  C   UNL     1     -38.580  35.763   2.247  0.00  0.00    +0.026 C 
ATOM     21  C   UNL     1     -39.608  35.814  -0.047  0.00  0.00    +0.026 C 
ENDBRANCH  16  19
ENDBRANCH  10  16
ENDBRANCH   4  13
BRANCH   5  24
ATOM     22  O   UNL     1     -32.322  29.038   5.359  0.00  0.00    -0.351 OA
ATOM     23  N   UNL     1     -32.819  27.772   5.642  0.00  0.00    -0.077 NA
ATOM     24  C   UNL     1     -32.553  29.329   4.053  0.00  0.00    +0.209 C 
ATOM     25  C   UNL     1     -33.335  27.337   4.489  0.00  0.00    +0.123 C 
ATOM     26  C   UNL     1     -33.196  28.278   3.454  0.00  0.00    +0.065 C 
BRANCH  25  27
ATOM     27  C   UNL     1     -33.949  26.040   4.401  0.00  0.00    +0.021 C 
ATOM     28  C   UNL     1     -35.141  23.522   4.235  0.00  0.00    -0.044 C 
ATOM     29  C   UNL     1     -34.365  25.386   5.562  0.00  0.00    +0.001 C 
ATOM     30  C   UNL     1     -34.130  25.435   3.158  0.00  0.00    +0.001 C 
ATOM     31  C   UNL     1     -34.960  24.127   5.479  0.00  0.00    -0.006 C 
ATOM     32  C   UNL     1     -34.726  24.176   3.075  0.00  0.00    -0.006 C 
BRANCH  28  33
ATOM     33  C   UNL     1     -35.777  22.176   4.146  0.00  0.00    -0.054 C 
BRANCH  33  34
ATOM     34  N   UNL     1     -37.019  22.198   3.372  0.00  0.00    +0.385 N 
ATOM     35  C   UNL     1     -36.914  21.334   2.208  0.00  0.00    -0.105 C 
ATOM     36  H   UNL     1     -37.206  23.153   3.065  0.00  0.00    -0.084 HD
ATOM     37  H   UNL     1     -37.780  21.862   3.963  0.00  0.00    -0.084 HD
ENDBRANCH  33  34
ENDBRANCH  28  33
ENDBRANCH  25  27
ENDBRANCH   5  24
TORSDOF 7
ENDMDL
MODEL 9
REMARK VINA RESULT:      -6.9      3.751     10.157
REMARK  Name = 59472121
REMARK  7 active torsions:
REMARK  status: ('A' for Active; 'I' for Inactive)
REMARK    1  A    between atoms: C_4  and  C_13
REMARK    2  A    between atoms: C_5  and  C_24
REMARK    3  A    between atoms: C_10  and  S_16
REMARK    4  A    between atoms: S_16  and  C_19
REMARK    5  A    between atoms: C_25  and  C_27
REMARK    6  A    between atoms: C_28  and  C_33
REMARK    7  A    between atoms: C_33  and  N_34
REMARK                            x       y       z     vdW  Elec       q    Type
REMARK                         _______ _______ _______ _____ _____    ______ ____
ROOT
ATOM      1  N   UNL     1     -34.884  24.188   3.731  0.00  0.00    -0.398 NA
ATOM      2  N   UNL     1     -37.619  24.769   3.957  0.00  0.00    -0.247 NA
ATOM      3  N   UNL     1     -38.129  22.660   2.994  0.00  0.00    -0.341 N 
ATOM      4  C   UNL     1     -35.327  25.350   4.251  0.00  0.00    +0.134 C 
ATOM      5  C   UNL     1     -35.833  23.322   3.326  0.00  0.00    +0.198 C 
ATOM      6  C   UNL     1     -36.670  25.635   4.362  0.00  0.00    +0.185 C 
ATOM      7  C   UNL     1     -37.177  23.606   3.436  0.00  0.00    +0.154 C 
ATOM      8  H   UNL     1     -39.091  22.857   3.070  0.00  0.00    +0.144 HD
ATOM      9  H   UNL     1     -37.831  21.804   2.611  0.00  0.00    +0.144 HD
ENDROOT
BRANCH   4  13
ATOM     10  C   UNL     1     -32.337  28.069   5.524  0.00  0.00    +0.106 C 
ATOM     11  C   UNL     1     -32.869  27.145   6.423  0.00  0.00    +0.018 C 
ATOM     12  C   UNL     1     -32.790  28.098   4.205  0.00  0.00    +0.018 C 
ATOM     13  C   UNL     1     -34.305  26.279   4.686  0.00  0.00    +0.027 C 
ATOM     14  C   UNL     1     -33.853  26.249   6.004  0.00  0.00    +0.004 C 
ATOM     15  C   UNL     1     -33.774  27.203   3.786  0.00  0.00    +0.004 C 
BRANCH  10  16
ATOM     16  S   UNL     1     -31.092  29.203   6.054  0.00  0.00    +0.007 S 
ATOM     17  O   UNL     1     -30.913  30.196   5.013  0.00  0.00    -0.169 OA
ATOM     18  O   UNL     1     -31.426  29.604   7.407  0.00  0.00    -0.169 OA
BRANCH  16  19
ATOM     19  C   UNL     1     -29.619  28.217   6.109  0.00  0.00    +0.134 C 
ATOM     20  C   UNL     1     -28.994  28.126   4.725  0.00  0.00    +0.026 C 
ATOM     21  C   UNL     1     -28.640  28.788   7.125  0.00  0.00    +0.026 C 
ENDBRANCH  16  19
ENDBRANCH  10  16
ENDBRANCH   4  13
BRANCH   5  24
ATOM     22  O   UNL     1     -35.464  20.993   3.558  0.00  0.00    -0.351 OA
ATOM     23  N   UNL     1     -34.922  19.893   2.906  0.00  0.00    -0.077 NA
ATOM     24  C   UNL     1     -35.317  22.094   2.777  0.00  0.00    +0.209 C 
ATOM     25  C   UNL     1     -34.462  20.370   1.746  0.00  0.00    +0.123 C 
ATOM     26  C   UNL     1     -34.685  21.751   1.612  0.00  0.00    +0.065 C 
BRANCH  25  27
ATOM     27  C   UNL     1     -33.825  19.499   0.794  0.00  0.00    +0.021 C 
ATOM     28  C   UNL     1     -32.592  17.812  -1.054  0.00  0.00    -0.044 C 
ATOM     29  C   UNL     1     -34.140  19.600  -0.561  0.00  0.00    +0.001 C 
ATOM     30  C   UNL     1     -32.893  18.556   1.226  0.00  0.00    +0.001 C 
ATOM     31  C   UNL     1     -33.524  18.756  -1.485  0.00  0.00    -0.006 C 
ATOM     32  C   UNL     1     -32.276  17.712   0.302  0.00  0.00    -0.006 C 
BRANCH  28  33
ATOM     33  C   UNL     1     -31.932  16.909  -2.041  0.00  0.00    -0.054 C 
BRANCH  33  34
ATOM     34  N   UNL     1     -32.798  16.605  -3.181  0.00  0.00    +0.385 N 
ATOM     35  C   UNL     1     -32.626  15.223  -3.601  0.00  0.00    -0.105 C 
ATOM     36  H   UNL     1     -32.560  17.223  -3.958  0.00  0.00    -0.084 HD
ATOM     37  H   UNL     1     -33.770  16.744  -2.903  0.00  0.00    -0.084 HD
ENDBRANCH  33  34
ENDBRANCH  28  33
ENDBRANCH  25  27
ENDBRANCH   5  24
TORSDOF 7
ENDMDL
