MODEL 1
REMARK VINA RESULT:      -7.2      0.000      0.000
REMARK  Name = 54676228
REMARK  2 active torsions:
REMARK  status: ('A' for Active; 'I' for Inactive)
REMARK    1  A    between atoms: C_7  and  C_16
REMARK    2  A    between atoms: C_8  and  O_24
REMARK                            x       y       z     vdW  Elec       q    Type
REMARK                         _______ _______ _______ _____ _____    ______ ____
ROOT
ATOM      1  S   UNL     1     -36.213  23.385   2.058  0.00  0.00    +0.077 S 
ATOM      2  O   UNL     1     -37.656  23.509   1.998  0.00  0.00    -0.150 OA
ATOM      3  O   UNL     1     -35.505  22.442   1.215  0.00  0.00    -0.150 OA
ATOM      4  N   UNL     1     -35.483  24.943   1.912  0.00  0.00    -0.181 N 
ATOM      5  C   UNL     1     -35.822  23.017   3.731  0.00  0.00    +0.128 C 
ATOM      6  C   UNL     1     -35.777  24.086   4.634  0.00  0.00    +0.054 C 
ATOM      7  C   UNL     1     -35.928  25.880   2.914  0.00  0.00    +0.156 C 
ATOM      8  C   UNL     1     -36.062  25.473   4.192  0.00  0.00    +0.154 C 
ATOM      9  C   UNL     1     -35.554  21.703   4.108  0.00  0.00    +0.020 C 
ATOM     10  C   UNL     1     -34.017  24.974   1.638  0.00  0.00    +0.139 C 
ATOM     11  C   UNL     1     -35.462  23.789   5.968  0.00  0.00    +0.004 C 
ATOM     12  C   UNL     1     -35.240  21.435   5.436  0.00  0.00    +0.001 C 
ATOM     13  C   UNL     1     -35.194  22.474   6.365  0.00  0.00    +0.000 C 
ENDROOT
BRANCH   7  16
ATOM     14  O   UNL     1     -37.076  27.494   1.686  0.00  0.00    -0.268 OA
ATOM     15  N   UNL     1     -35.182  28.125   2.933  0.00  0.00    -0.265 N 
ATOM     16  C   UNL     1     -36.136  27.250   2.437  0.00  0.00    +0.269 C 
ATOM     17  H   UNL     1     -34.501  27.735   3.528  0.00  0.00    +0.157 HD
ATOM     18  N   UNL     1     -34.064  30.199   3.265  0.00  0.00    -0.229 NA
ATOM     19  C   UNL     1     -35.075  29.515   2.684  0.00  0.00    +0.134 C 
ATOM     20  C   UNL     1     -36.021  30.089   1.849  0.00  0.00    +0.034 C 
ATOM     21  C   UNL     1     -35.924  31.453   1.597  0.00  0.00    +0.004 C 
ATOM     22  C   UNL     1     -34.001  31.522   2.998  0.00  0.00    +0.100 C 
ATOM     23  C   UNL     1     -34.898  32.191   2.179  0.00  0.00    +0.021 C 
ENDBRANCH   7  16
BRANCH   8  24
ATOM     24  O   UNL     1     -36.463  26.305   5.221  0.00  0.00    -0.504 OA
ATOM     25  H   UNL     1     -36.896  25.947   5.972  0.00  0.00    +0.292 HD
ENDBRANCH   8  24
TORSDOF 2
ENDMDL
MODEL 2
REMARK VINA RESULT:      -6.9      1.313      1.692
REMARK  Name = 54676228
REMARK  2 active torsions:
REMARK  status: ('A' for Active; 'I' for Inactive)
REMARK    1  A    between atoms: C_7  and  C_16
REMARK    2  A    between atoms: C_8  and  O_24
REMARK                            x       y       z     vdW  Elec       q    Type
REMARK                         _______ _______ _______ _____ _____    ______ ____
ROOT
ATOM      1  S   UNL     1     -35.797  24.086   1.978  0.00  0.00    +0.077 S 
ATOM      2  O   UNL     1     -37.192  24.478   1.930  0.00  0.00    -0.150 OA
ATOM      3  O   UNL     1     -35.230  23.205   0.976  0.00  0.00    -0.150 OA
ATOM      4  N   UNL     1     -34.798  25.485   2.140  0.00  0.00    -0.181 N 
ATOM      5  C   UNL     1     -35.549  23.346   3.553  0.00  0.00    +0.128 C 
ATOM      6  C   UNL     1     -35.355  24.201   4.645  0.00  0.00    +0.054 C 
ATOM      7  C   UNL     1     -35.114  26.282   3.300  0.00  0.00    +0.156 C 
ATOM      8  C   UNL     1     -35.373  25.674   4.475  0.00  0.00    +0.154 C 
ATOM      9  C   UNL     1     -35.534  21.958   3.672  0.00  0.00    +0.020 C 
ATOM     10  C   UNL     1     -33.339  25.300   1.890  0.00  0.00    +0.139 C 
ATOM     11  C   UNL     1     -35.156  23.607   5.899  0.00  0.00    +0.004 C 
ATOM     12  C   UNL     1     -35.329  21.393   4.927  0.00  0.00    +0.001 C 
ATOM     13  C   UNL     1     -35.141  22.214   6.038  0.00  0.00    +0.000 C 
ENDROOT
BRANCH   7  16
ATOM     14  O   UNL     1     -34.257  28.405   3.736  0.00  0.00    -0.268 OA
ATOM     15  N   UNL     1     -35.972  28.158   2.142  0.00  0.00    -0.265 N 
ATOM     16  C   UNL     1     -35.057  27.732   3.093  0.00  0.00    +0.269 C 
ATOM     17  H   UNL     1     -36.532  27.459   1.733  0.00  0.00    +0.157 HD
ATOM     18  N   UNL     1     -37.140  29.695   0.751  0.00  0.00    -0.229 NA
ATOM     19  C   UNL     1     -36.194  29.482   1.693  0.00  0.00    +0.134 C 
ATOM     20  C   UNL     1     -35.418  30.485   2.253  0.00  0.00    +0.034 C 
ATOM     21  C   UNL     1     -35.629  31.789   1.819  0.00  0.00    +0.004 C 
ATOM     22  C   UNL     1     -37.317  30.974   0.353  0.00  0.00    +0.100 C 
ATOM     23  C   UNL     1     -36.594  32.047   0.850  0.00  0.00    +0.021 C 
ENDBRANCH   7  16
BRANCH   8  24
ATOM     24  O   UNL     1     -35.665  26.357   5.641  0.00  0.00    -0.504 OA
ATOM     25  H   UNL     1     -35.705  25.896   6.456  0.00  0.00    +0.292 HD
ENDBRANCH   8  24
TORSDOF 2
ENDMDL
MODEL 3
REMARK VINA RESULT:      -6.7      4.652      8.599
REMARK  Name = 54676228
REMARK  2 active torsions:
REMARK  status: ('A' for Active; 'I' for Inactive)
REMARK    1  A    between atoms: C_7  and  C_16
REMARK    2  A    between atoms: C_8  and  O_24
REMARK                            x       y       z     vdW  Elec       q    Type
REMARK                         _______ _______ _______ _____ _____    ______ ____
ROOT
ATOM      1  S   UNL     1     -36.596  23.609   2.181  0.00  0.00    +0.077 S 
ATOM      2  O   UNL     1     -35.439  23.944   1.375  0.00  0.00    -0.150 OA
ATOM      3  O   UNL     1     -37.609  24.600   2.488  0.00  0.00    -0.150 OA
ATOM      4  N   UNL     1     -37.355  22.189   1.558  0.00  0.00    -0.181 N 
ATOM      5  C   UNL     1     -35.972  22.984   3.700  0.00  0.00    +0.128 C 
ATOM      6  C   UNL     1     -35.556  21.647   3.726  0.00  0.00    +0.054 C 
ATOM      7  C   UNL     1     -36.472  21.051   1.489  0.00  0.00    +0.156 C 
ATOM      8  C   UNL     1     -35.629  20.799   2.511  0.00  0.00    +0.154 C 
ATOM      9  C   UNL     1     -35.923  23.808   4.822  0.00  0.00    +0.020 C 
ATOM     10  C   UNL     1     -38.726  21.884   2.064  0.00  0.00    +0.139 C 
ATOM     11  C   UNL     1     -35.061  21.151   4.940  0.00  0.00    +0.004 C 
ATOM     12  C   UNL     1     -35.432  23.291   6.016  0.00  0.00    +0.001 C 
ATOM     13  C   UNL     1     -35.000  21.966   6.077  0.00  0.00    +0.000 C 
ENDROOT
BRANCH   7  16
ATOM     14  O   UNL     1     -36.426  20.696  -0.814  0.00  0.00    -0.268 OA
ATOM     15  N   UNL     1     -37.005  18.918   0.617  0.00  0.00    -0.265 N 
ATOM     16  C   UNL     1     -36.628  20.213   0.296  0.00  0.00    +0.269 C 
ATOM     17  H   UNL     1     -37.119  18.722   1.575  0.00  0.00    +0.157 HD
ATOM     18  N   UNL     1     -37.608  16.648   0.236  0.00  0.00    -0.229 NA
ATOM     19  C   UNL     1     -37.245  17.845  -0.276  0.00  0.00    +0.134 C 
ATOM     20  C   UNL     1     -37.093  18.095  -1.631  0.00  0.00    +0.034 C 
ATOM     21  C   UNL     1     -37.327  17.049  -2.515  0.00  0.00    +0.004 C 
ATOM     22  C   UNL     1     -37.827  15.654  -0.653  0.00  0.00    +0.100 C 
ATOM     23  C   UNL     1     -37.701  15.801  -2.025  0.00  0.00    +0.021 C 
ENDBRANCH   7  16
BRANCH   8  24
ATOM     24  O   UNL     1     -34.762  19.723   2.540  0.00  0.00    -0.504 OA
ATOM     25  H   UNL     1     -33.902  19.804   2.176  0.00  0.00    +0.292 HD
ENDBRANCH   8  24
TORSDOF 2
ENDMDL
MODEL 4
REMARK VINA RESULT:      -6.5      2.821      3.921
REMARK  Name = 54676228
REMARK  2 active torsions:
REMARK  status: ('A' for Active; 'I' for Inactive)
REMARK    1  A    between atoms: C_7  and  C_16
REMARK    2  A    between atoms: C_8  and  O_24
REMARK                            x       y       z     vdW  Elec       q    Type
REMARK                         _______ _______ _______ _____ _____    ______ ____
ROOT
ATOM      1  S   UNL     1     -35.499  22.574   3.006  0.00  0.00    +0.077 S 
ATOM      2  O   UNL     1     -34.783  23.235   1.933  0.00  0.00    -0.150 OA
ATOM      3  O   UNL     1     -35.437  21.135   3.174  0.00  0.00    -0.150 OA
ATOM      4  N   UNL     1     -35.143  23.341   4.512  0.00  0.00    -0.181 N 
ATOM      5  C   UNL     1     -37.187  23.026   2.821  0.00  0.00    +0.128 C 
ATOM      6  C   UNL     1     -37.579  24.275   3.318  0.00  0.00    +0.054 C 
ATOM      7  C   UNL     1     -35.452  24.749   4.523  0.00  0.00    +0.156 C 
ATOM      8  C   UNL     1     -36.599  25.184   3.963  0.00  0.00    +0.154 C 
ATOM      9  C   UNL     1     -38.079  22.145   2.215  0.00  0.00    +0.020 C 
ATOM     10  C   UNL     1     -35.536  22.606   5.749  0.00  0.00    +0.139 C 
ATOM     11  C   UNL     1     -38.926  24.632   3.171  0.00  0.00    +0.004 C 
ATOM     12  C   UNL     1     -39.412  22.520   2.085  0.00  0.00    +0.001 C 
ATOM     13  C   UNL     1     -39.836  23.760   2.561  0.00  0.00    +0.000 C 
ENDROOT
BRANCH   7  16
ATOM     14  O   UNL     1     -34.064  25.249   6.327  0.00  0.00    -0.268 OA
ATOM     15  N   UNL     1     -34.159  26.730   4.499  0.00  0.00    -0.265 N 
ATOM     16  C   UNL     1     -34.482  25.594   5.225  0.00  0.00    +0.269 C 
ATOM     17  H   UNL     1     -34.604  26.830   3.626  0.00  0.00    +0.157 HD
ATOM     18  N   UNL     1     -33.081  28.795   4.015  0.00  0.00    -0.229 NA
ATOM     19  C   UNL     1     -33.261  27.762   4.867  0.00  0.00    +0.134 C 
ATOM     20  C   UNL     1     -32.621  27.645   6.091  0.00  0.00    +0.034 C 
ATOM     21  C   UNL     1     -31.739  28.653   6.462  0.00  0.00    +0.004 C 
ATOM     22  C   UNL     1     -32.216  29.756   4.409  0.00  0.00    +0.100 C 
ATOM     23  C   UNL     1     -31.526  29.733   5.610  0.00  0.00    +0.021 C 
ENDBRANCH   7  16
BRANCH   8  24
ATOM     24  O   UNL     1     -36.986  26.511   3.944  0.00  0.00    -0.504 OA
ATOM     25  H   UNL     1     -36.783  27.048   3.203  0.00  0.00    +0.292 HD
ENDBRANCH   8  24
TORSDOF 2
ENDMDL
MODEL 5
REMARK VINA RESULT:      -6.5      4.172      7.716
REMARK  Name = 54676228
REMARK  2 active torsions:
REMARK  status: ('A' for Active; 'I' for Inactive)
REMARK    1  A    between atoms: C_7  and  C_16
REMARK    2  A    between atoms: C_8  and  O_24
REMARK                            x       y       z     vdW  Elec       q    Type
REMARK                         _______ _______ _______ _____ _____    ______ ____
ROOT
ATOM      1  S   UNL     1     -36.628  24.692   3.643  0.00  0.00    +0.077 S 
ATOM      2  O   UNL     1     -36.740  24.093   4.958  0.00  0.00    -0.150 OA
ATOM      3  O   UNL     1     -36.112  26.036   3.472  0.00  0.00    -0.150 OA
ATOM      4  N   UNL     1     -35.792  23.619   2.578  0.00  0.00    -0.181 N 
ATOM      5  C   UNL     1     -38.236  24.634   2.938  0.00  0.00    +0.128 C 
ATOM      6  C   UNL     1     -38.646  23.425   2.363  0.00  0.00    +0.054 C 
ATOM      7  C   UNL     1     -36.416  22.324   2.466  0.00  0.00    +0.156 C 
ATOM      8  C   UNL     1     -37.757  22.238   2.363  0.00  0.00    +0.154 C 
ATOM      9  C   UNL     1     -39.041  25.771   2.952  0.00  0.00    +0.020 C 
ATOM     10  C   UNL     1     -35.312  24.194   1.288  0.00  0.00    +0.139 C 
ATOM     11  C   UNL     1     -39.929  23.383   1.799  0.00  0.00    +0.004 C 
ATOM     12  C   UNL     1     -40.308  25.705   2.383  0.00  0.00    +0.001 C 
ATOM     13  C   UNL     1     -40.753  24.515   1.808  0.00  0.00    +0.000 C 
ENDROOT
BRANCH   7  16
ATOM     14  O   UNL     1     -35.242  20.556   3.431  0.00  0.00    -0.268 OA
ATOM     15  N   UNL     1     -34.996  20.985   1.129  0.00  0.00    -0.265 N 
ATOM     16  C   UNL     1     -35.489  21.189   2.409  0.00  0.00    +0.269 C 
ATOM     17  H   UNL     1     -35.316  21.605   0.435  0.00  0.00    +0.157 HD
ATOM     18  N   UNL     1     -33.721  19.952  -0.595  0.00  0.00    -0.229 NA
ATOM     19  C   UNL     1     -34.084  19.987   0.707  0.00  0.00    +0.134 C 
ATOM     20  C   UNL     1     -33.618  19.101   1.666  0.00  0.00    +0.034 C 
ATOM     21  C   UNL     1     -32.722  18.118   1.262  0.00  0.00    +0.004 C 
ATOM     22  C   UNL     1     -32.849  18.983  -0.951  0.00  0.00    +0.100 C 
ATOM     23  C   UNL     1     -32.325  18.050  -0.070  0.00  0.00    +0.021 C 
ENDBRANCH   7  16
BRANCH   8  24
ATOM     24  O   UNL     1     -38.439  21.042   2.231  0.00  0.00    -0.504 OA
ATOM     25  H   UNL     1     -39.047  20.775   2.893  0.00  0.00    +0.292 HD
ENDBRANCH   8  24
TORSDOF 2
ENDMDL
MODEL 6
REMARK VINA RESULT:      -6.4      3.969      5.894
REMARK  Name = 54676228
REMARK  2 active torsions:
REMARK  status: ('A' for Active; 'I' for Inactive)
REMARK    1  A    between atoms: C_7  and  C_16
REMARK    2  A    between atoms: C_8  and  O_24
REMARK                            x       y       z     vdW  Elec       q    Type
REMARK                         _______ _______ _______ _____ _____    ______ ____
ROOT
ATOM      1  S   UNL     1     -39.829  21.385   0.206  0.00  0.00    +0.077 S 
ATOM      2  O   UNL     1     -40.639  20.936   1.321  0.00  0.00    -0.150 OA
ATOM      3  O   UNL     1     -40.436  21.796  -1.045  0.00  0.00    -0.150 OA
ATOM      4  N   UNL     1     -38.727  22.606   0.734  0.00  0.00    -0.181 N 
ATOM      5  C   UNL     1     -38.703  20.081  -0.139  0.00  0.00    +0.128 C 
ATOM      6  C   UNL     1     -37.560  19.986   0.664  0.00  0.00    +0.054 C 
ATOM      7  C   UNL     1     -37.869  22.174   1.809  0.00  0.00    +0.156 C 
ATOM      8  C   UNL     1     -37.321  20.943   1.771  0.00  0.00    +0.154 C 
ATOM      9  C   UNL     1     -38.959  19.204  -1.191  0.00  0.00    +0.020 C 
ATOM     10  C   UNL     1     -38.044  23.398  -0.330  0.00  0.00    +0.139 C 
ATOM     11  C   UNL     1     -36.663  18.945   0.384  0.00  0.00    +0.004 C 
ATOM     12  C   UNL     1     -38.051  18.183  -1.451  0.00  0.00    +0.001 C 
ATOM     13  C   UNL     1     -36.906  18.052  -0.666  0.00  0.00    +0.000 C 
ENDROOT
BRANCH   7  16
ATOM     14  O   UNL     1     -38.563  23.698   3.430  0.00  0.00    -0.268 OA
ATOM     15  N   UNL     1     -36.261  23.414   3.024  0.00  0.00    -0.265 N 
ATOM     16  C   UNL     1     -37.616  23.180   2.845  0.00  0.00    +0.269 C 
ATOM     17  H   UNL     1     -35.651  22.894   2.453  0.00  0.00    +0.157 HD
ATOM     18  N   UNL     1     -34.306  24.400   3.956  0.00  0.00    -0.229 NA
ATOM     19  C   UNL     1     -35.655  24.315   3.933  0.00  0.00    +0.134 C 
ATOM     20  C   UNL     1     -36.493  25.059   4.749  0.00  0.00    +0.034 C 
ATOM     21  C   UNL     1     -35.908  25.947   5.645  0.00  0.00    +0.004 C 
ATOM     22  C   UNL     1     -33.773  25.273   4.839  0.00  0.00    +0.100 C 
ATOM     23  C   UNL     1     -34.522  26.062   5.697  0.00  0.00    +0.021 C 
ENDBRANCH   7  16
BRANCH   8  24
ATOM     24  O   UNL     1     -36.472  20.454   2.746  0.00  0.00    -0.504 OA
ATOM     25  H   UNL     1     -36.532  20.775   3.624  0.00  0.00    +0.292 HD
ENDBRANCH   8  24
TORSDOF 2
ENDMDL
MODEL 7
REMARK VINA RESULT:      -6.3      3.104      3.664
REMARK  Name = 54676228
REMARK  2 active torsions:
REMARK  status: ('A' for Active; 'I' for Inactive)
REMARK    1  A    between atoms: C_7  and  C_16
REMARK    2  A    between atoms: C_8  and  O_24
REMARK                            x       y       z     vdW  Elec       q    Type
REMARK                         _______ _______ _______ _____ _____    ______ ____
ROOT
ATOM      1  S   UNL     1     -35.453  25.737   2.257  0.00  0.00    +0.077 S 
ATOM      2  O   UNL     1     -36.535  26.625   2.634  0.00  0.00    -0.150 OA
ATOM      3  O   UNL     1     -35.432  25.089   0.960  0.00  0.00    -0.150 OA
ATOM      4  N   UNL     1     -33.934  26.510   2.534  0.00  0.00    -0.181 N 
ATOM      5  C   UNL     1     -35.392  24.486   3.489  0.00  0.00    +0.128 C 
ATOM      6  C   UNL     1     -34.735  24.791   4.687  0.00  0.00    +0.054 C 
ATOM      7  C   UNL     1     -33.751  26.938   3.899  0.00  0.00    +0.156 C 
ATOM      8  C   UNL     1     -34.127  26.126   4.907  0.00  0.00    +0.154 C 
ATOM      9  C   UNL     1     -35.970  23.242   3.244  0.00  0.00    +0.020 C 
ATOM     10  C   UNL     1     -32.735  25.875   1.914  0.00  0.00    +0.139 C 
ATOM     11  C   UNL     1     -34.686  23.790   5.667  0.00  0.00    +0.004 C 
ATOM     12  C   UNL     1     -35.904  22.264   4.231  0.00  0.00    +0.001 C 
ATOM     13  C   UNL     1     -35.265  22.535   5.440  0.00  0.00    +0.000 C 
ENDROOT
BRANCH   7  16
ATOM     14  O   UNL     1     -33.687  29.263   3.749  0.00  0.00    -0.268 OA
ATOM     15  N   UNL     1     -31.808  28.108   4.573  0.00  0.00    -0.265 N 
ATOM     16  C   UNL     1     -33.091  28.237   4.061  0.00  0.00    +0.269 C 
ATOM     17  H   UNL     1     -31.505  27.190   4.761  0.00  0.00    +0.157 HD
ATOM     18  N   UNL     1     -29.675  28.812   5.356  0.00  0.00    -0.229 NA
ATOM     19  C   UNL     1     -30.887  29.144   4.857  0.00  0.00    +0.134 C 
ATOM     20  C   UNL     1     -31.289  30.446   4.600  0.00  0.00    +0.034 C 
ATOM     21  C   UNL     1     -30.391  31.471   4.875  0.00  0.00    +0.004 C 
ATOM     22  C   UNL     1     -28.828  29.834   5.611  0.00  0.00    +0.100 C 
ATOM     23  C   UNL     1     -29.134  31.167   5.391  0.00  0.00    +0.021 C 
ENDBRANCH   7  16
BRANCH   8  24
ATOM     24  O   UNL     1     -33.971  26.444   6.244  0.00  0.00    -0.504 OA
ATOM     25  H   UNL     1     -34.182  25.812   6.903  0.00  0.00    +0.292 HD
ENDBRANCH   8  24
TORSDOF 2
ENDMDL
MODEL 8
REMARK VINA RESULT:      -6.2      5.402      8.104
REMARK  Name = 54676228
REMARK  2 active torsions:
REMARK  status: ('A' for Active; 'I' for Inactive)
REMARK    1  A    between atoms: C_7  and  C_16
REMARK    2  A    between atoms: C_8  and  O_24
REMARK                            x       y       z     vdW  Elec       q    Type
REMARK                         _______ _______ _______ _____ _____    ______ ____
ROOT
ATOM      1  S   UNL     1     -30.277  30.117   3.752  0.00  0.00    +0.077 S 
ATOM      2  O   UNL     1     -29.931  28.994   2.903  0.00  0.00    -0.150 OA
ATOM      3  O   UNL     1     -30.532  31.430   3.193  0.00  0.00    -0.150 OA
ATOM      4  N   UNL     1     -31.576  29.681   4.803  0.00  0.00    -0.181 N 
ATOM      5  C   UNL     1     -28.973  30.269   4.921  0.00  0.00    +0.128 C 
ATOM      6  C   UNL     1     -28.996  29.413   6.029  0.00  0.00    +0.054 C 
ATOM      7  C   UNL     1     -31.288  28.530   5.622  0.00  0.00    +0.156 C 
ATOM      8  C   UNL     1     -30.075  28.409   6.197  0.00  0.00    +0.154 C 
ATOM      9  C   UNL     1     -27.980  31.227   4.731  0.00  0.00    +0.020 C 
ATOM     10  C   UNL     1     -32.265  30.796   5.516  0.00  0.00    +0.139 C 
ATOM     11  C   UNL     1     -27.956  29.538   6.960  0.00  0.00    +0.004 C 
ATOM     12  C   UNL     1     -26.961  31.335   5.672  0.00  0.00    +0.001 C 
ATOM     13  C   UNL     1     -26.947  30.493   6.783  0.00  0.00    +0.000 C 
ENDROOT
BRANCH   7  16
ATOM     14  O   UNL     1     -32.513  26.981   6.859  0.00  0.00    -0.268 OA
ATOM     15  N   UNL     1     -33.234  27.556   4.693  0.00  0.00    -0.265 N 
ATOM     16  C   UNL     1     -32.408  27.601   5.806  0.00  0.00    +0.269 C 
ATOM     17  H   UNL     1     -32.980  28.134   3.938  0.00  0.00    +0.157 HD
ATOM     18  N   UNL     1     -35.076  26.871   3.351  0.00  0.00    -0.229 NA
ATOM     19  C   UNL     1     -34.402  26.775   4.519  0.00  0.00    +0.134 C 
ATOM     20  C   UNL     1     -34.782  25.952   5.568  0.00  0.00    +0.034 C 
ATOM     21  C   UNL     1     -35.927  25.180   5.407  0.00  0.00    +0.004 C 
ATOM     22  C   UNL     1     -36.184  26.106   3.230  0.00  0.00    +0.100 C 
ATOM     23  C   UNL     1     -36.647  25.253   4.218  0.00  0.00    +0.021 C 
ENDBRANCH   7  16
BRANCH   8  24
ATOM     24  O   UNL     1     -29.718  27.351   7.012  0.00  0.00    -0.504 OA
ATOM     25  H   UNL     1     -29.578  27.492   7.928  0.00  0.00    +0.292 HD
ENDBRANCH   8  24
TORSDOF 2
ENDMDL
MODEL 9
REMARK VINA RESULT:      -6.2      2.531      7.247
REMARK  Name = 54676228
REMARK  2 active torsions:
REMARK  status: ('A' for Active; 'I' for Inactive)
REMARK    1  A    between atoms: C_7  and  C_16
REMARK    2  A    between atoms: C_8  and  O_24
REMARK                            x       y       z     vdW  Elec       q    Type
REMARK                         _______ _______ _______ _____ _____    ______ ____
ROOT
ATOM      1  S   UNL     1     -33.890  29.805   2.599  0.00  0.00    +0.077 S 
ATOM      2  O   UNL     1     -34.593  30.398   3.720  0.00  0.00    -0.150 OA
ATOM      3  O   UNL     1     -32.624  30.341   2.139  0.00  0.00    -0.150 OA
ATOM      4  N   UNL     1     -33.737  28.101   2.837  0.00  0.00    -0.181 N 
ATOM      5  C   UNL     1     -35.013  29.827   1.248  0.00  0.00    +0.128 C 
ATOM      6  C   UNL     1     -35.977  28.813   1.192  0.00  0.00    +0.054 C 
ATOM      7  C   UNL     1     -35.001  27.433   3.020  0.00  0.00    +0.156 C 
ATOM      8  C   UNL     1     -36.051  27.769   2.244  0.00  0.00    +0.154 C 
ATOM      9  C   UNL     1     -34.910  30.821   0.277  0.00  0.00    +0.020 C 
ATOM     10  C   UNL     1     -32.775  27.384   1.950  0.00  0.00    +0.139 C 
ATOM     11  C   UNL     1     -36.869  28.833   0.111  0.00  0.00    +0.004 C 
ATOM     12  C   UNL     1     -35.804  30.816  -0.788  0.00  0.00    +0.001 C 
ATOM     13  C   UNL     1     -36.783  29.826  -0.872  0.00  0.00    +0.000 C 
ENDROOT
BRANCH   7  16
ATOM     14  O   UNL     1     -34.869  26.657   5.214  0.00  0.00    -0.268 OA
ATOM     15  N   UNL     1     -35.164  25.114   3.460  0.00  0.00    -0.265 N 
ATOM     16  C   UNL     1     -35.003  26.369   4.029  0.00  0.00    +0.269 C 
ATOM     17  H   UNL     1     -35.256  25.088   2.481  0.00  0.00    +0.157 HD
ATOM     18  N   UNL     1     -35.378  22.745   3.391  0.00  0.00    -0.229 NA
ATOM     19  C   UNL     1     -35.213  23.867   4.128  0.00  0.00    +0.134 C 
ATOM     20  C   UNL     1     -35.086  23.875   5.509  0.00  0.00    +0.034 C 
ATOM     21  C   UNL     1     -35.131  22.655   6.173  0.00  0.00    +0.004 C 
ATOM     22  C   UNL     1     -35.417  21.578   4.071  0.00  0.00    +0.100 C 
ATOM     23  C   UNL     1     -35.300  21.479   5.448  0.00  0.00    +0.021 C 
ENDBRANCH   7  16
BRANCH   8  24
ATOM     24  O   UNL     1     -37.293  27.169   2.335  0.00  0.00    -0.504 OA
ATOM     25  H   UNL     1     -37.997  27.465   1.791  0.00  0.00    +0.292 HD
ENDBRANCH   8  24
TORSDOF 2
ENDMDL
