MODEL 1
REMARK VINA RESULT:      -7.1      0.000      0.000
REMARK  Name = 191882
REMARK  8 active torsions:
REMARK  status: ('A' for Active; 'I' for Inactive)
REMARK    1  A    between atoms: C_8  and  O_25
REMARK    2  A    between atoms: C_14  and  O_27
REMARK    3  A    between atoms: C_16  and  O_29
REMARK    4  A    between atoms: C_17  and  O_31
REMARK    5  A    between atoms: O_31  and  C_33
REMARK    6  A    between atoms: C_33  and  C_34
REMARK    7  A    between atoms: C_34  and  O_36
REMARK    8  A    between atoms: C_34  and  C_38
REMARK                            x       y       z     vdW  Elec       q    Type
REMARK                         _______ _______ _______ _____ _____    ______ ____
ROOT
ATOM      1  O   UNL     1     -37.935  25.500   2.892  0.00  0.00    -0.332 OA
ATOM      2  O   UNL     1     -35.250  23.335   5.536  0.00  0.00    -0.450 OA
ATOM      3  O   UNL     1     -35.182  21.090   5.309  0.00  0.00    -0.246 OA
ATOM      4  O   UNL     1     -32.879  30.256   2.791  0.00  0.00    -0.289 OA
ATOM      5  C   UNL     1     -35.818  24.806   3.726  0.00  0.00    +0.076 C 
ATOM      6  C   UNL     1     -35.807  26.277   3.322  0.00  0.00    +0.063 C 
ATOM      7  C   UNL     1     -34.432  26.981   3.406  0.00  0.00    +0.040 C 
ATOM      8  C   UNL     1     -36.855  26.239   2.224  0.00  0.00    +0.213 C 
ATOM      9  C   UNL     1     -34.833  24.511   4.847  0.00  0.00    +0.172 C 
ATOM     10  C   UNL     1     -35.438  23.756   2.637  0.00  0.00    +0.078 C 
ATOM     11  C   UNL     1     -34.129  27.004   4.972  0.00  0.00    +0.025 C 
ATOM     12  C   UNL     1     -37.338  24.717   3.975  0.00  0.00    +0.149 C 
ATOM     13  C   UNL     1     -34.532  25.699   5.752  0.00  0.00    +0.048 C 
ATOM     14  C   UNL     1     -36.446  25.440   0.975  0.00  0.00    +0.180 C 
ATOM     15  C   UNL     1     -36.186  23.977   1.316  0.00  0.00    -0.009 C 
ATOM     16  C   UNL     1     -34.495  28.470   2.973  0.00  0.00    +0.172 C 
ATOM     17  C   UNL     1     -35.566  22.344   3.279  0.00  0.00    +0.270 C 
ATOM     18  C   UNL     1     -33.322  26.286   2.579  0.00  0.00    +0.003 C 
ATOM     19  C   UNL     1     -32.803  27.681   5.261  0.00  0.00    -0.041 C 
ATOM     20  C   UNL     1     -35.290  22.198   4.784  0.00  0.00    +0.358 C 
ATOM     21  C   UNL     1     -33.237  29.238   3.382  0.00  0.00    +0.199 C 
ATOM     22  C   UNL     1     -32.419  28.741   4.526  0.00  0.00    +0.031 C 
ATOM     23  C   UNL     1     -36.603  22.976   0.522  0.00  0.00    -0.006 C 
ATOM     24  C   UNL     1     -31.964  27.215   6.412  0.00  0.00    +0.026 C 
ENDROOT
BRANCH   8  25
ATOM     25  O   UNL     1     -37.271  27.554   1.892  0.00  0.00    -0.362 OA
ATOM     26  H   UNL     1     -37.670  27.973   2.670  0.00  0.00    +0.213 HD
ENDBRANCH   8  25
BRANCH  14  27
ATOM     27  O   UNL     1     -37.489  25.566   0.003  0.00  0.00    -0.376 OA
ATOM     28  H   UNL     1     -37.378  24.887  -0.681  0.00  0.00    +0.211 HD
ENDBRANCH  14  27
BRANCH  16  29
ATOM     29  O   UNL     1     -34.638  28.582   1.566  0.00  0.00    -0.377 OA
ATOM     30  H   UNL     1     -35.467  28.162   1.291  0.00  0.00    +0.211 HD
ENDBRANCH  16  29
BRANCH  17  31
ATOM     31  O   UNL     1     -34.690  21.427   2.631  0.00  0.00    -0.439 OA
BRANCH  31  33
ATOM     32  O   UNL     1     -36.387  19.895   2.345  0.00  0.00    -0.248 OA
ATOM     33  C   UNL     1     -35.286  20.343   2.046  0.00  0.00    +0.342 C 
BRANCH  33  34
ATOM     34  C   UNL     1     -34.387  19.756   0.960  0.00  0.00    +0.177 C 
ATOM     35  C   UNL     1     -33.405  18.764   1.581  0.00  0.00    +0.041 C 
BRANCH  34  36
ATOM     36  O   UNL     1     -35.238  19.015   0.087  0.00  0.00    -0.376 OA
ATOM     37  H   UNL     1     -34.716  18.346  -0.382  0.00  0.00    +0.211 HD
ENDBRANCH  34  36
BRANCH  34  38
ATOM     38  C   UNL     1     -33.697  20.882   0.171  0.00  0.00    +0.038 C 
ATOM     39  C   UNL     1     -32.205  20.669  -0.049  0.00  0.00    +0.003 C 
ENDBRANCH  34  38
ENDBRANCH  33  34
ENDBRANCH  31  33
ENDBRANCH  17  31
TORSDOF 8
ENDMDL
MODEL 2
REMARK VINA RESULT:      -7.0      2.639      7.940
REMARK  Name = 191882
REMARK  8 active torsions:
REMARK  status: ('A' for Active; 'I' for Inactive)
REMARK    1  A    between atoms: C_8  and  O_25
REMARK    2  A    between atoms: C_14  and  O_27
REMARK    3  A    between atoms: C_16  and  O_29
REMARK    4  A    between atoms: C_17  and  O_31
REMARK    5  A    between atoms: O_31  and  C_33
REMARK    6  A    between atoms: C_33  and  C_34
REMARK    7  A    between atoms: C_34  and  O_36
REMARK    8  A    between atoms: C_34  and  C_38
REMARK                            x       y       z     vdW  Elec       q    Type
REMARK                         _______ _______ _______ _____ _____    ______ ____
ROOT
ATOM      1  O   UNL     1     -36.250  20.790  -1.484  0.00  0.00    -0.332 OA
ATOM      2  O   UNL     1     -32.796  23.118  -0.245  0.00  0.00    -0.450 OA
ATOM      3  O   UNL     1     -33.203  25.045   0.855  0.00  0.00    -0.246 OA
ATOM      4  O   UNL     1     -32.294  15.330   0.173  0.00  0.00    -0.289 OA
ATOM      5  C   UNL     1     -34.304  21.251  -0.197  0.00  0.00    +0.076 C 
ATOM      6  C   UNL     1     -34.400  19.771  -0.558  0.00  0.00    +0.063 C 
ATOM      7  C   UNL     1     -33.319  18.860   0.070  0.00  0.00    +0.040 C 
ATOM      8  C   UNL     1     -35.910  19.636  -0.640  0.00  0.00    +0.213 C 
ATOM      9  C   UNL     1     -32.863  21.709  -0.035  0.00  0.00    +0.172 C 
ATOM     10  C   UNL     1     -34.972  21.712   1.135  0.00  0.00    +0.078 C 
ATOM     11  C   UNL     1     -31.975  19.347  -0.637  0.00  0.00    +0.025 C 
ATOM     12  C   UNL     1     -35.162  21.762  -1.373  0.00  0.00    +0.149 C 
ATOM     13  C   UNL     1     -31.849  20.903  -0.838  0.00  0.00    +0.048 C 
ATOM     14  C   UNL     1     -36.642  19.806   0.702  0.00  0.00    +0.180 C 
ATOM     15  C   UNL     1     -36.407  21.194   1.287  0.00  0.00    -0.009 C 
ATOM     16  C   UNL     1     -33.484  17.371  -0.334  0.00  0.00    +0.172 C 
ATOM     17  C   UNL     1     -34.775  23.253   1.251  0.00  0.00    +0.270 C 
ATOM     18  C   UNL     1     -33.259  18.936   1.616  0.00  0.00    +0.003 C 
ATOM     19  C   UNL     1     -30.782  18.547  -0.152  0.00  0.00    -0.041 C 
ATOM     20  C   UNL     1     -33.515  23.876   0.630  0.00  0.00    +0.358 C 
ATOM     21  C   UNL     1     -32.238  16.547  -0.004  0.00  0.00    +0.199 C 
ATOM     22  C   UNL     1     -30.919  17.234   0.109  0.00  0.00    +0.031 C 
ATOM     23  C   UNL     1     -37.395  21.899   1.867  0.00  0.00    -0.006 C 
ATOM     24  C   UNL     1     -29.440  19.204  -0.040  0.00  0.00    +0.026 C 
ENDROOT
BRANCH   8  25
ATOM     25  O   UNL     1     -36.263  18.419  -1.279  0.00  0.00    -0.362 OA
ATOM     26  H   UNL     1     -36.019  17.672  -0.711  0.00  0.00    +0.213 HD
ENDBRANCH   8  25
BRANCH  14  27
ATOM     27  O   UNL     1     -38.037  19.567   0.482  0.00  0.00    -0.376 OA
ATOM     28  H   UNL     1     -38.254  18.657   0.739  0.00  0.00    +0.211 HD
ENDBRANCH  14  27
BRANCH  16  29
ATOM     29  O   UNL     1     -34.587  16.784   0.338  0.00  0.00    -0.377 OA
ATOM     30  H   UNL     1     -35.342  16.729  -0.268  0.00  0.00    +0.211 HD
ENDBRANCH  16  29
BRANCH  17  31
ATOM     31  O   UNL     1     -34.771  23.646   2.620  0.00  0.00    -0.439 OA
BRANCH  31  33
ATOM     32  O   UNL     1     -36.188  25.425   2.257  0.00  0.00    -0.248 OA
ATOM     33  C   UNL     1     -35.730  24.552   2.984  0.00  0.00    +0.342 C 
BRANCH  33  34
ATOM     34  C   UNL     1     -36.157  24.329   4.433  0.00  0.00    +0.177 C 
ATOM     35  C   UNL     1     -35.417  25.305   5.347  0.00  0.00    +0.041 C 
BRANCH  34  36
ATOM     36  O   UNL     1     -37.544  24.660   4.500  0.00  0.00    -0.376 OA
ATOM     37  H   UNL     1     -37.973  24.115   5.178  0.00  0.00    +0.211 HD
ENDBRANCH  34  36
BRANCH  34  38
ATOM     38  C   UNL     1     -35.960  22.856   4.828  0.00  0.00    +0.038 C 
ATOM     39  C   UNL     1     -35.165  22.652   6.112  0.00  0.00    +0.003 C 
ENDBRANCH  34  38
ENDBRANCH  33  34
ENDBRANCH  31  33
ENDBRANCH  17  31
TORSDOF 8
ENDMDL
MODEL 3
REMARK VINA RESULT:      -6.9      2.175      6.908
REMARK  Name = 191882
REMARK  8 active torsions:
REMARK  status: ('A' for Active; 'I' for Inactive)
REMARK    1  A    between atoms: C_8  and  O_25
REMARK    2  A    between atoms: C_14  and  O_27
REMARK    3  A    between atoms: C_16  and  O_29
REMARK    4  A    between atoms: C_17  and  O_31
REMARK    5  A    between atoms: O_31  and  C_33
REMARK    6  A    between atoms: C_33  and  C_34
REMARK    7  A    between atoms: C_34  and  O_36
REMARK    8  A    between atoms: C_34  and  C_38
REMARK                            x       y       z     vdW  Elec       q    Type
REMARK                         _______ _______ _______ _____ _____    ______ ____
ROOT
ATOM      1  O   UNL     1     -38.854  22.860  -0.276  0.00  0.00    -0.332 OA
ATOM      2  O   UNL     1     -35.371  25.458  -0.342  0.00  0.00    -0.450 OA
ATOM      3  O   UNL     1     -35.596  27.493   0.606  0.00  0.00    -0.246 OA
ATOM      4  O   UNL     1     -34.206  17.814   0.786  0.00  0.00    -0.289 OA
ATOM      5  C   UNL     1     -36.666  23.556   0.343  0.00  0.00    +0.076 C 
ATOM      6  C   UNL     1     -36.750  22.040   0.193  0.00  0.00    +0.063 C 
ATOM      7  C   UNL     1     -35.473  21.259   0.584  0.00  0.00    +0.040 C 
ATOM      8  C   UNL     1     -38.209  21.837   0.560  0.00  0.00    +0.213 C 
ATOM      9  C   UNL     1     -35.274  24.087   0.035  0.00  0.00    +0.172 C 
ATOM     10  C   UNL     1     -36.969  24.158   1.750  0.00  0.00    +0.078 C 
ATOM     11  C   UNL     1     -34.418  21.703  -0.526  0.00  0.00    +0.025 C 
ATOM     12  C   UNL     1     -37.851  23.879  -0.589  0.00  0.00    +0.149 C 
ATOM     13  C   UNL     1     -34.468  23.223  -0.928  0.00  0.00    +0.048 C 
ATOM     14  C   UNL     1     -38.550  22.149   2.026  0.00  0.00    +0.180 C 
ATOM     15  C   UNL     1     -38.264  23.609   2.361  0.00  0.00    -0.009 C 
ATOM     16  C   UNL     1     -35.635  19.725   0.413  0.00  0.00    +0.172 C 
ATOM     17  C   UNL     1     -36.860  25.707   1.631  0.00  0.00    +0.270 C 
ATOM     18  C   UNL     1     -34.991  21.534   2.030  0.00  0.00    +0.003 C 
ATOM     19  C   UNL     1     -33.082  21.017  -0.315  0.00  0.00    -0.041 C 
ATOM     20  C   UNL     1     -35.871  26.294   0.612  0.00  0.00    +0.358 C 
ATOM     21  C   UNL     1     -34.290  18.998   0.465  0.00  0.00    +0.199 C 
ATOM     22  C   UNL     1     -33.045  19.745   0.120  0.00  0.00    +0.031 C 
ATOM     23  C   UNL     1     -39.100  24.344   3.115  0.00  0.00    -0.006 C 
ATOM     24  C   UNL     1     -31.814  21.735  -0.664  0.00  0.00    +0.026 C 
ENDROOT
BRANCH   8  25
ATOM     25  O   UNL     1     -38.637  20.536   0.188  0.00  0.00    -0.362 OA
ATOM     26  H   UNL     1     -38.196  20.274  -0.636  0.00  0.00    +0.213 HD
ENDBRANCH   8  25
BRANCH  14  27
ATOM     27  O   UNL     1     -39.929  21.831   2.242  0.00  0.00    -0.376 OA
ATOM     28  H   UNL     1     -40.106  20.929   1.932  0.00  0.00    +0.211 HD
ENDBRANCH  14  27
BRANCH  16  29
ATOM     29  O   UNL     1     -36.462  19.187   1.433  0.00  0.00    -0.377 OA
ATOM     30  H   UNL     1     -36.461  18.220   1.373  0.00  0.00    +0.211 HD
ENDBRANCH  16  29
BRANCH  17  31
ATOM     31  O   UNL     1     -36.505  26.272   2.889  0.00  0.00    -0.439 OA
BRANCH  31  33
ATOM     32  O   UNL     1     -34.351  25.458   2.942  0.00  0.00    -0.248 OA
ATOM     33  C   UNL     1     -35.407  25.729   3.500  0.00  0.00    +0.342 C 
BRANCH  33  34
ATOM     34  C   UNL     1     -35.676  25.500   4.986  0.00  0.00    +0.177 C 
ATOM     35  C   UNL     1     -34.482  25.982   5.808  0.00  0.00    +0.041 C 
BRANCH  34  36
ATOM     36  O   UNL     1     -36.785  26.331   5.328  0.00  0.00    -0.376 OA
ATOM     37  H   UNL     1     -37.380  26.406   4.565  0.00  0.00    +0.211 HD
ENDBRANCH  34  36
BRANCH  34  38
ATOM     38  C   UNL     1     -36.038  24.027   5.242  0.00  0.00    +0.038 C 
ATOM     39  C   UNL     1     -34.852  23.148   5.620  0.00  0.00    +0.003 C 
ENDBRANCH  34  38
ENDBRANCH  33  34
ENDBRANCH  31  33
ENDBRANCH  17  31
TORSDOF 8
ENDMDL
MODEL 4
REMARK VINA RESULT:      -6.8      1.991      7.109
REMARK  Name = 191882
REMARK  8 active torsions:
REMARK  status: ('A' for Active; 'I' for Inactive)
REMARK    1  A    between atoms: C_8  and  O_25
REMARK    2  A    between atoms: C_14  and  O_27
REMARK    3  A    between atoms: C_16  and  O_29
REMARK    4  A    between atoms: C_17  and  O_31
REMARK    5  A    between atoms: O_31  and  C_33
REMARK    6  A    between atoms: C_33  and  C_34
REMARK    7  A    between atoms: C_34  and  O_36
REMARK    8  A    between atoms: C_34  and  C_38
REMARK                            x       y       z     vdW  Elec       q    Type
REMARK                         _______ _______ _______ _____ _____    ______ ____
ROOT
ATOM      1  O   UNL     1     -37.756  24.304   4.007  0.00  0.00    -0.332 OA
ATOM      2  O   UNL     1     -35.734  27.610   2.039  0.00  0.00    -0.450 OA
ATOM      3  O   UNL     1     -34.488  28.967   3.342  0.00  0.00    -0.246 OA
ATOM      4  O   UNL     1     -36.174  20.805  -1.778  0.00  0.00    -0.289 OA
ATOM      5  C   UNL     1     -36.140  25.306   2.577  0.00  0.00    +0.076 C 
ATOM      6  C   UNL     1     -36.685  24.010   1.985  0.00  0.00    +0.063 C 
ATOM      7  C   UNL     1     -36.013  23.541   0.673  0.00  0.00    +0.040 C 
ATOM      8  C   UNL     1     -37.013  23.271   3.271  0.00  0.00    +0.213 C 
ATOM      9  C   UNL     1     -35.706  26.290   1.501  0.00  0.00    +0.172 C 
ATOM     10  C   UNL     1     -34.881  25.207   3.492  0.00  0.00    +0.078 C 
ATOM     11  C   UNL     1     -36.442  24.660  -0.378  0.00  0.00    +0.025 C 
ATOM     12  C   UNL     1     -37.364  25.607   3.467  0.00  0.00    +0.149 C 
ATOM     13  C   UNL     1     -36.435  26.134   0.172  0.00  0.00    +0.048 C 
ATOM     14  C   UNL     1     -35.789  22.883   4.117  0.00  0.00    +0.180 C 
ATOM     15  C   UNL     1     -35.013  24.118   4.564  0.00  0.00    -0.009 C 
ATOM     16  C   UNL     1     -36.611  22.215   0.135  0.00  0.00    +0.172 C 
ATOM     17  C   UNL     1     -34.554  26.643   3.999  0.00  0.00    +0.270 C 
ATOM     18  C   UNL     1     -34.477  23.365   0.787  0.00  0.00    +0.003 C 
ATOM     19  C   UNL     1     -35.879  24.362  -1.754  0.00  0.00    -0.041 C 
ATOM     20  C   UNL     1     -34.895  27.834   3.090  0.00  0.00    +0.358 C 
ATOM     21  C   UNL     1     -36.194  21.944  -1.311  0.00  0.00    +0.199 C 
ATOM     22  C   UNL     1     -35.800  23.089  -2.182  0.00  0.00    +0.031 C 
ATOM     23  C   UNL     1     -34.512  24.232   5.806  0.00  0.00    -0.006 C 
ATOM     24  C   UNL     1     -35.486  25.490  -2.658  0.00  0.00    +0.026 C 
ENDROOT
BRANCH   8  25
ATOM     25  O   UNL     1     -37.839  22.150   3.000  0.00  0.00    -0.362 OA
ATOM     26  H   UNL     1     -37.498  21.375   3.473  0.00  0.00    +0.213 HD
ENDBRANCH   8  25
BRANCH  14  27
ATOM     27  O   UNL     1     -36.246  22.125   5.242  0.00  0.00    -0.376 OA
ATOM     28  H   UNL     1     -36.598  22.726   5.917  0.00  0.00    +0.211 HD
ENDBRANCH  14  27
BRANCH  16  29
ATOM     29  O   UNL     1     -36.191  21.113   0.925  0.00  0.00    -0.377 OA
ATOM     30  H   UNL     1     -36.957  20.730   1.379  0.00  0.00    +0.211 HD
ENDBRANCH  16  29
BRANCH  17  31
ATOM     31  O   UNL     1     -33.163  26.757   4.286  0.00  0.00    -0.439 OA
BRANCH  31  33
ATOM     32  O   UNL     1     -33.312  27.027   6.569  0.00  0.00    -0.248 OA
ATOM     33  C   UNL     1     -32.846  27.344   5.481  0.00  0.00    +0.342 C 
BRANCH  33  34
ATOM     34  C   UNL     1     -31.824  28.460   5.278  0.00  0.00    +0.177 C 
ATOM     35  C   UNL     1     -31.142  28.297   3.921  0.00  0.00    +0.041 C 
BRANCH  34  36
ATOM     36  O   UNL     1     -32.562  29.681   5.234  0.00  0.00    -0.376 OA
ATOM     37  H   UNL     1     -33.360  29.556   4.697  0.00  0.00    +0.211 HD
ENDBRANCH  34  36
BRANCH  34  38
ATOM     38  C   UNL     1     -30.835  28.500   6.456  0.00  0.00    +0.038 C 
ATOM     39  C   UNL     1     -29.810  29.625   6.375  0.00  0.00    +0.003 C 
ENDBRANCH  34  38
ENDBRANCH  33  34
ENDBRANCH  31  33
ENDBRANCH  17  31
TORSDOF 8
ENDMDL
MODEL 5
REMARK VINA RESULT:      -6.5      2.877      7.204
REMARK  Name = 191882
REMARK  8 active torsions:
REMARK  status: ('A' for Active; 'I' for Inactive)
REMARK    1  A    between atoms: C_8  and  O_25
REMARK    2  A    between atoms: C_14  and  O_27
REMARK    3  A    between atoms: C_16  and  O_29
REMARK    4  A    between atoms: C_17  and  O_31
REMARK    5  A    between atoms: O_31  and  C_33
REMARK    6  A    between atoms: C_33  and  C_34
REMARK    7  A    between atoms: C_34  and  O_36
REMARK    8  A    between atoms: C_34  and  C_38
REMARK                            x       y       z     vdW  Elec       q    Type
REMARK                         _______ _______ _______ _____ _____    ______ ____
ROOT
ATOM      1  O   UNL     1     -34.748  28.587   0.617  0.00  0.00    -0.332 OA
ATOM      2  O   UNL     1     -31.915  25.468   1.680  0.00  0.00    -0.450 OA
ATOM      3  O   UNL     1     -29.901  26.135   2.449  0.00  0.00    -0.246 OA
ATOM      4  O   UNL     1     -39.462  24.260   3.311  0.00  0.00    -0.289 OA
ATOM      5  C   UNL     1     -33.902  26.791   1.927  0.00  0.00    +0.076 C 
ATOM      6  C   UNL     1     -35.421  26.720   1.792  0.00  0.00    +0.063 C 
ATOM      7  C   UNL     1     -36.112  25.605   2.612  0.00  0.00    +0.040 C 
ATOM      8  C   UNL     1     -35.724  28.201   1.646  0.00  0.00    +0.213 C 
ATOM      9  C   UNL     1     -33.277  25.415   2.099  0.00  0.00    +0.172 C 
ATOM     10  C   UNL     1     -33.324  27.594   3.133  0.00  0.00    +0.078 C 
ATOM     11  C   UNL     1     -35.595  24.266   1.917  0.00  0.00    +0.025 C 
ATOM     12  C   UNL     1     -33.662  27.607   0.641  0.00  0.00    +0.149 C 
ATOM     13  C   UNL     1     -34.081  24.275   1.488  0.00  0.00    +0.048 C 
ATOM     14  C   UNL     1     -35.438  29.040   2.902  0.00  0.00    +0.180 C 
ATOM     15  C   UNL     1     -33.961  28.981   3.280  0.00  0.00    -0.009 C 
ATOM     16  C   UNL     1     -37.653  25.598   2.431  0.00  0.00    +0.172 C 
ATOM     17  C   UNL     1     -31.771  27.553   3.023  0.00  0.00    +0.270 C 
ATOM     18  C   UNL     1     -35.805  25.664   4.129  0.00  0.00    +0.003 C 
ATOM     19  C   UNL     1     -36.187  23.041   2.585  0.00  0.00    -0.041 C 
ATOM     20  C   UNL     1     -31.116  26.316   2.387  0.00  0.00    +0.358 C 
ATOM     21  C   UNL     1     -38.285  24.307   2.954  0.00  0.00    +0.199 C 
ATOM     22  C   UNL     1     -37.454  23.071   3.036  0.00  0.00    +0.031 C 
ATOM     23  C   UNL     1     -33.287  30.070   3.689  0.00  0.00    -0.006 C 
ATOM     24  C   UNL     1     -35.383  21.778   2.671  0.00  0.00    +0.026 C 
ENDROOT
BRANCH   8  25
ATOM     25  O   UNL     1     -37.052  28.390   1.181  0.00  0.00    -0.362 OA
ATOM     26  H   UNL     1     -37.609  28.701   1.911  0.00  0.00    +0.213 HD
ENDBRANCH   8  25
BRANCH  14  27
ATOM     27  O   UNL     1     -35.851  30.386   2.643  0.00  0.00    -0.376 OA
ATOM     28  H   UNL     1     -35.865  30.542   1.685  0.00  0.00    +0.211 HD
ENDBRANCH  14  27
BRANCH  16  29
ATOM     29  O   UNL     1     -38.248  26.686   3.121  0.00  0.00    -0.377 OA
ATOM     30  H   UNL     1     -37.594  27.392   3.236  0.00  0.00    +0.211 HD
ENDBRANCH  16  29
BRANCH  17  31
ATOM     31  O   UNL     1     -31.183  27.685   4.314  0.00  0.00    -0.439 OA
BRANCH  31  33
ATOM     32  O   UNL     1     -29.856  29.414   3.570  0.00  0.00    -0.248 OA
ATOM     33  C   UNL     1     -30.334  28.746   4.478  0.00  0.00    +0.342 C 
BRANCH  33  34
ATOM     34  C   UNL     1     -30.057  28.988   5.960  0.00  0.00    +0.177 C 
ATOM     35  C   UNL     1     -31.292  29.591   6.627  0.00  0.00    +0.041 C 
BRANCH  34  36
ATOM     36  O   UNL     1     -29.847  27.704   6.547  0.00  0.00    -0.376 OA
ATOM     37  H   UNL     1     -30.599  27.128   6.340  0.00  0.00    +0.211 HD
ENDBRANCH  34  36
BRANCH  34  38
ATOM     38  C   UNL     1     -28.791  29.845   6.134  0.00  0.00    +0.038 C 
ATOM     39  C   UNL     1     -27.939  29.467   7.339  0.00  0.00    +0.003 C 
ENDBRANCH  34  38
ENDBRANCH  33  34
ENDBRANCH  31  33
ENDBRANCH  17  31
TORSDOF 8
ENDMDL
MODEL 6
REMARK VINA RESULT:      -6.4      1.855      7.530
REMARK  Name = 191882
REMARK  8 active torsions:
REMARK  status: ('A' for Active; 'I' for Inactive)
REMARK    1  A    between atoms: C_8  and  O_25
REMARK    2  A    between atoms: C_14  and  O_27
REMARK    3  A    between atoms: C_16  and  O_29
REMARK    4  A    between atoms: C_17  and  O_31
REMARK    5  A    between atoms: O_31  and  C_33
REMARK    6  A    between atoms: C_33  and  C_34
REMARK    7  A    between atoms: C_34  and  O_36
REMARK    8  A    between atoms: C_34  and  C_38
REMARK                            x       y       z     vdW  Elec       q    Type
REMARK                         _______ _______ _______ _____ _____    ______ ____
ROOT
ATOM      1  O   UNL     1     -37.562  22.087   2.983  0.00  0.00    -0.332 OA
ATOM      2  O   UNL     1     -36.382  25.263   0.260  0.00  0.00    -0.450 OA
ATOM      3  O   UNL     1     -35.871  27.259   1.180  0.00  0.00    -0.246 OA
ATOM      4  O   UNL     1     -33.987  17.999  -1.344  0.00  0.00    -0.289 OA
ATOM      5  C   UNL     1     -36.125  23.187   1.438  0.00  0.00    +0.076 C 
ATOM      6  C   UNL     1     -36.122  21.675   1.228  0.00  0.00    +0.063 C 
ATOM      7  C   UNL     1     -35.122  21.151   0.171  0.00  0.00    +0.040 C 
ATOM      8  C   UNL     1     -36.415  21.229   2.649  0.00  0.00    +0.213 C 
ATOM      9  C   UNL     1     -35.846  23.946   0.150  0.00  0.00    +0.172 C 
ATOM     10  C   UNL     1     -35.076  23.778   2.430  0.00  0.00    +0.078 C 
ATOM     11  C   UNL     1     -35.695  21.735  -1.197  0.00  0.00    +0.025 C 
ATOM     12  C   UNL     1     -37.515  23.256   2.104  0.00  0.00    +0.149 C 
ATOM     13  C   UNL     1     -36.249  23.205  -1.119  0.00  0.00    +0.048 C 
ATOM     14  C   UNL     1     -35.296  21.530   3.659  0.00  0.00    +0.180 C 
ATOM     15  C   UNL     1     -35.040  23.029   3.768  0.00  0.00    -0.009 C 
ATOM     16  C   UNL     1     -35.169  19.608   0.017  0.00  0.00    +0.172 C 
ATOM     17  C   UNL     1     -35.311  25.316   2.502  0.00  0.00    +0.270 C 
ATOM     18  C   UNL     1     -33.653  21.563   0.443  0.00  0.00    +0.003 C 
ATOM     19  C   UNL     1     -34.839  21.308  -2.374  0.00  0.00    -0.041 C 
ATOM     20  C   UNL     1     -35.850  26.031   1.253  0.00  0.00    +0.358 C 
ATOM     21  C   UNL     1     -34.446  19.137  -1.246  0.00  0.00    +0.199 C 
ATOM     22  C   UNL     1     -34.290  20.080  -2.391  0.00  0.00    +0.031 C 
ATOM     23  C   UNL     1     -34.821  23.630   4.950  0.00  0.00    -0.006 C 
ATOM     24  C   UNL     1     -34.674  22.228  -3.546  0.00  0.00    +0.026 C 
ENDROOT
BRANCH   8  25
ATOM     25  O   UNL     1     -36.786  19.859   2.670  0.00  0.00    -0.362 OA
ATOM     26  H   UNL     1     -37.734  19.777   2.486  0.00  0.00    +0.213 HD
ENDBRANCH   8  25
BRANCH  14  27
ATOM     27  O   UNL     1     -35.676  20.978   4.925  0.00  0.00    -0.376 OA
ATOM     28  H   UNL     1     -34.967  20.405   5.254  0.00  0.00    +0.211 HD
ENDBRANCH  14  27
BRANCH  16  29
ATOM     29  O   UNL     1     -34.564  18.969   1.130  0.00  0.00    -0.377 OA
ATOM     30  H   UNL     1     -34.006  18.240   0.821  0.00  0.00    +0.211 HD
ENDBRANCH  16  29
BRANCH  17  31
ATOM     31  O   UNL     1     -34.100  25.983   2.841  0.00  0.00    -0.439 OA
BRANCH  31  33
ATOM     32  O   UNL     1     -35.154  27.024   4.605  0.00  0.00    -0.248 OA
ATOM     33  C   UNL     1     -34.174  26.863   3.887  0.00  0.00    +0.342 C 
BRANCH  33  34
ATOM     34  C   UNL     1     -32.861  27.627   4.041  0.00  0.00    +0.177 C 
ATOM     35  C   UNL     1     -32.508  27.756   5.522  0.00  0.00    +0.041 C 
BRANCH  34  36
ATOM     36  O   UNL     1     -31.851  26.821   3.436  0.00  0.00    -0.376 OA
ATOM     37  H   UNL     1     -30.987  27.246   3.551  0.00  0.00    +0.211 HD
ENDBRANCH  34  36
BRANCH  34  38
ATOM     38  C   UNL     1     -32.942  28.981   3.314  0.00  0.00    +0.038 C 
ATOM     39  C   UNL     1     -32.461  30.166   4.143  0.00  0.00    +0.003 C 
ENDBRANCH  34  38
ENDBRANCH  33  34
ENDBRANCH  31  33
ENDBRANCH  17  31
TORSDOF 8
ENDMDL
MODEL 7
REMARK VINA RESULT:      -6.3      1.563      7.458
REMARK  Name = 191882
REMARK  8 active torsions:
REMARK  status: ('A' for Active; 'I' for Inactive)
REMARK    1  A    between atoms: C_8  and  O_25
REMARK    2  A    between atoms: C_14  and  O_27
REMARK    3  A    between atoms: C_16  and  O_29
REMARK    4  A    between atoms: C_17  and  O_31
REMARK    5  A    between atoms: O_31  and  C_33
REMARK    6  A    between atoms: C_33  and  C_34
REMARK    7  A    between atoms: C_34  and  O_36
REMARK    8  A    between atoms: C_34  and  C_38
REMARK                            x       y       z     vdW  Elec       q    Type
REMARK                         _______ _______ _______ _____ _____    ______ ____
ROOT
ATOM      1  O   UNL     1     -37.092  24.366   4.781  0.00  0.00    -0.332 OA
ATOM      2  O   UNL     1     -37.494  26.722   1.151  0.00  0.00    -0.450 OA
ATOM      3  O   UNL     1     -36.781  28.861   1.238  0.00  0.00    -0.246 OA
ATOM      4  O   UNL     1     -35.518  19.197   0.420  0.00  0.00    -0.289 OA
ATOM      5  C   UNL     1     -36.582  24.992   2.543  0.00  0.00    +0.076 C 
ATOM      6  C   UNL     1     -36.558  23.477   2.720  0.00  0.00    +0.063 C 
ATOM      7  C   UNL     1     -36.095  22.668   1.485  0.00  0.00    +0.040 C 
ATOM      8  C   UNL     1     -36.153  23.406   4.182  0.00  0.00    +0.213 C 
ATOM      9  C   UNL     1     -36.964  25.399   1.128  0.00  0.00    +0.172 C 
ATOM     10  C   UNL     1     -35.249  25.767   2.784  0.00  0.00    +0.078 C 
ATOM     11  C   UNL     1     -37.261  22.919   0.426  0.00  0.00    +0.025 C 
ATOM     12  C   UNL     1     -37.531  25.280   3.725  0.00  0.00    +0.149 C 
ATOM     13  C   UNL     1     -37.832  24.385   0.393  0.00  0.00    +0.048 C 
ATOM     14  C   UNL     1     -34.727  23.902   4.476  0.00  0.00    +0.180 C 
ATOM     15  C   UNL     1     -34.564  25.370   4.098  0.00  0.00    -0.009 C 
ATOM     16  C   UNL     1     -36.089  21.138   1.741  0.00  0.00    +0.172 C 
ATOM     17  C   UNL     1     -35.544  27.283   2.586  0.00  0.00    +0.270 C 
ATOM     18  C   UNL     1     -34.695  23.075   0.961  0.00  0.00    +0.003 C 
ATOM     19  C   UNL     1     -36.989  22.182  -0.870  0.00  0.00    -0.041 C 
ATOM     20  C   UNL     1     -36.636  27.690   1.583  0.00  0.00    +0.358 C 
ATOM     21  C   UNL     1     -35.970  20.341   0.440  0.00  0.00    +0.199 C 
ATOM     22  C   UNL     1     -36.412  20.966  -0.840  0.00  0.00    +0.031 C 
ATOM     23  C   UNL     1     -33.889  26.235   4.874  0.00  0.00    -0.006 C 
ATOM     24  C   UNL     1     -37.433  22.777  -2.172  0.00  0.00    +0.026 C 
ENDROOT
BRANCH   8  25
ATOM     25  O   UNL     1     -36.369  22.100   4.693  0.00  0.00    -0.362 OA
ATOM     26  H   UNL     1     -36.307  22.117   5.660  0.00  0.00    +0.213 HD
ENDBRANCH   8  25
BRANCH  14  27
ATOM     27  O   UNL     1     -34.461  23.695   5.868  0.00  0.00    -0.376 OA
ATOM     28  H   UNL     1     -34.139  24.520   6.262  0.00  0.00    +0.211 HD
ENDBRANCH  14  27
BRANCH  16  29
ATOM     29  O   UNL     1     -35.005  20.770   2.579  0.00  0.00    -0.377 OA
ATOM     30  H   UNL     1     -34.940  19.804   2.617  0.00  0.00    +0.211 HD
ENDBRANCH  16  29
BRANCH  17  31
ATOM     31  O   UNL     1     -34.363  27.964   2.174  0.00  0.00    -0.439 OA
BRANCH  31  33
ATOM     32  O   UNL     1     -34.759  29.787   3.526  0.00  0.00    -0.248 OA
ATOM     33  C   UNL     1     -33.989  29.031   2.945  0.00  0.00    +0.342 C 
BRANCH  33  34
ATOM     34  C   UNL     1     -32.468  29.160   2.984  0.00  0.00    +0.177 C 
ATOM     35  C   UNL     1     -31.830  27.988   2.240  0.00  0.00    +0.041 C 
BRANCH  34  36
ATOM     36  O   UNL     1     -32.144  30.345   2.258  0.00  0.00    -0.376 OA
ATOM     37  H   UNL     1     -32.351  31.122   2.800  0.00  0.00    +0.211 HD
ENDBRANCH  34  36
BRANCH  34  38
ATOM     38  C   UNL     1     -31.981  29.298   4.437  0.00  0.00    +0.038 C 
ATOM     39  C   UNL     1     -31.684  30.730   4.864  0.00  0.00    +0.003 C 
ENDBRANCH  34  38
ENDBRANCH  33  34
ENDBRANCH  31  33
ENDBRANCH  17  31
TORSDOF 8
ENDMDL
MODEL 8
REMARK VINA RESULT:      -6.2      2.741      6.707
REMARK  Name = 191882
REMARK  8 active torsions:
REMARK  status: ('A' for Active; 'I' for Inactive)
REMARK    1  A    between atoms: C_8  and  O_25
REMARK    2  A    between atoms: C_14  and  O_27
REMARK    3  A    between atoms: C_16  and  O_29
REMARK    4  A    between atoms: C_17  and  O_31
REMARK    5  A    between atoms: O_31  and  C_33
REMARK    6  A    between atoms: C_33  and  C_34
REMARK    7  A    between atoms: C_34  and  O_36
REMARK    8  A    between atoms: C_34  and  C_38
REMARK                            x       y       z     vdW  Elec       q    Type
REMARK                         _______ _______ _______ _____ _____    ______ ____
ROOT
ATOM      1  O   UNL     1     -37.480  21.508   0.092  0.00  0.00    -0.332 OA
ATOM      2  O   UNL     1     -36.530  25.598  -1.029  0.00  0.00    -0.450 OA
ATOM      3  O   UNL     1     -38.032  26.679  -2.320  0.00  0.00    -0.246 OA
ATOM      4  O   UNL     1     -34.588  23.238   6.163  0.00  0.00    -0.289 OA
ATOM      5  C   UNL     1     -37.143  23.832   0.476  0.00  0.00    +0.076 C 
ATOM      6  C   UNL     1     -36.603  22.989   1.628  0.00  0.00    +0.063 C 
ATOM      7  C   UNL     1     -36.073  23.785   2.844  0.00  0.00    +0.040 C 
ATOM      8  C   UNL     1     -37.548  21.805   1.530  0.00  0.00    +0.213 C 
ATOM      9  C   UNL     1     -36.379  25.137   0.311  0.00  0.00    +0.172 C 
ATOM     10  C   UNL     1     -38.628  24.302   0.562  0.00  0.00    +0.078 C 
ATOM     11  C   UNL     1     -34.785  24.525   2.265  0.00  0.00    +0.025 C 
ATOM     12  C   UNL     1     -37.046  22.726  -0.595  0.00  0.00    +0.149 C 
ATOM     13  C   UNL     1     -34.938  25.090   0.804  0.00  0.00    +0.048 C 
ATOM     14  C   UNL     1     -39.012  22.123   1.873  0.00  0.00    +0.180 C 
ATOM     15  C   UNL     1     -39.590  23.161   0.917  0.00  0.00    -0.009 C 
ATOM     16  C   UNL     1     -35.548  22.864   3.978  0.00  0.00    +0.172 C 
ATOM     17  C   UNL     1     -38.946  25.097  -0.738  0.00  0.00    +0.270 C 
ATOM     18  C   UNL     1     -37.113  24.756   3.456  0.00  0.00    +0.003 C 
ATOM     19  C   UNL     1     -34.108  25.360   3.334  0.00  0.00    -0.041 C 
ATOM     20  C   UNL     1     -37.807  25.880  -1.412  0.00  0.00    +0.358 C 
ATOM     21  C   UNL     1     -34.723  23.638   5.008  0.00  0.00    +0.199 C 
ATOM     22  C   UNL     1     -34.064  24.914   4.603  0.00  0.00    +0.031 C 
ATOM     23  C   UNL     1     -40.835  23.057   0.421  0.00  0.00    -0.006 C 
ATOM     24  C   UNL     1     -33.425  26.640   2.958  0.00  0.00    +0.026 C 
ENDROOT
BRANCH   8  25
ATOM     25  O   UNL     1     -37.055  20.715   2.295  0.00  0.00    -0.362 OA
ATOM     26  H   UNL     1     -37.727  20.443   2.940  0.00  0.00    +0.213 HD
ENDBRANCH   8  25
BRANCH  14  27
ATOM     27  O   UNL     1     -39.758  20.902   1.823  0.00  0.00    -0.376 OA
ATOM     28  H   UNL     1     -40.419  20.897   2.533  0.00  0.00    +0.211 HD
ENDBRANCH  14  27
BRANCH  16  29
ATOM     29  O   UNL     1     -36.623  22.238   4.660  0.00  0.00    -0.377 OA
ATOM     30  H   UNL     1     -36.624  22.519   5.588  0.00  0.00    +0.211 HD
ENDBRANCH  16  29
BRANCH  17  31
ATOM     31  O   UNL     1     -39.979  26.046  -0.494  0.00  0.00    -0.439 OA
BRANCH  31  33
ATOM     32  O   UNL     1     -38.841  27.380   0.999  0.00  0.00    -0.248 OA
ATOM     33  C   UNL     1     -39.853  26.786   0.651  0.00  0.00    +0.342 C 
BRANCH  33  34
ATOM     34  C   UNL     1     -41.156  26.770   1.448  0.00  0.00    +0.177 C 
ATOM     35  C   UNL     1     -40.931  26.085   2.795  0.00  0.00    +0.041 C 
BRANCH  34  36
ATOM     36  O   UNL     1     -41.481  28.133   1.718  0.00  0.00    -0.376 OA
ATOM     37  H   UNL     1     -41.687  28.235   2.660  0.00  0.00    +0.211 HD
ENDBRANCH  34  36
BRANCH  34  38
ATOM     38  C   UNL     1     -42.282  26.127   0.618  0.00  0.00    +0.038 C 
ATOM     39  C   UNL     1     -43.439  25.584   1.448  0.00  0.00    +0.003 C 
ENDBRANCH  34  38
ENDBRANCH  33  34
ENDBRANCH  31  33
ENDBRANCH  17  31
TORSDOF 8
ENDMDL
MODEL 9
REMARK VINA RESULT:      -6.2      2.632      6.612
REMARK  Name = 191882
REMARK  8 active torsions:
REMARK  status: ('A' for Active; 'I' for Inactive)
REMARK    1  A    between atoms: C_8  and  O_25
REMARK    2  A    between atoms: C_14  and  O_27
REMARK    3  A    between atoms: C_16  and  O_29
REMARK    4  A    between atoms: C_17  and  O_31
REMARK    5  A    between atoms: O_31  and  C_33
REMARK    6  A    between atoms: C_33  and  C_34
REMARK    7  A    between atoms: C_34  and  O_36
REMARK    8  A    between atoms: C_34  and  C_38
REMARK                            x       y       z     vdW  Elec       q    Type
REMARK                         _______ _______ _______ _____ _____    ______ ____
ROOT
ATOM      1  O   UNL     1     -35.624  23.624  -0.814  0.00  0.00    -0.332 OA
ATOM      2  O   UNL     1     -36.309  27.343   1.328  0.00  0.00    -0.450 OA
ATOM      3  O   UNL     1     -37.802  28.778   0.433  0.00  0.00    -0.246 OA
ATOM      4  O   UNL     1     -35.189  20.856   5.538  0.00  0.00    -0.289 OA
ATOM      5  C   UNL     1     -36.417  24.971   0.979  0.00  0.00    +0.076 C 
ATOM      6  C   UNL     1     -35.837  23.652   1.483  0.00  0.00    +0.063 C 
ATOM      7  C   UNL     1     -35.987  23.393   3.000  0.00  0.00    +0.040 C 
ATOM      8  C   UNL     1     -36.130  22.778   0.276  0.00  0.00    +0.213 C 
ATOM      9  C   UNL     1     -36.275  26.087   2.002  0.00  0.00    +0.172 C 
ATOM     10  C   UNL     1     -37.938  25.002   0.632  0.00  0.00    +0.078 C 
ATOM     11  C   UNL     1     -35.051  24.506   3.655  0.00  0.00    +0.025 C 
ATOM     12  C   UNL     1     -35.617  25.008  -0.339  0.00  0.00    +0.149 C 
ATOM     13  C   UNL     1     -35.104  25.918   2.963  0.00  0.00    +0.048 C 
ATOM     14  C   UNL     1     -37.625  22.525   0.016  0.00  0.00    +0.180 C 
ATOM     15  C   UNL     1     -38.365  23.830  -0.259  0.00  0.00    -0.009 C 
ATOM     16  C   UNL     1     -35.382  22.033   3.438  0.00  0.00    +0.172 C 
ATOM     17  C   UNL     1     -38.270  26.430   0.106  0.00  0.00    +0.270 C 
ATOM     18  C   UNL     1     -37.451  23.453   3.503  0.00  0.00    +0.003 C 
ATOM     19  C   UNL     1     -35.057  24.403   5.168  0.00  0.00    -0.041 C 
ATOM     20  C   UNL     1     -37.462  27.617   0.655  0.00  0.00    +0.358 C 
ATOM     21  C   UNL     1     -35.223  21.939   4.956  0.00  0.00    +0.199 C 
ATOM     22  C   UNL     1     -35.107  23.193   5.755  0.00  0.00    +0.031 C 
ATOM     23  C   UNL     1     -39.299  23.929  -1.221  0.00  0.00    -0.006 C 
ATOM     24  C   UNL     1     -34.928  25.643   5.999  0.00  0.00    +0.026 C 
ENDROOT
BRANCH   8  25
ATOM     25  O   UNL     1     -35.400  21.564   0.356  0.00  0.00    -0.362 OA
ATOM     26  H   UNL     1     -35.833  20.966   0.984  0.00  0.00    +0.213 HD
ENDBRANCH   8  25
BRANCH  14  27
ATOM     27  O   UNL     1     -37.739  21.623  -1.089  0.00  0.00    -0.376 OA
ATOM     28  H   UNL     1     -38.550  21.818  -1.584  0.00  0.00    +0.211 HD
ENDBRANCH  14  27
BRANCH  16  29
ATOM     29  O   UNL     1     -36.204  20.955   3.017  0.00  0.00    -0.377 OA
ATOM     30  H   UNL     1     -36.396  21.045   2.071  0.00  0.00    +0.211 HD
ENDBRANCH  16  29
BRANCH  17  31
ATOM     31  O   UNL     1     -39.637  26.740   0.356  0.00  0.00    -0.439 OA
BRANCH  31  33
ATOM     32  O   UNL     1     -39.528  26.534   2.648  0.00  0.00    -0.248 OA
ATOM     33  C   UNL     1     -40.117  26.376   1.586  0.00  0.00    +0.342 C 
BRANCH  33  34
ATOM     34  C   UNL     1     -41.499  25.739   1.456  0.00  0.00    +0.177 C 
ATOM     35  C   UNL     1     -42.050  25.977   0.051  0.00  0.00    +0.041 C 
BRANCH  34  36
ATOM     36  O   UNL     1     -41.311  24.332   1.601  0.00  0.00    -0.376 OA
ATOM     37  H   UNL     1     -40.901  24.148   2.461  0.00  0.00    +0.211 HD
ENDBRANCH  34  36
BRANCH  34  38
ATOM     38  C   UNL     1     -42.429  26.250   2.570  0.00  0.00    +0.038 C 
ATOM     39  C   UNL     1     -43.914  26.096   2.265  0.00  0.00    +0.003 C 
ENDBRANCH  34  38
ENDBRANCH  33  34
ENDBRANCH  31  33
ENDBRANCH  17  31
TORSDOF 8
ENDMDL
