MODEL 1
REMARK VINA RESULT:      -6.2      0.000      0.000
REMARK  Name = 194530
REMARK  1 active torsions:
REMARK  status: ('A' for Active; 'I' for Inactive)
REMARK    1  A    between atoms: C_5  and  C_15
REMARK                            x       y       z     vdW  Elec       q    Type
REMARK                         _______ _______ _______ _____ _____    ______ ____
ROOT
ATOM      1 CL   UNL     1     -35.131  21.849   5.598  0.00  0.00    -0.044 Cl
ATOM      2  N   UNL     1     -34.426  24.312   5.292  0.00  0.00    -0.376 NA
ATOM      3  N   UNL     1     -36.453  24.943   3.461  0.00  0.00    -0.367 NA
ATOM      4  N   UNL     1     -37.257  22.717   3.604  0.00  0.00    -0.330 N 
ATOM      5  C   UNL     1     -34.549  25.544   4.761  0.00  0.00    +0.244 C 
ATOM      6  C   UNL     1     -35.545  25.855   3.861  0.00  0.00    +0.215 C 
ATOM      7  C   UNL     1     -36.330  23.711   3.992  0.00  0.00    +0.220 C 
ATOM      8  C   UNL     1     -35.334  23.400   4.892  0.00  0.00    +0.233 C 
ATOM      9  H   UNL     1     -37.970  22.933   2.962  0.00  0.00    +0.145 HD
ATOM     10  H   UNL     1     -37.189  21.809   3.979  0.00  0.00    +0.145 HD
ATOM     11  N   UNL     1     -35.626  27.164   3.336  0.00  0.00    -0.331 N 
ATOM     12  H   UNL     1     -36.336  27.393   2.692  0.00  0.00    +0.145 HD
ATOM     13  H   UNL     1     -34.975  27.848   3.614  0.00  0.00    +0.145 HD
ENDROOT
BRANCH   5  18
ATOM     14  O   UNL     1     -32.678  26.907   4.275  0.00  0.00    -0.307 OA
ATOM     15  N   UNL     1     -33.372  27.001   6.402  0.00  0.00    -0.293 NA
ATOM     16  N   UNL     1     -31.820  27.803   4.925  0.00  0.00    +0.008 NA
ATOM     17  N   UNL     1     -31.792  28.526   7.210  0.00  0.00    -0.291 N 
ATOM     18  C   UNL     1     -33.558  26.485   5.217  0.00  0.00    +0.352 C 
ATOM     19  C   UNL     1     -32.293  27.803   6.175  0.00  0.00    +0.180 C 
ATOM     20  H   UNL     1     -32.209  28.464   8.101  0.00  0.00    +0.155 HD
ATOM     21  H   UNL     1     -31.015  29.113   7.070  0.00  0.00    +0.155 HD
ENDBRANCH   5  18
TORSDOF 1
ENDMDL
MODEL 2
REMARK VINA RESULT:      -6.1      1.439      1.451
REMARK  Name = 194530
REMARK  1 active torsions:
REMARK  status: ('A' for Active; 'I' for Inactive)
REMARK    1  A    between atoms: C_5  and  C_15
REMARK                            x       y       z     vdW  Elec       q    Type
REMARK                         _______ _______ _______ _____ _____    ______ ____
ROOT
ATOM      1 CL   UNL     1     -34.874  22.216   2.123  0.00  0.00    -0.044 Cl
ATOM      2  N   UNL     1     -34.505  24.293   3.609  0.00  0.00    -0.376 NA
ATOM      3  N   UNL     1     -37.189  24.545   4.382  0.00  0.00    -0.367 NA
ATOM      4  N   UNL     1     -37.732  22.648   3.068  0.00  0.00    -0.330 N 
ATOM      5  C   UNL     1     -34.920  25.271   4.437  0.00  0.00    +0.244 C 
ATOM      6  C   UNL     1     -36.238  25.396   4.818  0.00  0.00    +0.215 C 
ATOM      7  C   UNL     1     -36.774  23.566   3.554  0.00  0.00    +0.220 C 
ATOM      8  C   UNL     1     -35.456  23.442   3.174  0.00  0.00    +0.233 C 
ATOM      9  H   UNL     1     -38.674  22.732   3.336  0.00  0.00    +0.145 HD
ATOM     10  H   UNL     1     -37.454  21.923   2.462  0.00  0.00    +0.145 HD
ATOM     11  N   UNL     1     -36.617  26.442   5.689  0.00  0.00    -0.331 N 
ATOM     12  H   UNL     1     -37.558  26.536   5.965  0.00  0.00    +0.145 HD
ATOM     13  H   UNL     1     -35.941  27.075   6.021  0.00  0.00    +0.145 HD
ENDROOT
BRANCH   5  18
ATOM     14  O   UNL     1     -32.953  26.485   3.935  0.00  0.00    -0.307 OA
ATOM     15  N   UNL     1     -33.665  26.696   6.048  0.00  0.00    -0.293 NA
ATOM     16  N   UNL     1     -32.043  27.340   4.569  0.00  0.00    +0.008 NA
ATOM     17  N   UNL     1     -31.993  28.135   6.830  0.00  0.00    -0.291 N 
ATOM     18  C   UNL     1     -33.872  26.156   4.877  0.00  0.00    +0.352 C 
ATOM     19  C   UNL     1     -32.530  27.414   5.811  0.00  0.00    +0.180 C 
ATOM     20  H   UNL     1     -32.424  28.130   7.716  0.00  0.00    +0.155 HD
ATOM     21  H   UNL     1     -31.175  28.661   6.683  0.00  0.00    +0.155 HD
ENDBRANCH   5  18
TORSDOF 1
ENDMDL
MODEL 3
REMARK VINA RESULT:      -5.9      3.582      6.381
REMARK  Name = 194530
REMARK  1 active torsions:
REMARK  status: ('A' for Active; 'I' for Inactive)
REMARK    1  A    between atoms: C_5  and  C_15
REMARK                            x       y       z     vdW  Elec       q    Type
REMARK                         _______ _______ _______ _____ _____    ______ ____
ROOT
ATOM      1 CL   UNL     1     -36.678  26.552   2.333  0.00  0.00    -0.044 Cl
ATOM      2  N   UNL     1     -36.366  24.023   2.738  0.00  0.00    -0.376 NA
ATOM      3  N   UNL     1     -36.173  24.223   5.528  0.00  0.00    -0.367 NA
ATOM      4  N   UNL     1     -36.445  26.573   5.365  0.00  0.00    -0.330 N 
ATOM      5  C   UNL     1     -36.186  22.940   3.520  0.00  0.00    +0.244 C 
ATOM      6  C   UNL     1     -36.091  23.038   4.891  0.00  0.00    +0.215 C 
ATOM      7  C   UNL     1     -36.353  25.306   4.747  0.00  0.00    +0.220 C 
ATOM      8  C   UNL     1     -36.448  25.208   3.376  0.00  0.00    +0.233 C 
ATOM      9  H   UNL     1     -36.377  26.648   6.343  0.00  0.00    +0.145 HD
ATOM     10  H   UNL     1     -36.578  27.379   4.816  0.00  0.00    +0.145 HD
ATOM     11  N   UNL     1     -35.901  21.869   5.662  0.00  0.00    -0.331 N 
ATOM     12  H   UNL     1     -35.832  21.932   6.643  0.00  0.00    +0.145 HD
ATOM     13  H   UNL     1     -35.840  20.992   5.220  0.00  0.00    +0.145 HD
ENDROOT
BRANCH   5  18
ATOM     14  O   UNL     1     -34.913  21.053   2.878  0.00  0.00    -0.307 OA
ATOM     15  N   UNL     1     -37.002  21.087   2.072  0.00  0.00    -0.293 NA
ATOM     16  N   UNL     1     -35.055  19.887   2.116  0.00  0.00    +0.008 NA
ATOM     17  N   UNL     1     -36.939  19.077   0.876  0.00  0.00    -0.291 N 
ATOM     18  C   UNL     1     -36.104  21.697   2.798  0.00  0.00    +0.352 C 
ATOM     19  C   UNL     1     -36.312  19.980   1.673  0.00  0.00    +0.180 C 
ATOM     20  H   UNL     1     -37.872  19.229   0.599  0.00  0.00    +0.155 HD
ATOM     21  H   UNL     1     -36.462  18.270   0.576  0.00  0.00    +0.155 HD
ENDBRANCH   5  18
TORSDOF 1
ENDMDL
MODEL 4
REMARK VINA RESULT:      -5.8      2.746      3.740
REMARK  Name = 194530
REMARK  1 active torsions:
REMARK  status: ('A' for Active; 'I' for Inactive)
REMARK    1  A    between atoms: C_5  and  C_15
REMARK                            x       y       z     vdW  Elec       q    Type
REMARK                         _______ _______ _______ _____ _____    ______ ____
ROOT
ATOM      1 CL   UNL     1     -34.639  22.176   0.126  0.00  0.00    -0.044 Cl
ATOM      2  N   UNL     1     -34.825  23.194   2.489  0.00  0.00    -0.376 NA
ATOM      3  N   UNL     1     -35.749  20.849   3.717  0.00  0.00    -0.367 NA
ATOM      4  N   UNL     1     -35.648  19.732   1.628  0.00  0.00    -0.330 N 
ATOM      5  C   UNL     1     -35.107  23.142   3.806  0.00  0.00    +0.244 C 
ATOM      6  C   UNL     1     -35.562  21.990   4.410  0.00  0.00    +0.215 C 
ATOM      7  C   UNL     1     -35.467  20.901   2.400  0.00  0.00    +0.220 C 
ATOM      8  C   UNL     1     -35.013  22.053   1.797  0.00  0.00    +0.233 C 
ATOM      9  H   UNL     1     -35.972  18.906   2.054  0.00  0.00    +0.145 HD
ATOM     10  H   UNL     1     -35.448  19.744   0.664  0.00  0.00    +0.145 HD
ATOM     11  N   UNL     1     -35.842  21.992   5.794  0.00  0.00    -0.331 N 
ATOM     12  H   UNL     1     -36.167  21.172   6.232  0.00  0.00    +0.145 HD
ATOM     13  H   UNL     1     -35.712  22.813   6.322  0.00  0.00    +0.145 HD
ENDROOT
BRANCH   5  18
ATOM     14  O   UNL     1     -36.011  24.984   4.984  0.00  0.00    -0.307 OA
ATOM     15  N   UNL     1     -33.783  25.024   4.755  0.00  0.00    -0.293 NA
ATOM     16  N   UNL     1     -35.576  26.153   5.618  0.00  0.00    +0.008 NA
ATOM     17  N   UNL     1     -33.361  27.032   5.880  0.00  0.00    -0.291 N 
ATOM     18  C   UNL     1     -34.893  24.382   4.506  0.00  0.00    +0.352 C 
ATOM     19  C   UNL     1     -34.252  26.107   5.440  0.00  0.00    +0.180 C 
ATOM     20  H   UNL     1     -32.399  26.913   5.701  0.00  0.00    +0.155 HD
ATOM     21  H   UNL     1     -33.675  27.821   6.377  0.00  0.00    +0.155 HD
ENDBRANCH   5  18
TORSDOF 1
ENDMDL
MODEL 5
REMARK VINA RESULT:      -5.7      2.967      4.410
REMARK  Name = 194530
REMARK  1 active torsions:
REMARK  status: ('A' for Active; 'I' for Inactive)
REMARK    1  A    between atoms: C_5  and  C_15
REMARK                            x       y       z     vdW  Elec       q    Type
REMARK                         _______ _______ _______ _____ _____    ______ ____
ROOT
ATOM      1 CL   UNL     1     -34.139  19.554   1.929  0.00  0.00    -0.044 Cl
ATOM      2  N   UNL     1     -35.311  21.637   2.901  0.00  0.00    -0.376 NA
ATOM      3  N   UNL     1     -37.828  21.059   1.808  0.00  0.00    -0.367 NA
ATOM      4  N   UNL     1     -36.936  19.094   0.827  0.00  0.00    -0.330 N 
ATOM      5  C   UNL     1     -36.375  22.439   3.098  0.00  0.00    +0.244 C 
ATOM      6  C   UNL     1     -37.612  22.156   2.561  0.00  0.00    +0.215 C 
ATOM      7  C   UNL     1     -36.764  20.257   1.610  0.00  0.00    +0.220 C 
ATOM      8  C   UNL     1     -35.527  20.540   2.147  0.00  0.00    +0.233 C 
ATOM      9  H   UNL     1     -37.816  18.887   0.441  0.00  0.00    +0.145 HD
ATOM     10  H   UNL     1     -36.174  18.490   0.669  0.00  0.00    +0.145 HD
ATOM     11  N   UNL     1     -38.694  23.033   2.800  0.00  0.00    -0.331 N 
ATOM     12  H   UNL     1     -39.581  22.837   2.419  0.00  0.00    +0.145 HD
ATOM     13  H   UNL     1     -38.562  23.840   3.348  0.00  0.00    +0.145 HD
ENDROOT
BRANCH   5  18
ATOM     14  O   UNL     1     -34.820  23.713   4.345  0.00  0.00    -0.307 OA
ATOM     15  N   UNL     1     -36.892  24.562   4.291  0.00  0.00    -0.293 NA
ATOM     16  N   UNL     1     -34.778  24.891   5.100  0.00  0.00    +0.008 NA
ATOM     17  N   UNL     1     -36.515  26.465   5.599  0.00  0.00    -0.291 N 
ATOM     18  C   UNL     1     -36.100  23.598   3.908  0.00  0.00    +0.352 C 
ATOM     19  C   UNL     1     -36.036  25.333   5.021  0.00  0.00    +0.180 C 
ATOM     20  H   UNL     1     -37.461  26.713   5.486  0.00  0.00    +0.155 HD
ATOM     21  H   UNL     1     -35.916  27.038   6.130  0.00  0.00    +0.155 HD
ENDBRANCH   5  18
TORSDOF 1
ENDMDL
MODEL 6
REMARK VINA RESULT:      -5.6      2.838      6.197
REMARK  Name = 194530
REMARK  1 active torsions:
REMARK  status: ('A' for Active; 'I' for Inactive)
REMARK    1  A    between atoms: C_5  and  C_15
REMARK                            x       y       z     vdW  Elec       q    Type
REMARK                         _______ _______ _______ _____ _____    ______ ____
ROOT
ATOM      1 CL   UNL     1     -34.984  27.631   3.247  0.00  0.00    -0.044 Cl
ATOM      2  N   UNL     1     -36.121  25.318   3.354  0.00  0.00    -0.376 NA
ATOM      3  N   UNL     1     -34.924  24.545   5.768  0.00  0.00    -0.367 NA
ATOM      4  N   UNL     1     -33.782  26.621   5.851  0.00  0.00    -0.330 N 
ATOM      5  C   UNL     1     -36.369  24.122   3.922  0.00  0.00    +0.244 C 
ATOM      6  C   UNL     1     -35.781  23.741   5.108  0.00  0.00    +0.215 C 
ATOM      7  C   UNL     1     -34.675  25.741   5.200  0.00  0.00    +0.220 C 
ATOM      8  C   UNL     1     -35.264  26.122   4.014  0.00  0.00    +0.233 C 
ATOM      9  H   UNL     1     -33.360  26.355   6.699  0.00  0.00    +0.145 HD
ATOM     10  H   UNL     1     -33.585  27.502   5.457  0.00  0.00    +0.145 HD
ATOM     11  N   UNL     1     -36.078  22.474   5.659  0.00  0.00    -0.331 N 
ATOM     12  H   UNL     1     -35.661  22.196   6.507  0.00  0.00    +0.145 HD
ATOM     13  H   UNL     1     -36.702  21.870   5.196  0.00  0.00    +0.145 HD
ENDROOT
BRANCH   5  18
ATOM     14  O   UNL     1     -36.763  22.165   2.653  0.00  0.00    -0.307 OA
ATOM     15  N   UNL     1     -38.562  23.467   2.941  0.00  0.00    -0.293 NA
ATOM     16  N   UNL     1     -37.817  21.525   1.989  0.00  0.00    +0.008 NA
ATOM     17  N   UNL     1     -40.112  22.176   1.756  0.00  0.00    -0.291 N 
ATOM     18  C   UNL     1     -37.290  23.297   3.183  0.00  0.00    +0.352 C 
ATOM     19  C   UNL     1     -38.843  22.354   2.204  0.00  0.00    +0.180 C 
ATOM     20  H   UNL     1     -40.806  22.843   1.965  0.00  0.00    +0.155 HD
ATOM     21  H   UNL     1     -40.339  21.381   1.223  0.00  0.00    +0.155 HD
ENDBRANCH   5  18
TORSDOF 1
ENDMDL
MODEL 7
REMARK VINA RESULT:      -5.5      3.726      5.180
REMARK  Name = 194530
REMARK  1 active torsions:
REMARK  status: ('A' for Active; 'I' for Inactive)
REMARK    1  A    between atoms: C_5  and  C_15
REMARK                            x       y       z     vdW  Elec       q    Type
REMARK                         _______ _______ _______ _____ _____    ______ ____
ROOT
ATOM      1 CL   UNL     1     -35.606  21.341  -0.730  0.00  0.00    -0.044 Cl
ATOM      2  N   UNL     1     -35.980  22.393   1.596  0.00  0.00    -0.376 NA
ATOM      3  N   UNL     1     -35.027  20.188   3.041  0.00  0.00    -0.367 NA
ATOM      4  N   UNL     1     -34.610  19.050   1.003  0.00  0.00    -0.330 N 
ATOM      5  C   UNL     1     -35.942  22.386   2.942  0.00  0.00    +0.244 C 
ATOM      6  C   UNL     1     -35.473  21.303   3.653  0.00  0.00    +0.215 C 
ATOM      7  C   UNL     1     -35.066  20.195   1.694  0.00  0.00    +0.220 C 
ATOM      8  C   UNL     1     -35.534  21.278   0.983  0.00  0.00    +0.233 C 
ATOM      9  H   UNL     1     -34.275  18.273   1.505  0.00  0.00    +0.145 HD
ATOM     10  H   UNL     1     -34.628  19.030   0.019  0.00  0.00    +0.145 HD
ATOM     11  N   UNL     1     -35.455  21.350   5.065  0.00  0.00    -0.331 N 
ATOM     12  H   UNL     1     -35.122  20.579   5.579  0.00  0.00    +0.145 HD
ATOM     13  H   UNL     1     -35.775  22.153   5.535  0.00  0.00    +0.145 HD
ENDROOT
BRANCH   5  18
ATOM     14  O   UNL     1     -37.766  23.798   3.465  0.00  0.00    -0.307 OA
ATOM     15  N   UNL     1     -35.778  24.537   4.185  0.00  0.00    -0.293 NA
ATOM     16  N   UNL     1     -38.014  25.013   4.116  0.00  0.00    +0.008 NA
ATOM     17  N   UNL     1     -36.497  26.520   5.198  0.00  0.00    -0.291 N 
ATOM     18  C   UNL     1     -36.427  23.596   3.554  0.00  0.00    +0.352 C 
ATOM     19  C   UNL     1     -36.794  25.386   4.512  0.00  0.00    +0.180 C 
ATOM     20  H   UNL     1     -35.564  26.713   5.449  0.00  0.00    +0.155 HD
ATOM     21  H   UNL     1     -37.214  27.147   5.446  0.00  0.00    +0.155 HD
ENDBRANCH   5  18
TORSDOF 1
ENDMDL
MODEL 8
REMARK VINA RESULT:      -5.3      3.293      4.727
REMARK  Name = 194530
REMARK  1 active torsions:
REMARK  status: ('A' for Active; 'I' for Inactive)
REMARK    1  A    between atoms: C_5  and  C_15
REMARK                            x       y       z     vdW  Elec       q    Type
REMARK                         _______ _______ _______ _____ _____    ______ ____
ROOT
ATOM      1 CL   UNL     1     -37.623  20.482   0.799  0.00  0.00    -0.044 Cl
ATOM      2  N   UNL     1     -37.561  22.572   2.311  0.00  0.00    -0.376 NA
ATOM      3  N   UNL     1     -40.273  23.210   1.994  0.00  0.00    -0.367 NA
ATOM      4  N   UNL     1     -40.535  21.329   0.574  0.00  0.00    -0.330 N 
ATOM      5  C   UNL     1     -38.117  23.640   2.915  0.00  0.00    +0.244 C 
ATOM      6  C   UNL     1     -39.450  23.954   2.760  0.00  0.00    +0.215 C 
ATOM      7  C   UNL     1     -39.716  22.142   1.389  0.00  0.00    +0.220 C 
ATOM      8  C   UNL     1     -38.383  21.828   1.545  0.00  0.00    +0.233 C 
ATOM      9  H   UNL     1     -41.487  21.549   0.460  0.00  0.00    +0.145 HD
ATOM     10  H   UNL     1     -40.152  20.543   0.122  0.00  0.00    +0.145 HD
ATOM     11  N   UNL     1     -39.981  25.086   3.418  0.00  0.00    -0.331 N 
ATOM     12  H   UNL     1     -40.933  25.316   3.311  0.00  0.00    +0.145 HD
ATOM     13  H   UNL     1     -39.400  25.644   3.983  0.00  0.00    +0.145 HD
ENDROOT
BRANCH   5  18
ATOM     14  O   UNL     1     -36.649  23.739   4.767  0.00  0.00    -0.307 OA
ATOM     15  N   UNL     1     -36.819  25.648   3.607  0.00  0.00    -0.293 NA
ATOM     16  N   UNL     1     -35.806  24.658   5.404  0.00  0.00    +0.008 NA
ATOM     17  N   UNL     1     -35.344  26.950   4.875  0.00  0.00    -0.291 N 
ATOM     18  C   UNL     1     -37.203  24.405   3.722  0.00  0.00    +0.352 C 
ATOM     19  C   UNL     1     -35.961  25.759   4.662  0.00  0.00    +0.180 C 
ATOM     20  H   UNL     1     -35.520  27.709   4.273  0.00  0.00    +0.155 HD
ATOM     21  H   UNL     1     -34.721  27.054   5.629  0.00  0.00    +0.155 HD
ENDBRANCH   5  18
TORSDOF 1
ENDMDL
MODEL 9
REMARK VINA RESULT:      -5.2      3.485      5.058
REMARK  Name = 194530
REMARK  1 active torsions:
REMARK  status: ('A' for Active; 'I' for Inactive)
REMARK    1  A    between atoms: C_5  and  C_15
REMARK                            x       y       z     vdW  Elec       q    Type
REMARK                         _______ _______ _______ _____ _____    ______ ____
ROOT
ATOM      1 CL   UNL     1     -41.358  24.371   1.087  0.00  0.00    -0.044 Cl
ATOM      2  N   UNL     1     -39.124  24.348   2.378  0.00  0.00    -0.376 NA
ATOM      3  N   UNL     1     -38.593  21.630   1.938  0.00  0.00    -0.367 NA
ATOM      4  N   UNL     1     -40.615  21.446   0.715  0.00  0.00    -0.330 N 
ATOM      5  C   UNL     1     -38.016  23.752   2.858  0.00  0.00    +0.244 C 
ATOM      6  C   UNL     1     -37.754  22.416   2.642  0.00  0.00    +0.215 C 
ATOM      7  C   UNL     1     -39.702  22.226   1.459  0.00  0.00    +0.220 C 
ATOM      8  C   UNL     1     -39.964  23.562   1.674  0.00  0.00    +0.233 C 
ATOM      9  H   UNL     1     -40.434  20.492   0.558  0.00  0.00    +0.145 HD
ATOM     10  H   UNL     1     -41.433  21.859   0.352  0.00  0.00    +0.145 HD
ATOM     11  N   UNL     1     -36.575  21.843   3.169  0.00  0.00    -0.331 N 
ATOM     12  H   UNL     1     -36.382  20.889   3.019  0.00  0.00    +0.145 HD
ATOM     13  H   UNL     1     -35.946  22.397   3.685  0.00  0.00    +0.145 HD
ENDROOT
BRANCH   5  18
ATOM     14  O   UNL     1     -36.831  24.210   4.853  0.00  0.00    -0.307 OA
ATOM     15  N   UNL     1     -36.616  25.770   3.261  0.00  0.00    -0.293 NA
ATOM     16  N   UNL     1     -35.993  25.197   5.386  0.00  0.00    +0.008 NA
ATOM     17  N   UNL     1     -35.206  27.241   4.413  0.00  0.00    -0.291 N 
ATOM     18  C   UNL     1     -37.149  24.628   3.602  0.00  0.00    +0.352 C 
ATOM     19  C   UNL     1     -35.915  26.082   4.389  0.00  0.00    +0.180 C 
ATOM     20  H   UNL     1     -35.206  27.834   3.626  0.00  0.00    +0.155 HD
ATOM     21  H   UNL     1     -34.692  27.487   5.214  0.00  0.00    +0.155 HD
ENDBRANCH   5  18
TORSDOF 1
ENDMDL
