MODEL 1
REMARK VINA RESULT:      -6.0      0.000      0.000
REMARK  Name = 54264088
REMARK  10 active torsions:
REMARK  status: ('A' for Active; 'I' for Inactive)
REMARK    1  A    between atoms: CA_1  and  C_8
REMARK    2  A    between atoms: CA_1  and  N_14
REMARK    3  A    between atoms: CA_1  and  CB_25
REMARK    4  A    between atoms: CA_4  and  C_10
REMARK    5  A    between atoms: C_10  and  O_11
REMARK    6  A    between atoms: C_15  and  C_18
REMARK    7  A    between atoms: C_19  and  C_21
REMARK    8  A    between atoms: C_21  and  O_22
REMARK    9  A    between atoms: O_22  and  C_23
REMARK   10  A    between atoms: CB_25  and  CG1_27
REMARK                            x       y       z     vdW  Elec       q    Type
REMARK                         _______ _______ _______ _____ _____    ______ ____
ROOT
ATOM      1  CA  UNL     1     -35.341  24.231   3.234  0.00  0.00    +0.149 C 
ENDROOT
BRANCH   1   8
ATOM      2  O   UNL     1     -37.664  24.222   3.754  0.00  0.00    -0.273 OA
ATOM      3  N   UNL     1     -37.024  23.221   1.770  0.00  0.00    -0.270 N 
ATOM      4  CA  UNL     1     -38.368  22.965   1.269  0.00  0.00    +0.175 C 
ATOM      5  CB  UNL     1     -38.178  22.639  -0.207  0.00  0.00    +0.033 C 
ATOM      6  CD  UNL     1     -36.014  22.819   0.793  0.00  0.00    +0.094 C 
ATOM      7  CG  UNL     1     -36.779  22.028  -0.257  0.00  0.00    +0.024 C 
ATOM      8  C   UNL     1     -36.786  23.900   2.953  0.00  0.00    +0.244 C 
BRANCH   4  10
ATOM      9  OXT UNL     1     -40.095  21.584   2.246  0.00  0.00    -0.248 OA
ATOM     10  C   UNL     1     -38.910  21.795   2.033  0.00  0.00    +0.332 C 
BRANCH  10  11
ATOM     11  O   UNL     1     -37.904  20.995   2.461  0.00  0.00    -0.479 OA
ATOM     12  H   UNL     1     -38.096  20.148   2.811  0.00  0.00    +0.295 HD
ENDBRANCH  10  11
ENDBRANCH   4  10
ENDBRANCH   1   8
BRANCH   1  14
ATOM     13  O   UNL     1     -33.514  25.734   1.543  0.00  0.00    -0.272 OA
ATOM     14  N   UNL     1     -35.229  25.655   3.118  0.00  0.00    -0.296 N 
ATOM     15  C   ACE A   0     -34.321  26.288   2.279  0.00  0.00    +0.253 C 
ATOM     16  H   UNL     1     -35.829  26.216   3.663  0.00  0.00    +0.150 HD
BRANCH  15  18
ATOM     17  O   UNL     1     -34.882  28.291   3.559  0.00  0.00    -0.333 OA
ATOM     18  C   UNL     1     -34.381  27.779   2.318  0.00  0.00    +0.229 C 
ATOM     19  C   UNL     1     -33.501  28.539   3.268  0.00  0.00    +0.250 C 
BRANCH  19  21
ATOM     20  O   UNL     1     -31.499  27.401   3.742  0.00  0.00    -0.247 OA
ATOM     21  C   UNL     1     -32.565  27.838   4.154  0.00  0.00    +0.347 C 
BRANCH  21  22
ATOM     22  O   UNL     1     -33.046  27.758   5.425  0.00  0.00    -0.447 OA
BRANCH  22  23
ATOM     23  C   UNL     1     -32.082  27.971   6.461  0.00  0.00    +0.209 C 
ATOM     24  C   UNL     1     -31.758  29.447   6.536  0.00  0.00    +0.051 C 
ENDBRANCH  22  23
ENDBRANCH  21  22
ENDBRANCH  19  21
ENDBRANCH  15  18
ENDBRANCH   1  14
BRANCH   1  25
ATOM     25  CB  UNL     1     -34.884  23.665   4.590  0.00  0.00    +0.027 C 
ATOM     26  CG2 UNL     1     -35.019  24.747   5.669  0.00  0.00    +0.002 C 
BRANCH  25  27
ATOM     27  CG1 UNL     1     -35.636  22.374   4.984  0.00  0.00    +0.002 C 
ATOM     28  CD1 UNL     1     -35.350  21.917   6.410  0.00  0.00    +0.000 C 
ENDBRANCH  25  27
ENDBRANCH   1  25
TORSDOF 10
ENDMDL
MODEL 2
REMARK VINA RESULT:      -6.0      2.218      4.159
REMARK  Name = 54264088
REMARK  10 active torsions:
REMARK  status: ('A' for Active; 'I' for Inactive)
REMARK    1  A    between atoms: CA_1  and  C_8
REMARK    2  A    between atoms: CA_1  and  N_14
REMARK    3  A    between atoms: CA_1  and  CB_25
REMARK    4  A    between atoms: CA_4  and  C_10
REMARK    5  A    between atoms: C_10  and  O_11
REMARK    6  A    between atoms: C_15  and  C_18
REMARK    7  A    between atoms: C_19  and  C_21
REMARK    8  A    between atoms: C_21  and  O_22
REMARK    9  A    between atoms: O_22  and  C_23
REMARK   10  A    between atoms: CB_25  and  CG1_27
REMARK                            x       y       z     vdW  Elec       q    Type
REMARK                         _______ _______ _______ _____ _____    ______ ____
ROOT
ATOM      1  CA  UNL     1     -35.816  23.189   1.176  0.00  0.00    +0.149 C 
ENDROOT
BRANCH   1   8
ATOM      2  O   UNL     1     -37.106  21.668   2.475  0.00  0.00    -0.273 OA
ATOM      3  N   UNL     1     -38.210  23.498   1.588  0.00  0.00    -0.270 N 
ATOM      4  CA  UNL     1     -39.483  23.267   2.258  0.00  0.00    +0.175 C 
ATOM      5  CB  UNL     1     -40.249  24.574   2.099  0.00  0.00    +0.033 C 
ATOM      6  CD  UNL     1     -38.242  24.734   0.811  0.00  0.00    +0.094 C 
ATOM      7  CG  UNL     1     -39.706  25.147   0.791  0.00  0.00    +0.024 C 
ATOM      8  C   UNL     1     -37.095  22.707   1.813  0.00  0.00    +0.244 C 
BRANCH   4  10
ATOM      9  OXT UNL     1     -40.698  22.218   0.449  0.00  0.00    -0.248 OA
ATOM     10  C   UNL     1     -40.159  22.136   1.544  0.00  0.00    +0.332 C 
BRANCH  10  11
ATOM     11  O   UNL     1     -40.096  20.999   2.279  0.00  0.00    -0.479 OA
ATOM     12  H   UNL     1     -39.350  20.438   2.211  0.00  0.00    +0.295 HD
ENDBRANCH  10  11
ENDBRANCH   4  10
ENDBRANCH   1   8
BRANCH   1  14
ATOM     13  O   UNL     1     -35.056  25.886   1.951  0.00  0.00    -0.272 OA
ATOM     14  N   UNL     1     -34.955  23.578   2.254  0.00  0.00    -0.296 N 
ATOM     15  C   ACE A   0     -34.648  24.899   2.551  0.00  0.00    +0.253 C 
ATOM     16  H   UNL     1     -34.562  22.871   2.815  0.00  0.00    +0.150 HD
BRANCH  15  18
ATOM     17  O   UNL     1     -33.929  26.311   4.410  0.00  0.00    -0.333 OA
ATOM     18  C   UNL     1     -33.733  25.072   3.718  0.00  0.00    +0.229 C 
ATOM     19  C   UNL     1     -34.294  25.115   5.110  0.00  0.00    +0.250 C 
BRANCH  19  21
ATOM     20  O   UNL     1     -36.452  25.950   5.523  0.00  0.00    -0.247 OA
ATOM     21  C   UNL     1     -35.735  24.975   5.347  0.00  0.00    +0.347 C 
BRANCH  21  22
ATOM     22  O   UNL     1     -36.117  23.668   5.339  0.00  0.00    -0.447 OA
BRANCH  22  23
ATOM     23  C   UNL     1     -35.349  22.800   6.179  0.00  0.00    +0.209 C 
ATOM     24  C   UNL     1     -35.169  21.470   5.479  0.00  0.00    +0.051 C 
ENDBRANCH  22  23
ENDBRANCH  21  22
ENDBRANCH  19  21
ENDBRANCH  15  18
ENDBRANCH   1  14
BRANCH   1  25
ATOM     25  CB  UNL     1     -35.218  22.128   0.235  0.00  0.00    +0.027 C 
ATOM     26  CG2 UNL     1     -35.831  22.279  -1.163  0.00  0.00    +0.002 C 
BRANCH  25  27
ATOM     27  CG1 UNL     1     -33.674  22.174   0.184  0.00  0.00    +0.002 C 
ATOM     28  CD1 UNL     1     -33.024  20.797   0.226  0.00  0.00    +0.000 C 
ENDBRANCH  25  27
ENDBRANCH   1  25
TORSDOF 10
ENDMDL
MODEL 3
REMARK VINA RESULT:      -5.9      2.115      3.143
REMARK  Name = 54264088
REMARK  10 active torsions:
REMARK  status: ('A' for Active; 'I' for Inactive)
REMARK    1  A    between atoms: CA_1  and  C_8
REMARK    2  A    between atoms: CA_1  and  N_14
REMARK    3  A    between atoms: CA_1  and  CB_25
REMARK    4  A    between atoms: CA_4  and  C_10
REMARK    5  A    between atoms: C_10  and  O_11
REMARK    6  A    between atoms: C_15  and  C_18
REMARK    7  A    between atoms: C_19  and  C_21
REMARK    8  A    between atoms: C_21  and  O_22
REMARK    9  A    between atoms: O_22  and  C_23
REMARK   10  A    between atoms: CB_25  and  CG1_27
REMARK                            x       y       z     vdW  Elec       q    Type
REMARK                         _______ _______ _______ _____ _____    ______ ____
ROOT
ATOM      1  CA  UNL     1     -35.758  23.453   3.019  0.00  0.00    +0.149 C 
ENDROOT
BRANCH   1   8
ATOM      2  O   UNL     1     -37.282  24.639   4.411  0.00  0.00    -0.273 OA
ATOM      3  N   UNL     1     -37.744  24.588   2.145  0.00  0.00    -0.270 N 
ATOM      4  CA  UNL     1     -38.872  25.509   2.183  0.00  0.00    +0.175 C 
ATOM      5  CB  UNL     1     -39.099  25.907   0.729  0.00  0.00    +0.033 C 
ATOM      6  CD  UNL     1     -37.439  24.187   0.774  0.00  0.00    +0.094 C 
ATOM      7  CG  UNL     1     -38.616  24.686  -0.051  0.00  0.00    +0.024 C 
ATOM      8  C   UNL     1     -36.992  24.284   3.268  0.00  0.00    +0.244 C 
BRANCH   4  10
ATOM      9  OXT UNL     1     -40.775  24.021   2.099  0.00  0.00    -0.248 OA
ATOM     10  C   UNL     1     -40.040  24.756   2.743  0.00  0.00    +0.332 C 
BRANCH  10  11
ATOM     11  O   UNL     1     -40.177  24.999   4.069  0.00  0.00    -0.479 OA
ATOM     12  H   UNL     1     -40.132  25.877   4.391  0.00  0.00    +0.295 HD
ENDBRANCH  10  11
ENDBRANCH   4  10
ENDBRANCH   1   8
BRANCH   1  14
ATOM     13  O   UNL     1     -34.120  24.740   0.990  0.00  0.00    -0.272 OA
ATOM     14  N   UNL     1     -34.641  24.328   3.224  0.00  0.00    -0.296 N 
ATOM     15  C   ACE A   0     -33.915  24.899   2.188  0.00  0.00    +0.253 C 
ATOM     16  H   UNL     1     -34.376  24.536   4.149  0.00  0.00    +0.150 HD
BRANCH  15  18
ATOM     17  O   UNL     1     -32.690  26.988   1.871  0.00  0.00    -0.333 OA
ATOM     18  C   UNL     1     -32.794  25.778   2.632  0.00  0.00    +0.229 C 
ATOM     19  C   UNL     1     -33.089  27.119   3.241  0.00  0.00    +0.250 C 
BRANCH  19  21
ATOM     20  O   UNL     1     -35.127  27.258   4.405  0.00  0.00    -0.247 OA
ATOM     21  C   UNL     1     -34.471  27.577   3.422  0.00  0.00    +0.347 C 
BRANCH  21  22
ATOM     22  O   UNL     1     -34.877  28.360   2.386  0.00  0.00    -0.447 OA
BRANCH  22  23
ATOM     23  C   UNL     1     -36.099  27.961   1.756  0.00  0.00    +0.209 C 
ATOM     24  C   UNL     1     -35.832  27.696   0.290  0.00  0.00    +0.051 C 
ENDBRANCH  22  23
ENDBRANCH  21  22
ENDBRANCH  19  21
ENDBRANCH  15  18
ENDBRANCH   1  14
BRANCH   1  25
ATOM     25  CB  UNL     1     -35.742  22.187   3.893  0.00  0.00    +0.027 C 
ATOM     26  CG2 UNL     1     -35.367  20.974   3.031  0.00  0.00    +0.002 C 
BRANCH  25  27
ATOM     27  CG1 UNL     1     -34.815  22.317   5.121  0.00  0.00    +0.002 C 
ATOM     28  CD1 UNL     1     -35.521  22.054   6.446  0.00  0.00    +0.000 C 
ENDBRANCH  25  27
ENDBRANCH   1  25
TORSDOF 10
ENDMDL
MODEL 4
REMARK VINA RESULT:      -5.9      3.103      5.886
REMARK  Name = 54264088
REMARK  10 active torsions:
REMARK  status: ('A' for Active; 'I' for Inactive)
REMARK    1  A    between atoms: CA_1  and  C_8
REMARK    2  A    between atoms: CA_1  and  N_14
REMARK    3  A    between atoms: CA_1  and  CB_25
REMARK    4  A    between atoms: CA_4  and  C_10
REMARK    5  A    between atoms: C_10  and  O_11
REMARK    6  A    between atoms: C_15  and  C_18
REMARK    7  A    between atoms: C_19  and  C_21
REMARK    8  A    between atoms: C_21  and  O_22
REMARK    9  A    between atoms: O_22  and  C_23
REMARK   10  A    between atoms: CB_25  and  CG1_27
REMARK                            x       y       z     vdW  Elec       q    Type
REMARK                         _______ _______ _______ _____ _____    ______ ____
ROOT
ATOM      1  CA  UNL     1     -37.024  24.419   3.607  0.00  0.00    +0.149 C 
ENDROOT
BRANCH   1   8
ATOM      2  O   UNL     1     -37.922  22.241   3.262  0.00  0.00    -0.273 OA
ATOM      3  N   UNL     1     -36.099  22.846   1.973  0.00  0.00    -0.270 N 
ATOM      4  CA  UNL     1     -36.096  21.664   1.122  0.00  0.00    +0.175 C 
ATOM      5  CB  UNL     1     -35.192  22.031  -0.049  0.00  0.00    +0.033 C 
ATOM      6  CD  UNL     1     -35.069  23.796   1.558  0.00  0.00    +0.094 C 
ATOM      7  CG  UNL     1     -34.213  23.033   0.559  0.00  0.00    +0.024 C 
ATOM      8  C   UNL     1     -37.068  23.068   2.937  0.00  0.00    +0.244 C 
BRANCH   4  10
ATOM      9  OXT UNL     1     -34.341  20.260   2.011  0.00  0.00    -0.248 OA
ATOM     10  C   UNL     1     -35.529  20.537   1.930  0.00  0.00    +0.332 C 
BRANCH  10  11
ATOM     11  O   UNL     1     -36.515  19.859   2.566  0.00  0.00    -0.479 OA
ATOM     12  H   UNL     1     -37.238  20.324   2.937  0.00  0.00    +0.295 HD
ENDBRANCH  10  11
ENDBRANCH   4  10
ENDBRANCH   1   8
BRANCH   1  14
ATOM     13  O   UNL     1     -38.201  26.615   2.109  0.00  0.00    -0.272 OA
ATOM     14  N   UNL     1     -38.379  24.883   3.658  0.00  0.00    -0.296 N 
ATOM     15  C   ACE A   0     -38.854  25.946   2.901  0.00  0.00    +0.253 C 
ATOM     16  H   UNL     1     -39.007  24.423   4.261  0.00  0.00    +0.150 HD
BRANCH  15  18
ATOM     17  O   UNL     1     -40.844  27.117   2.106  0.00  0.00    -0.333 OA
ATOM     18  C   UNL     1     -40.299  26.256   3.113  0.00  0.00    +0.229 C 
ATOM     19  C   UNL     1     -41.322  25.766   2.129  0.00  0.00    +0.250 C 
BRANCH  19  21
ATOM     20  O   UNL     1     -40.720  25.488  -0.126  0.00  0.00    -0.247 OA
ATOM     21  C   UNL     1     -40.926  24.969   0.963  0.00  0.00    +0.347 C 
BRANCH  21  22
ATOM     22  O   UNL     1     -40.832  23.646   1.271  0.00  0.00    -0.447 OA
BRANCH  22  23
ATOM     23  C   UNL     1     -39.916  22.893   0.470  0.00  0.00    +0.209 C 
ATOM     24  C   UNL     1     -40.115  21.419   0.751  0.00  0.00    +0.051 C 
ENDBRANCH  22  23
ENDBRANCH  21  22
ENDBRANCH  19  21
ENDBRANCH  15  18
ENDBRANCH   1  14
BRANCH   1  25
ATOM     25  CB  UNL     1     -36.323  24.349   4.975  0.00  0.00    +0.027 C 
ATOM     26  CG2 UNL     1     -35.118  23.405   4.886  0.00  0.00    +0.002 C 
BRANCH  25  27
ATOM     27  CG1 UNL     1     -35.916  25.739   5.512  0.00  0.00    +0.002 C 
ATOM     28  CD1 UNL     1     -34.411  25.909   5.680  0.00  0.00    +0.000 C 
ENDBRANCH  25  27
ENDBRANCH   1  25
TORSDOF 10
ENDMDL
MODEL 5
REMARK VINA RESULT:      -5.9      2.544      6.744
REMARK  Name = 54264088
REMARK  10 active torsions:
REMARK  status: ('A' for Active; 'I' for Inactive)
REMARK    1  A    between atoms: CA_1  and  C_8
REMARK    2  A    between atoms: CA_1  and  N_14
REMARK    3  A    between atoms: CA_1  and  CB_25
REMARK    4  A    between atoms: CA_4  and  C_10
REMARK    5  A    between atoms: C_10  and  O_11
REMARK    6  A    between atoms: C_15  and  C_18
REMARK    7  A    between atoms: C_19  and  C_21
REMARK    8  A    between atoms: C_21  and  O_22
REMARK    9  A    between atoms: O_22  and  C_23
REMARK   10  A    between atoms: CB_25  and  CG1_27
REMARK                            x       y       z     vdW  Elec       q    Type
REMARK                         _______ _______ _______ _____ _____    ______ ____
ROOT
ATOM      1  CA  UNL     1     -37.732  24.040   2.542  0.00  0.00    +0.149 C 
ENDROOT
BRANCH   1   8
ATOM      2  O   UNL     1     -36.808  23.610   4.693  0.00  0.00    -0.273 OA
ATOM      3  N   UNL     1     -35.612  25.009   3.291  0.00  0.00    -0.270 N 
ATOM      4  CA  UNL     1     -34.437  25.136   4.143  0.00  0.00    +0.175 C 
ATOM      5  CB  UNL     1     -33.362  25.725   3.238  0.00  0.00    +0.033 C 
ATOM      6  CD  UNL     1     -35.422  25.714   2.026  0.00  0.00    +0.094 C 
ATOM      7  CG  UNL     1     -34.161  26.542   2.224  0.00  0.00    +0.024 C 
ATOM      8  C   UNL     1     -36.681  24.189   3.613  0.00  0.00    +0.244 C 
BRANCH   4  10
ATOM      9  OXT UNL     1     -34.061  26.372   6.187  0.00  0.00    -0.248 OA
ATOM     10  C   UNL     1     -34.798  26.069   5.259  0.00  0.00    +0.332 C 
BRANCH  10  11
ATOM     11  O   UNL     1     -36.060  26.537   5.104  0.00  0.00    -0.479 OA
ATOM     12  H   UNL     1     -36.384  27.207   5.672  0.00  0.00    +0.295 HD
ENDBRANCH  10  11
ENDBRANCH   4  10
ENDBRANCH   1   8
BRANCH   1  14
ATOM     13  O   UNL     1     -36.776  22.782   0.101  0.00  0.00    -0.272 OA
ATOM     14  N   UNL     1     -37.764  22.647   2.206  0.00  0.00    -0.296 N 
ATOM     15  C   ACE A   0     -37.281  22.135   1.010  0.00  0.00    +0.253 C 
ATOM     16  H   UNL     1     -38.149  22.019   2.860  0.00  0.00    +0.150 HD
BRANCH  15  18
ATOM     17  O   UNL     1     -36.383  20.066   0.072  0.00  0.00    -0.333 OA
ATOM     18  C   UNL     1     -37.416  20.655   0.874  0.00  0.00    +0.229 C 
ATOM     19  C   UNL     1     -36.376  19.750   1.470  0.00  0.00    +0.250 C 
BRANCH  19  21
ATOM     20  O   UNL     1     -35.339  20.699   3.355  0.00  0.00    -0.247 OA
ATOM     21  C   UNL     1     -35.230  20.299   2.203  0.00  0.00    +0.347 C 
BRANCH  21  22
ATOM     22  O   UNL     1     -34.101  20.292   1.443  0.00  0.00    -0.447 OA
BRANCH  22  23
ATOM     23  C   UNL     1     -33.379  19.057   1.427  0.00  0.00    +0.209 C 
ATOM     24  C   UNL     1     -32.105  19.242   0.631  0.00  0.00    +0.051 C 
ENDBRANCH  22  23
ENDBRANCH  21  22
ENDBRANCH  19  21
ENDBRANCH  15  18
ENDBRANCH   1  14
BRANCH   1  25
ATOM     25  CB  UNL     1     -39.085  24.617   2.992  0.00  0.00    +0.027 C 
ATOM     26  CG2 UNL     1     -39.102  26.132   2.749  0.00  0.00    +0.002 C 
BRANCH  25  27
ATOM     27  CG1 UNL     1     -40.289  23.922   2.318  0.00  0.00    +0.002 C 
ATOM     28  CD1 UNL     1     -40.655  24.518   0.964  0.00  0.00    +0.000 C 
ENDBRANCH  25  27
ENDBRANCH   1  25
TORSDOF 10
ENDMDL
MODEL 6
REMARK VINA RESULT:      -5.8      2.705      5.839
REMARK  Name = 54264088
REMARK  10 active torsions:
REMARK  status: ('A' for Active; 'I' for Inactive)
REMARK    1  A    between atoms: CA_1  and  C_8
REMARK    2  A    between atoms: CA_1  and  N_14
REMARK    3  A    between atoms: CA_1  and  CB_25
REMARK    4  A    between atoms: CA_4  and  C_10
REMARK    5  A    between atoms: C_10  and  O_11
REMARK    6  A    between atoms: C_15  and  C_18
REMARK    7  A    between atoms: C_19  and  C_21
REMARK    8  A    between atoms: C_21  and  O_22
REMARK    9  A    between atoms: O_22  and  C_23
REMARK   10  A    between atoms: CB_25  and  CG1_27
REMARK                            x       y       z     vdW  Elec       q    Type
REMARK                         _______ _______ _______ _____ _____    ______ ____
ROOT
ATOM      1  CA  UNL     1     -36.089  25.741   2.967  0.00  0.00    +0.149 C 
ENDROOT
BRANCH   1   8
ATOM      2  O   UNL     1     -36.874  24.623   4.917  0.00  0.00    -0.273 OA
ATOM      3  N   UNL     1     -35.860  23.325   3.292  0.00  0.00    -0.270 N 
ATOM      4  CA  UNL     1     -36.140  22.035   3.909  0.00  0.00    +0.175 C 
ATOM      5  CB  UNL     1     -35.878  21.013   2.810  0.00  0.00    +0.033 C 
ATOM      6  CD  UNL     1     -35.197  23.157   2.001  0.00  0.00    +0.094 C 
ATOM      7  CG  UNL     1     -34.812  21.686   1.947  0.00  0.00    +0.024 C 
ATOM      8  C   UNL     1     -36.319  24.519   3.822  0.00  0.00    +0.244 C 
BRANCH   4  10
ATOM      9  OXT UNL     1     -34.440  22.748   5.472  0.00  0.00    -0.248 OA
ATOM     10  C   UNL     1     -35.188  21.876   5.055  0.00  0.00    +0.332 C 
BRANCH  10  11
ATOM     11  O   UNL     1     -35.265  20.626   5.573  0.00  0.00    -0.479 OA
ATOM     12  H   UNL     1     -36.101  20.232   5.724  0.00  0.00    +0.295 HD
ENDBRANCH  10  11
ENDBRANCH   4  10
ENDBRANCH   1   8
BRANCH   1  14
ATOM     13  O   UNL     1     -37.363  25.467   0.367  0.00  0.00    -0.272 OA
ATOM     14  N   UNL     1     -37.389  26.205   2.578  0.00  0.00    -0.296 N 
ATOM     15  C   ACE A   0     -37.917  26.027   1.306  0.00  0.00    +0.253 C 
ATOM     16  H   UNL     1     -37.936  26.673   3.249  0.00  0.00    +0.150 HD
BRANCH  15  18
ATOM     17  O   UNL     1     -40.151  25.736   0.363  0.00  0.00    -0.333 OA
ATOM     18  C   UNL     1     -39.287  26.590   1.124  0.00  0.00    +0.229 C 
ATOM     19  C   UNL     1     -40.468  25.905   1.751  0.00  0.00    +0.250 C 
BRANCH  19  21
ATOM     20  O   UNL     1     -40.021  24.751   3.750  0.00  0.00    -0.247 OA
ATOM     21  C   UNL     1     -40.295  24.692   2.558  0.00  0.00    +0.347 C 
BRANCH  21  22
ATOM     22  O   UNL     1     -40.475  23.567   1.814  0.00  0.00    -0.447 OA
BRANCH  22  23
ATOM     23  C   UNL     1     -39.526  22.521   2.044  0.00  0.00    +0.209 C 
ATOM     24  C   UNL     1     -38.721  22.301   0.782  0.00  0.00    +0.051 C 
ENDBRANCH  22  23
ENDBRANCH  21  22
ENDBRANCH  19  21
ENDBRANCH  15  18
ENDBRANCH   1  14
BRANCH   1  25
ATOM     25  CB  UNL     1     -35.232  26.789   3.697  0.00  0.00    +0.027 C 
ATOM     26  CG2 UNL     1     -33.926  26.142   4.173  0.00  0.00    +0.002 C 
BRANCH  25  27
ATOM     27  CG1 UNL     1     -34.961  28.045   2.839  0.00  0.00    +0.002 C 
ATOM     28  CD1 UNL     1     -34.290  27.737   1.506  0.00  0.00    +0.000 C 
ENDBRANCH  25  27
ENDBRANCH   1  25
TORSDOF 10
ENDMDL
MODEL 7
REMARK VINA RESULT:      -5.8      2.475      4.568
REMARK  Name = 54264088
REMARK  10 active torsions:
REMARK  status: ('A' for Active; 'I' for Inactive)
REMARK    1  A    between atoms: CA_1  and  C_8
REMARK    2  A    between atoms: CA_1  and  N_14
REMARK    3  A    between atoms: CA_1  and  CB_25
REMARK    4  A    between atoms: CA_4  and  C_10
REMARK    5  A    between atoms: C_10  and  O_11
REMARK    6  A    between atoms: C_15  and  C_18
REMARK    7  A    between atoms: C_19  and  C_21
REMARK    8  A    between atoms: C_21  and  O_22
REMARK    9  A    between atoms: O_22  and  C_23
REMARK   10  A    between atoms: CB_25  and  CG1_27
REMARK                            x       y       z     vdW  Elec       q    Type
REMARK                         _______ _______ _______ _____ _____    ______ ____
ROOT
ATOM      1  CA  UNL     1     -35.945  24.545   3.522  0.00  0.00    +0.149 C 
ENDROOT
BRANCH   1   8
ATOM      2  O   UNL     1     -37.649  22.894   3.335  0.00  0.00    -0.273 OA
ATOM      3  N   UNL     1     -35.796  22.655   1.971  0.00  0.00    -0.270 N 
ATOM      4  CA  UNL     1     -36.302  21.530   1.196  0.00  0.00    +0.175 C 
ATOM      5  CB  UNL     1     -35.382  21.447  -0.016  0.00  0.00    +0.033 C 
ATOM      6  CD  UNL     1     -34.494  23.093   1.473  0.00  0.00    +0.094 C 
ATOM      7  CG  UNL     1     -34.058  22.003   0.506  0.00  0.00    +0.024 C 
ATOM      8  C   UNL     1     -36.553  23.293   2.940  0.00  0.00    +0.244 C 
BRANCH   4  10
ATOM      9  OXT UNL     1     -35.519  20.231   3.078  0.00  0.00    -0.248 OA
ATOM     10  C   UNL     1     -36.194  20.312   2.061  0.00  0.00    +0.332 C 
BRANCH  10  11
ATOM     11  O   UNL     1     -36.948  19.302   1.564  0.00  0.00    -0.479 OA
ATOM     12  H   UNL     1     -37.597  18.893   2.102  0.00  0.00    +0.295 HD
ENDBRANCH  10  11
ENDBRANCH   4  10
ENDBRANCH   1   8
BRANCH   1  14
ATOM     13  O   UNL     1     -34.909  26.441   1.576  0.00  0.00    -0.272 OA
ATOM     14  N   UNL     1     -36.639  25.643   2.918  0.00  0.00    -0.296 N 
ATOM     15  C   ACE A   0     -36.060  26.501   1.992  0.00  0.00    +0.253 C 
ATOM     16  H   UNL     1     -37.578  25.797   3.172  0.00  0.00    +0.150 HD
BRANCH  15  18
ATOM     17  O   UNL     1     -36.822  27.832   0.091  0.00  0.00    -0.333 OA
ATOM     18  C   UNL     1     -36.969  27.575   1.493  0.00  0.00    +0.229 C 
ATOM     19  C   UNL     1     -38.057  27.240   0.514  0.00  0.00    +0.250 C 
BRANCH  19  21
ATOM     20  O   UNL     1     -37.771  25.470  -1.007  0.00  0.00    -0.247 OA
ATOM     21  C   UNL     1     -38.254  25.863   0.047  0.00  0.00    +0.347 C 
BRANCH  21  22
ATOM     22  O   UNL     1     -39.011  25.144   0.919  0.00  0.00    -0.447 OA
BRANCH  22  23
ATOM     23  C   UNL     1     -40.112  25.849   1.503  0.00  0.00    +0.209 C 
ATOM     24  C   UNL     1     -40.247  25.437   2.952  0.00  0.00    +0.051 C 
ENDBRANCH  22  23
ENDBRANCH  21  22
ENDBRANCH  19  21
ENDBRANCH  15  18
ENDBRANCH   1  14
BRANCH   1  25
ATOM     25  CB  UNL     1     -35.988  24.533   5.059  0.00  0.00    +0.027 C 
ATOM     26  CG2 UNL     1     -35.095  23.403   5.588  0.00  0.00    +0.002 C 
BRANCH  25  27
ATOM     27  CG1 UNL     1     -35.605  25.895   5.681  0.00  0.00    +0.002 C 
ATOM     28  CD1 UNL     1     -34.101  26.118   5.776  0.00  0.00    +0.000 C 
ENDBRANCH  25  27
ENDBRANCH   1  25
TORSDOF 10
ENDMDL
MODEL 8
REMARK VINA RESULT:      -5.7      2.800      5.943
REMARK  Name = 54264088
REMARK  10 active torsions:
REMARK  status: ('A' for Active; 'I' for Inactive)
REMARK    1  A    between atoms: CA_1  and  C_8
REMARK    2  A    between atoms: CA_1  and  N_14
REMARK    3  A    between atoms: CA_1  and  CB_25
REMARK    4  A    between atoms: CA_4  and  C_10
REMARK    5  A    between atoms: C_10  and  O_11
REMARK    6  A    between atoms: C_15  and  C_18
REMARK    7  A    between atoms: C_19  and  C_21
REMARK    8  A    between atoms: C_21  and  O_22
REMARK    9  A    between atoms: O_22  and  C_23
REMARK   10  A    between atoms: CB_25  and  CG1_27
REMARK                            x       y       z     vdW  Elec       q    Type
REMARK                         _______ _______ _______ _____ _____    ______ ____
ROOT
ATOM      1  CA  UNL     1     -36.136  22.844   3.778  0.00  0.00    +0.149 C 
ENDROOT
BRANCH   1   8
ATOM      2  O   UNL     1     -35.697  24.925   2.708  0.00  0.00    -0.273 OA
ATOM      3  N   UNL     1     -37.795  24.001   2.397  0.00  0.00    -0.270 N 
ATOM      4  CA  UNL     1     -38.263  24.973   1.418  0.00  0.00    +0.175 C 
ATOM      5  CB  UNL     1     -39.501  24.337   0.799  0.00  0.00    +0.033 C 
ATOM      6  CD  UNL     1     -38.789  22.953   2.613  0.00  0.00    +0.094 C 
ATOM      7  CG  UNL     1     -40.047  23.457   1.922  0.00  0.00    +0.024 C 
ATOM      8  C   UNL     1     -36.510  24.021   2.912  0.00  0.00    +0.244 C 
BRANCH   4  10
ATOM      9  OXT UNL     1     -39.621  26.411   2.808  0.00  0.00    -0.248 OA
ATOM     10  C   UNL     1     -38.598  26.229   2.166  0.00  0.00    +0.332 C 
BRANCH  10  11
ATOM     11  O   UNL     1     -37.607  27.144   2.033  0.00  0.00    -0.479 OA
ATOM     12  H   UNL     1     -36.913  27.177   2.661  0.00  0.00    +0.295 HD
ENDBRANCH  10  11
ENDBRANCH   4  10
ENDBRANCH   1   8
BRANCH   1  14
ATOM     13  O   UNL     1     -36.512  20.180   2.675  0.00  0.00    -0.272 OA
ATOM     14  N   UNL     1     -35.197  22.072   3.019  0.00  0.00    -0.296 N 
ATOM     15  C   ACE A   0     -35.466  20.801   2.530  0.00  0.00    +0.253 C 
ATOM     16  H   UNL     1     -34.314  22.466   2.833  0.00  0.00    +0.150 HD
BRANCH  15  18
ATOM     17  O   UNL     1     -34.772  19.520   0.569  0.00  0.00    -0.333 OA
ATOM     18  C   UNL     1     -34.343  20.184   1.764  0.00  0.00    +0.229 C 
ATOM     19  C   UNL     1     -33.988  20.707   0.402  0.00  0.00    +0.250 C 
BRANCH  19  21
ATOM     20  O   UNL     1     -34.403  22.993   0.040  0.00  0.00    -0.247 OA
ATOM     21  C   UNL     1     -34.721  21.833  -0.188  0.00  0.00    +0.347 C 
BRANCH  21  22
ATOM     22  O   UNL     1     -35.744  21.404  -0.976  0.00  0.00    -0.447 OA
BRANCH  22  23
ATOM     23  C   UNL     1     -37.016  22.004  -0.712  0.00  0.00    +0.209 C 
ATOM     24  C   UNL     1     -38.029  20.911  -0.444  0.00  0.00    +0.051 C 
ENDBRANCH  22  23
ENDBRANCH  21  22
ENDBRANCH  19  21
ENDBRANCH  15  18
ENDBRANCH   1  14
BRANCH   1  25
ATOM     25  CB  UNL     1     -35.622  23.295   5.156  0.00  0.00    +0.027 C 
ATOM     26  CG2 UNL     1     -35.469  22.074   6.071  0.00  0.00    +0.002 C 
BRANCH  25  27
ATOM     27  CG1 UNL     1     -34.310  24.107   5.070  0.00  0.00    +0.002 C 
ATOM     28  CD1 UNL     1     -34.401  25.479   5.726  0.00  0.00    +0.000 C 
ENDBRANCH  25  27
ENDBRANCH   1  25
TORSDOF 10
ENDMDL
MODEL 9
REMARK VINA RESULT:      -5.7      2.978      5.500
REMARK  Name = 54264088
REMARK  10 active torsions:
REMARK  status: ('A' for Active; 'I' for Inactive)
REMARK    1  A    between atoms: CA_1  and  C_8
REMARK    2  A    between atoms: CA_1  and  N_14
REMARK    3  A    between atoms: CA_1  and  CB_25
REMARK    4  A    between atoms: CA_4  and  C_10
REMARK    5  A    between atoms: C_10  and  O_11
REMARK    6  A    between atoms: C_15  and  C_18
REMARK    7  A    between atoms: C_19  and  C_21
REMARK    8  A    between atoms: C_21  and  O_22
REMARK    9  A    between atoms: O_22  and  C_23
REMARK   10  A    between atoms: CB_25  and  CG1_27
REMARK                            x       y       z     vdW  Elec       q    Type
REMARK                         _______ _______ _______ _____ _____    ______ ____
ROOT
ATOM      1  CA  UNL     1     -35.751  24.057   3.176  0.00  0.00    +0.149 C 
ENDROOT
BRANCH   1   8
ATOM      2  O   UNL     1     -36.942  22.014   2.898  0.00  0.00    -0.273 OA
ATOM      3  N   UNL     1     -35.185  22.416   1.448  0.00  0.00    -0.270 N 
ATOM      4  CA  UNL     1     -35.408  21.261   0.589  0.00  0.00    +0.175 C 
ATOM      5  CB  UNL     1     -34.579  21.538  -0.659  0.00  0.00    +0.033 C 
ATOM      6  CD  UNL     1     -34.088  23.241   0.945  0.00  0.00    +0.094 C 
ATOM      7  CG  UNL     1     -33.430  22.398  -0.137  0.00  0.00    +0.024 C 
ATOM      8  C   UNL     1     -36.026  22.736   2.501  0.00  0.00    +0.244 C 
BRANCH   4  10
ATOM      9  OXT UNL     1     -33.749  19.686   1.370  0.00  0.00    -0.248 OA
ATOM     10  C   UNL     1     -34.913  20.056   1.330  0.00  0.00    +0.332 C 
BRANCH  10  11
ATOM     11  O   UNL     1     -35.936  19.424   1.956  0.00  0.00    -0.479 OA
ATOM     12  H   UNL     1     -36.180  19.675   2.825  0.00  0.00    +0.295 HD
ENDBRANCH  10  11
ENDBRANCH   4  10
ENDBRANCH   1   8
BRANCH   1  14
ATOM     13  O   UNL     1     -37.225  25.946   1.528  0.00  0.00    -0.272 OA
ATOM     14  N   UNL     1     -37.032  24.639   3.448  0.00  0.00    -0.296 N 
ATOM     15  C   ACE A   0     -37.662  25.537   2.597  0.00  0.00    +0.253 C 
ATOM     16  H   UNL     1     -37.490  24.388   4.282  0.00  0.00    +0.150 HD
BRANCH  15  18
ATOM     17  O   UNL     1     -39.832  26.503   2.026  0.00  0.00    -0.333 OA
ATOM     18  C   UNL     1     -38.992  26.015   3.079  0.00  0.00    +0.229 C 
ATOM     19  C   UNL     1     -40.242  25.291   2.671  0.00  0.00    +0.250 C 
BRANCH  19  21
ATOM     20  O   UNL     1     -40.166  22.973   2.282  0.00  0.00    -0.247 OA
ATOM     21  C   UNL     1     -40.179  24.103   1.812  0.00  0.00    +0.347 C 
BRANCH  21  22
ATOM     22  O   UNL     1     -40.138  24.443   0.494  0.00  0.00    -0.447 OA
BRANCH  22  23
ATOM     23  C   UNL     1     -39.755  23.391  -0.399  0.00  0.00    +0.209 C 
ATOM     24  C   UNL     1     -38.253  23.420  -0.577  0.00  0.00    +0.051 C 
ENDBRANCH  22  23
ENDBRANCH  21  22
ENDBRANCH  19  21
ENDBRANCH  15  18
ENDBRANCH   1  14
BRANCH   1  25
ATOM     25  CB  UNL     1     -34.855  23.885   4.414  0.00  0.00    +0.027 C 
ATOM     26  CG2 UNL     1     -34.047  25.168   4.644  0.00  0.00    +0.002 C 
BRANCH  25  27
ATOM     27  CG1 UNL     1     -35.648  23.480   5.677  0.00  0.00    +0.002 C 
ATOM     28  CD1 UNL     1     -35.284  22.099   6.207  0.00  0.00    +0.000 C 
ENDBRANCH  25  27
ENDBRANCH   1  25
TORSDOF 10
ENDMDL
