MODEL 1
REMARK VINA RESULT:      -6.3      0.000      0.000
REMARK  Name = 21149483
REMARK  9 active torsions:
REMARK  status: ('A' for Active; 'I' for Inactive)
REMARK    1  A    between atoms: C_2  and  N_3
REMARK    2  A    between atoms: C_2  and  N_19
REMARK    3  A    between atoms: N_3  and  CA_5
REMARK    4  A    between atoms: CA_5  and  C_7
REMARK    5  A    between atoms: CA_5  and  CB_10
REMARK    6  A    between atoms: C_7  and  O_8
REMARK    7  A    between atoms: CB_10  and  CG_11
REMARK    8  A    between atoms: CZ_16  and  OH_17
REMARK    9  A    between atoms: N_19  and  C_23
REMARK                            x       y       z     vdW  Elec       q    Type
REMARK                         _______ _______ _______ _____ _____    ______ ____
ROOT
ATOM      1  S   UNL     1     -33.828  21.889   0.265  0.00  0.00    -0.019 S 
ATOM      2  C   ACE A   0     -34.789  23.234   0.558  0.00  0.00    +0.135 C 
ENDROOT
BRANCH   2   3
ATOM      3  N   UNL     1     -36.034  23.005   1.130  0.00  0.00    -0.308 N 
ATOM      4  H   UNL     1     -36.803  23.438   0.691  0.00  0.00    +0.149 HD
BRANCH   3   5
ATOM      5  CA  UNL     1     -36.326  22.200   2.300  0.00  0.00    +0.175 C 
BRANCH   5   7
ATOM      6  OXT UNL     1     -38.023  20.952   1.112  0.00  0.00    -0.248 OA
ATOM      7  C   UNL     1     -37.104  20.948   1.924  0.00  0.00    +0.332 C 
BRANCH   7   8
ATOM      8  O   UNL     1     -36.701  19.818   2.553  0.00  0.00    -0.479 OA
ATOM      9  H   UNL     1     -36.660  19.009   2.082  0.00  0.00    +0.295 HD
ENDBRANCH   7   8
ENDBRANCH   5   7
BRANCH   5  10
ATOM     10  CB  UNL     1     -37.106  23.007   3.347  0.00  0.00    +0.057 C 
BRANCH  10  11
ATOM     11  CG  UNL     1     -36.232  23.960   4.126  0.00  0.00    -0.020 C 
ATOM     12  CD1 UNL     1     -34.879  23.673   4.312  0.00  0.00    -0.001 C 
ATOM     13  CD2 UNL     1     -36.777  25.128   4.660  0.00  0.00    -0.001 C 
ATOM     14  CE1 UNL     1     -34.072  24.554   5.033  0.00  0.00    +0.036 C 
ATOM     15  CE2 UNL     1     -35.970  26.008   5.380  0.00  0.00    +0.036 C 
ATOM     16  CZ  UNL     1     -34.618  25.721   5.567  0.00  0.00    +0.134 C 
BRANCH  16  17
ATOM     17  OH  UNL     1     -33.829  26.580   6.269  0.00  0.00    -0.506 OA
ATOM     18  HH  UNL     1     -33.741  26.482   7.196  0.00  0.00    +0.292 HD
ENDBRANCH  16  17
ENDBRANCH  10  11
ENDBRANCH   5  10
ENDBRANCH   3   5
ENDBRANCH   2   3
BRANCH   2  19
ATOM     19  N   UNL     1     -34.471  24.585   0.329  0.00  0.00    -0.299 N 
ATOM     20  H   UNL     1     -34.386  24.816  -0.624  0.00  0.00    +0.154 HD
BRANCH  19  23
ATOM     21  N   UNL     1     -31.535  27.136   3.130  0.00  0.00    -0.405 NA
ATOM     22  N   UNL     1     -33.595  28.858   3.740  0.00  0.00    -0.405 NA
ATOM     23  C   UNL     1     -34.255  25.663   1.188  0.00  0.00    +0.030 C 
ATOM     24  C   UNL     1     -32.755  26.946   2.604  0.00  0.00    +0.140 C 
ATOM     25  C   UNL     1     -33.801  27.820   2.914  0.00  0.00    +0.139 C 
ATOM     26  C   UNL     1     -32.995  25.876   1.744  0.00  0.00    +0.102 C 
ATOM     27  C   UNL     1     -35.293  26.530   1.495  0.00  0.00    -0.008 C 
ATOM     28  C   UNL     1     -31.328  28.172   3.956  0.00  0.00    +0.138 C 
ATOM     29  C   UNL     1     -35.059  27.602   2.355  0.00  0.00    +0.088 C 
ATOM     30  C   UNL     1     -32.375  29.047   4.266  0.00  0.00    +0.138 C 
ATOM     31  C   UNL     1     -30.071  28.391   4.515  0.00  0.00    +0.087 C 
ATOM     32  C   UNL     1     -32.134  30.117   5.127  0.00  0.00    +0.087 C 
ATOM     33  C   UNL     1     -29.837  29.463   5.375  0.00  0.00    -0.023 C 
ATOM     34  C   UNL     1     -30.873  30.330   5.682  0.00  0.00    -0.023 C 
ENDBRANCH  19  23
ENDBRANCH   2  19
TORSDOF 9
ENDMDL
MODEL 2
REMARK VINA RESULT:      -6.2      4.058      7.138
REMARK  Name = 21149483
REMARK  9 active torsions:
REMARK  status: ('A' for Active; 'I' for Inactive)
REMARK    1  A    between atoms: C_2  and  N_3
REMARK    2  A    between atoms: C_2  and  N_19
REMARK    3  A    between atoms: N_3  and  CA_5
REMARK    4  A    between atoms: CA_5  and  C_7
REMARK    5  A    between atoms: CA_5  and  CB_10
REMARK    6  A    between atoms: C_7  and  O_8
REMARK    7  A    between atoms: CB_10  and  CG_11
REMARK    8  A    between atoms: CZ_16  and  OH_17
REMARK    9  A    between atoms: N_19  and  C_23
REMARK                            x       y       z     vdW  Elec       q    Type
REMARK                         _______ _______ _______ _____ _____    ______ ____
ROOT
ATOM      1  S   UNL     1     -38.147  23.478   1.957  0.00  0.00    -0.019 S 
ATOM      2  C   ACE A   0     -37.095  22.481   2.805  0.00  0.00    +0.135 C 
ENDROOT
BRANCH   2   3
ATOM      3  N   UNL     1     -36.859  22.802   4.136  0.00  0.00    -0.308 N 
ATOM      4  H   UNL     1     -37.653  22.910   4.708  0.00  0.00    +0.149 HD
BRANCH   3   5
ATOM      5  CA  UNL     1     -35.571  22.997   4.773  0.00  0.00    +0.175 C 
BRANCH   5   7
ATOM      6  OXT UNL     1     -35.176  22.109   6.988  0.00  0.00    -0.248 OA
ATOM      7  C   UNL     1     -35.288  21.896   5.785  0.00  0.00    +0.332 C 
BRANCH   7   8
ATOM      8  O   UNL     1     -35.173  20.654   5.258  0.00  0.00    -0.479 OA
ATOM      9  H   UNL     1     -35.836  20.012   5.422  0.00  0.00    +0.295 HD
ENDBRANCH   7   8
ENDBRANCH   5   7
BRANCH   5  10
ATOM     10  CB  UNL     1     -35.493  24.369   5.456  0.00  0.00    +0.057 C 
BRANCH  10  11
ATOM     11  CG  UNL     1     -34.523  25.308   4.780  0.00  0.00    -0.020 C 
ATOM     12  CD1 UNL     1     -34.184  25.115   3.441  0.00  0.00    -0.001 C 
ATOM     13  CD2 UNL     1     -33.967  26.369   5.494  0.00  0.00    -0.001 C 
ATOM     14  CE1 UNL     1     -33.287  25.983   2.816  0.00  0.00    +0.036 C 
ATOM     15  CE2 UNL     1     -33.071  27.237   4.870  0.00  0.00    +0.036 C 
ATOM     16  CZ  UNL     1     -32.731  27.044   3.531  0.00  0.00    +0.134 C 
BRANCH  16  17
ATOM     17  OH  UNL     1     -31.857  27.890   2.921  0.00  0.00    -0.506 OA
ATOM     18  HH  UNL     1     -31.466  27.651   2.104  0.00  0.00    +0.292 HD
ENDBRANCH  16  17
ENDBRANCH  10  11
ENDBRANCH   5  10
ENDBRANCH   3   5
ENDBRANCH   2   3
BRANCH   2  19
ATOM     19  N   UNL     1     -36.444  21.324   2.341  0.00  0.00    -0.299 N 
ATOM     20  H   UNL     1     -36.937  20.492   2.525  0.00  0.00    +0.154 HD
BRANCH  19  23
ATOM     21  N   UNL     1     -32.704  18.524   1.269  0.00  0.00    -0.405 NA
ATOM     22  N   UNL     1     -31.655  20.514  -0.318  0.00  0.00    -0.405 NA
ATOM     23  C   UNL     1     -35.238  21.124   1.669  0.00  0.00    +0.030 C 
ATOM     24  C   UNL     1     -33.349  19.694   1.135  0.00  0.00    +0.140 C 
ATOM     25  C   UNL     1     -32.816  20.704   0.329  0.00  0.00    +0.139 C 
ATOM     26  C   UNL     1     -34.554  19.917   1.796  0.00  0.00    +0.102 C 
ATOM     27  C   UNL     1     -34.709  22.127   0.870  0.00  0.00    -0.008 C 
ATOM     28  C   UNL     1     -31.544  18.333   0.623  0.00  0.00    +0.138 C 
ATOM     29  C   UNL     1     -33.503  21.910   0.206  0.00  0.00    +0.088 C 
ATOM     30  C   UNL     1     -31.011  19.344  -0.183  0.00  0.00    +0.138 C 
ATOM     31  C   UNL     1     -30.857  17.128   0.745  0.00  0.00    +0.087 C 
ATOM     32  C   UNL     1     -29.804  19.121  -0.844  0.00  0.00    +0.087 C 
ATOM     33  C   UNL     1     -29.650  16.911   0.082  0.00  0.00    -0.023 C 
ATOM     34  C   UNL     1     -29.122  17.913  -0.717  0.00  0.00    -0.023 C 
ENDBRANCH  19  23
ENDBRANCH   2  19
TORSDOF 9
ENDMDL
MODEL 3
REMARK VINA RESULT:      -6.2      4.287      6.658
REMARK  Name = 21149483
REMARK  9 active torsions:
REMARK  status: ('A' for Active; 'I' for Inactive)
REMARK    1  A    between atoms: C_2  and  N_3
REMARK    2  A    between atoms: C_2  and  N_19
REMARK    3  A    between atoms: N_3  and  CA_5
REMARK    4  A    between atoms: CA_5  and  C_7
REMARK    5  A    between atoms: CA_5  and  CB_10
REMARK    6  A    between atoms: C_7  and  O_8
REMARK    7  A    between atoms: CB_10  and  CG_11
REMARK    8  A    between atoms: CZ_16  and  OH_17
REMARK    9  A    between atoms: N_19  and  C_23
REMARK                            x       y       z     vdW  Elec       q    Type
REMARK                         _______ _______ _______ _____ _____    ______ ____
ROOT
ATOM      1  S   UNL     1     -36.426  17.920  -1.951  0.00  0.00    -0.019 S 
ATOM      2  C   ACE A   0     -36.152  17.919  -0.294  0.00  0.00    +0.135 C 
ENDROOT
BRANCH   2   3
ATOM      3  N   UNL     1     -35.115  17.120   0.172  0.00  0.00    -0.308 N 
ATOM      4  H   UNL     1     -35.376  16.314   0.675  0.00  0.00    +0.149 HD
BRANCH   3   5
ATOM      5  CA  UNL     1     -33.693  17.342  -0.001  0.00  0.00    +0.175 C 
BRANCH   5   7
ATOM      6  OXT UNL     1     -31.749  15.970   0.434  0.00  0.00    -0.248 OA
ATOM      7  C   UNL     1     -32.920  16.033   0.074  0.00  0.00    +0.332 C 
BRANCH   7   8
ATOM      8  O   UNL     1     -33.627  14.935  -0.282  0.00  0.00    -0.479 OA
ATOM      9  H   UNL     1     -33.566  14.600  -1.155  0.00  0.00    +0.295 HD
ENDBRANCH   7   8
ENDBRANCH   5   7
BRANCH   5  10
ATOM     10  CB  UNL     1     -33.155  18.328   1.045  0.00  0.00    +0.057 C 
BRANCH  10  11
ATOM     11  CG  UNL     1     -32.511  19.546   0.429  0.00  0.00    -0.020 C 
ATOM     12  CD1 UNL     1     -31.191  19.485  -0.022  0.00  0.00    -0.001 C 
ATOM     13  CD2 UNL     1     -33.233  20.733   0.310  0.00  0.00    -0.001 C 
ATOM     14  CE1 UNL     1     -30.596  20.611  -0.592  0.00  0.00    +0.036 C 
ATOM     15  CE2 UNL     1     -32.638  21.859  -0.259  0.00  0.00    +0.036 C 
ATOM     16  CZ  UNL     1     -31.319  21.798  -0.709  0.00  0.00    +0.134 C 
BRANCH  16  17
ATOM     17  OH  UNL     1     -30.737  22.895  -1.265  0.00  0.00    -0.506 OA
ATOM     18  HH  UNL     1     -30.754  23.715  -0.811  0.00  0.00    +0.292 HD
ENDBRANCH  16  17
ENDBRANCH  10  11
ENDBRANCH   5  10
ENDBRANCH   3   5
ENDBRANCH   2   3
BRANCH   2  19
ATOM     19  N   UNL     1     -36.825  18.665   0.690  0.00  0.00    -0.299 N 
ATOM     20  H   UNL     1     -37.455  18.133   1.228  0.00  0.00    +0.154 HD
BRANCH  19  23
ATOM     21  N   UNL     1     -35.640  22.064   3.855  0.00  0.00    -0.405 NA
ATOM     22  N   UNL     1     -36.613  24.000   2.156  0.00  0.00    -0.405 NA
ATOM     23  C   UNL     1     -36.774  20.010   1.055  0.00  0.00    +0.030 C 
ATOM     24  C   UNL     1     -36.168  21.722   2.669  0.00  0.00    +0.140 C 
ATOM     25  C   UNL     1     -36.662  22.705   1.807  0.00  0.00    +0.139 C 
ATOM     26  C   UNL     1     -36.230  20.385   2.283  0.00  0.00    +0.102 C 
ATOM     27  C   UNL     1     -37.264  20.985   0.199  0.00  0.00    -0.008 C 
ATOM     28  C   UNL     1     -35.591  23.358   4.205  0.00  0.00    +0.138 C 
ATOM     29  C   UNL     1     -37.205  22.324   0.581  0.00  0.00    +0.088 C 
ATOM     30  C   UNL     1     -36.086  24.342   3.342  0.00  0.00    +0.138 C 
ATOM     31  C   UNL     1     -35.048  23.739   5.430  0.00  0.00    +0.087 C 
ATOM     32  C   UNL     1     -36.023  25.679   3.730  0.00  0.00    +0.087 C 
ATOM     33  C   UNL     1     -34.989  25.078   5.812  0.00  0.00    -0.023 C 
ATOM     34  C   UNL     1     -35.479  26.053   4.957  0.00  0.00    -0.023 C 
ENDBRANCH  19  23
ENDBRANCH   2  19
TORSDOF 9
ENDMDL
MODEL 4
REMARK VINA RESULT:      -6.2      2.178      3.467
REMARK  Name = 21149483
REMARK  9 active torsions:
REMARK  status: ('A' for Active; 'I' for Inactive)
REMARK    1  A    between atoms: C_2  and  N_3
REMARK    2  A    between atoms: C_2  and  N_19
REMARK    3  A    between atoms: N_3  and  CA_5
REMARK    4  A    between atoms: CA_5  and  C_7
REMARK    5  A    between atoms: CA_5  and  CB_10
REMARK    6  A    between atoms: C_7  and  O_8
REMARK    7  A    between atoms: CB_10  and  CG_11
REMARK    8  A    between atoms: CZ_16  and  OH_17
REMARK    9  A    between atoms: N_19  and  C_23
REMARK                            x       y       z     vdW  Elec       q    Type
REMARK                         _______ _______ _______ _____ _____    ______ ____
ROOT
ATOM      1  S   UNL     1     -35.149  20.405   1.720  0.00  0.00    -0.019 S 
ATOM      2  C   ACE A   0     -36.298  21.178   2.669  0.00  0.00    +0.135 C 
ENDROOT
BRANCH   2   3
ATOM      3  N   UNL     1     -37.624  21.064   2.269  0.00  0.00    -0.308 N 
ATOM      4  H   UNL     1     -37.975  20.149   2.172  0.00  0.00    +0.149 HD
BRANCH   3   5
ATOM      5  CA  UNL     1     -38.546  22.145   1.978  0.00  0.00    +0.175 C 
BRANCH   5   7
ATOM      6  OXT UNL     1     -40.608  21.933   0.732  0.00  0.00    -0.248 OA
ATOM      7  C   UNL     1     -39.948  21.615   1.715  0.00  0.00    +0.332 C 
BRANCH   7   8
ATOM      8  O   UNL     1     -40.414  20.755   2.651  0.00  0.00    -0.479 OA
ATOM      9  H   UNL     1     -39.822  20.186   3.103  0.00  0.00    +0.295 HD
ENDBRANCH   7   8
ENDBRANCH   5   7
BRANCH   5  10
ATOM     10  CB  UNL     1     -38.066  22.974   0.778  0.00  0.00    +0.057 C 
BRANCH  10  11
ATOM     11  CG  UNL     1     -37.640  24.371   1.160  0.00  0.00    -0.020 C 
ATOM     12  CD1 UNL     1     -38.148  24.963   2.317  0.00  0.00    -0.001 C 
ATOM     13  CD2 UNL     1     -36.740  25.070   0.357  0.00  0.00    -0.001 C 
ATOM     14  CE1 UNL     1     -37.754  26.254   2.671  0.00  0.00    +0.036 C 
ATOM     15  CE2 UNL     1     -36.347  26.361   0.710  0.00  0.00    +0.036 C 
ATOM     16  CZ  UNL     1     -36.853  26.953   1.866  0.00  0.00    +0.134 C 
BRANCH  16  17
ATOM     17  OH  UNL     1     -36.470  28.212   2.211  0.00  0.00    -0.506 OA
ATOM     18  HH  UNL     1     -35.805  28.338   2.858  0.00  0.00    +0.292 HD
ENDBRANCH  16  17
ENDBRANCH  10  11
ENDBRANCH   5  10
ENDBRANCH   3   5
ENDBRANCH   2   3
BRANCH   2  19
ATOM     19  N   UNL     1     -36.088  21.904   3.855  0.00  0.00    -0.299 N 
ATOM     20  H   UNL     1     -36.363  21.422   4.668  0.00  0.00    +0.154 HD
BRANCH  19  23
ATOM     21  N   UNL     1     -33.337  25.596   2.523  0.00  0.00    -0.405 NA
ATOM     22  N   UNL     1     -34.004  26.940   4.831  0.00  0.00    -0.405 NA
ATOM     23  C   UNL     1     -35.566  23.172   4.105  0.00  0.00    +0.030 C 
ATOM     24  C   UNL     1     -34.168  25.036   3.417  0.00  0.00    +0.140 C 
ATOM     25  C   UNL     1     -34.506  25.719   4.589  0.00  0.00    +0.139 C 
ATOM     26  C   UNL     1     -34.702  23.770   3.189  0.00  0.00    +0.102 C 
ATOM     27  C   UNL     1     -35.901  23.850   5.269  0.00  0.00    -0.008 C 
ATOM     28  C   UNL     1     -32.835  26.816   2.764  0.00  0.00    +0.138 C 
ATOM     29  C   UNL     1     -35.370  25.116   5.502  0.00  0.00    +0.088 C 
ATOM     30  C   UNL     1     -33.173  27.499   3.937  0.00  0.00    +0.138 C 
ATOM     31  C   UNL     1     -31.971  27.418   1.852  0.00  0.00    +0.087 C 
ATOM     32  C   UNL     1     -32.638  28.766   4.164  0.00  0.00    +0.087 C 
ATOM     33  C   UNL     1     -31.440  28.685   2.085  0.00  0.00    -0.023 C 
ATOM     34  C   UNL     1     -31.775  29.362   3.247  0.00  0.00    -0.023 C 
ENDBRANCH  19  23
ENDBRANCH   2  19
TORSDOF 9
ENDMDL
MODEL 5
REMARK VINA RESULT:      -6.2      2.824      4.427
REMARK  Name = 21149483
REMARK  9 active torsions:
REMARK  status: ('A' for Active; 'I' for Inactive)
REMARK    1  A    between atoms: C_2  and  N_3
REMARK    2  A    between atoms: C_2  and  N_19
REMARK    3  A    between atoms: N_3  and  CA_5
REMARK    4  A    between atoms: CA_5  and  C_7
REMARK    5  A    between atoms: CA_5  and  CB_10
REMARK    6  A    between atoms: C_7  and  O_8
REMARK    7  A    between atoms: CB_10  and  CG_11
REMARK    8  A    between atoms: CZ_16  and  OH_17
REMARK    9  A    between atoms: N_19  and  C_23
REMARK                            x       y       z     vdW  Elec       q    Type
REMARK                         _______ _______ _______ _____ _____    ______ ____
ROOT
ATOM      1  S   UNL     1     -35.147  21.752   6.007  0.00  0.00    -0.019 S 
ATOM      2  C   ACE A   0     -35.896  22.486   4.696  0.00  0.00    +0.135 C 
ENDROOT
BRANCH   2   3
ATOM      3  N   UNL     1     -36.357  21.651   3.685  0.00  0.00    -0.308 N 
ATOM      4  H   UNL     1     -37.053  21.001   3.938  0.00  0.00    +0.149 HD
BRANCH   3   5
ATOM      5  CA  UNL     1     -35.924  21.630   2.302  0.00  0.00    +0.175 C 
BRANCH   5   7
ATOM      6  OXT UNL     1     -37.051  21.992   0.192  0.00  0.00    -0.248 OA
ATOM      7  C   UNL     1     -36.973  22.248   1.389  0.00  0.00    +0.332 C 
BRANCH   7   8
ATOM      8  O   UNL     1     -37.826  23.103   2.002  0.00  0.00    -0.479 OA
ATOM      9  H   UNL     1     -37.491  23.812   2.515  0.00  0.00    +0.295 HD
ENDBRANCH   7   8
ENDBRANCH   5   7
BRANCH   5  10
ATOM     10  CB  UNL     1     -35.607  20.200   1.842  0.00  0.00    +0.057 C 
BRANCH  10  11
ATOM     11  CG  UNL     1     -34.219  20.061   1.266  0.00  0.00    -0.020 C 
ATOM     12  CD1 UNL     1     -33.682  21.085   0.484  0.00  0.00    -0.001 C 
ATOM     13  CD2 UNL     1     -33.472  18.910   1.515  0.00  0.00    -0.001 C 
ATOM     14  CE1 UNL     1     -32.398  20.956  -0.048  0.00  0.00    +0.036 C 
ATOM     15  CE2 UNL     1     -32.189  18.781   0.983  0.00  0.00    +0.036 C 
ATOM     16  CZ  UNL     1     -31.653  19.804   0.201  0.00  0.00    +0.134 C 
BRANCH  16  17
ATOM     17  OH  UNL     1     -30.401  19.679  -0.318  0.00  0.00    -0.506 OA
ATOM     18  HH  UNL     1     -30.288  19.436  -1.215  0.00  0.00    +0.292 HD
ENDBRANCH  16  17
ENDBRANCH  10  11
ENDBRANCH   5  10
ENDBRANCH   3   5
ENDBRANCH   2   3
BRANCH   2  19
ATOM     19  N   UNL     1     -36.152  23.856   4.506  0.00  0.00    -0.299 N 
ATOM     20  H   UNL     1     -37.099  24.100   4.613  0.00  0.00    +0.154 HD
BRANCH  19  23
ATOM     21  N   UNL     1     -32.994  27.190   5.881  0.00  0.00    -0.405 NA
ATOM     22  N   UNL     1     -32.867  28.148   3.303  0.00  0.00    -0.405 NA
ATOM     23  C   UNL     1     -35.326  24.937   4.198  0.00  0.00    +0.030 C 
ATOM     24  C   UNL     1     -33.727  26.621   4.910  0.00  0.00    +0.140 C 
ATOM     25  C   UNL     1     -33.662  27.108   3.601  0.00  0.00    +0.139 C 
ATOM     26  C   UNL     1     -34.559  25.541   5.193  0.00  0.00    +0.102 C 
ATOM     27  C   UNL     1     -35.263  25.420   2.899  0.00  0.00    -0.008 C 
ATOM     28  C   UNL     1     -32.200  28.229   5.584  0.00  0.00    +0.138 C 
ATOM     29  C   UNL     1     -34.432  26.501   2.610  0.00  0.00    +0.088 C 
ATOM     30  C   UNL     1     -32.136  28.717   4.274  0.00  0.00    +0.138 C 
ATOM     31  C   UNL     1     -31.431  28.837   6.573  0.00  0.00    +0.087 C 
ATOM     32  C   UNL     1     -31.303  29.798   3.991  0.00  0.00    +0.087 C 
ATOM     33  C   UNL     1     -30.600  29.918   6.284  0.00  0.00    -0.023 C 
ATOM     34  C   UNL     1     -30.536  30.401   4.987  0.00  0.00    -0.023 C 
ENDBRANCH  19  23
ENDBRANCH   2  19
TORSDOF 9
ENDMDL
MODEL 6
REMARK VINA RESULT:      -6.1      2.920      4.496
REMARK  Name = 21149483
REMARK  9 active torsions:
REMARK  status: ('A' for Active; 'I' for Inactive)
REMARK    1  A    between atoms: C_2  and  N_3
REMARK    2  A    between atoms: C_2  and  N_19
REMARK    3  A    between atoms: N_3  and  CA_5
REMARK    4  A    between atoms: CA_5  and  C_7
REMARK    5  A    between atoms: CA_5  and  CB_10
REMARK    6  A    between atoms: C_7  and  O_8
REMARK    7  A    between atoms: CB_10  and  CG_11
REMARK    8  A    between atoms: CZ_16  and  OH_17
REMARK    9  A    between atoms: N_19  and  C_23
REMARK                            x       y       z     vdW  Elec       q    Type
REMARK                         _______ _______ _______ _____ _____    ______ ____
ROOT
ATOM      1  S   UNL     1     -39.206  22.491   1.897  0.00  0.00    -0.019 S 
ATOM      2  C   ACE A   0     -37.808  21.890   2.609  0.00  0.00    +0.135 C 
ENDROOT
BRANCH   2   3
ATOM      3  N   UNL     1     -37.368  20.644   2.178  0.00  0.00    -0.308 N 
ATOM      4  H   UNL     1     -37.764  19.862   2.626  0.00  0.00    +0.149 HD
BRANCH   3   5
ATOM      5  CA  UNL     1     -36.391  20.372   1.143  0.00  0.00    +0.175 C 
BRANCH   5   7
ATOM      6  OXT UNL     1     -37.192  19.573  -0.995  0.00  0.00    -0.248 OA
ATOM      7  C   UNL     1     -36.901  19.320   0.169  0.00  0.00    +0.332 C 
BRANCH   7   8
ATOM      8  O   UNL     1     -37.007  18.072   0.685  0.00  0.00    -0.479 OA
ATOM      9  H   UNL     1     -36.351  17.750   1.272  0.00  0.00    +0.295 HD
ENDBRANCH   7   8
ENDBRANCH   5   7
BRANCH   5  10
ATOM     10  CB  UNL     1     -35.054  19.919   1.748  0.00  0.00    +0.057 C 
BRANCH  10  11
ATOM     11  CG  UNL     1     -33.860  20.383   0.950  0.00  0.00    -0.020 C 
ATOM     12  CD1 UNL     1     -32.765  19.535   0.776  0.00  0.00    -0.001 C 
ATOM     13  CD2 UNL     1     -33.850  21.658   0.385  0.00  0.00    -0.001 C 
ATOM     14  CE1 UNL     1     -31.661  19.964   0.038  0.00  0.00    +0.036 C 
ATOM     15  CE2 UNL     1     -32.747  22.087  -0.352  0.00  0.00    +0.036 C 
ATOM     16  CZ  UNL     1     -31.652  21.240  -0.525  0.00  0.00    +0.134 C 
BRANCH  16  17
ATOM     17  OH  UNL     1     -30.575  21.657  -1.245  0.00  0.00    -0.506 OA
ATOM     18  HH  UNL     1     -30.188  22.492  -1.068  0.00  0.00    +0.292 HD
ENDBRANCH  16  17
ENDBRANCH  10  11
ENDBRANCH   5  10
ENDBRANCH   3   5
ENDBRANCH   2   3
BRANCH   2  19
ATOM     19  N   UNL     1     -36.996  22.514   3.572  0.00  0.00    -0.299 N 
ATOM     20  H   UNL     1     -37.059  22.108   4.466  0.00  0.00    +0.154 HD
BRANCH  19  23
ATOM     21  N   UNL     1     -34.177  25.706   5.773  0.00  0.00    -0.405 NA
ATOM     22  N   UNL     1     -33.508  26.809   3.341  0.00  0.00    -0.405 NA
ATOM     23  C   UNL     1     -36.118  23.596   3.509  0.00  0.00    +0.030 C 
ATOM     24  C   UNL     1     -34.693  25.207   4.638  0.00  0.00    +0.140 C 
ATOM     25  C   UNL     1     -34.353  25.767   3.403  0.00  0.00    +0.139 C 
ATOM     26  C   UNL     1     -35.573  24.128   4.676  0.00  0.00    +0.102 C 
ATOM     27  C   UNL     1     -35.781  24.152   2.283  0.00  0.00    -0.008 C 
ATOM     28  C   UNL     1     -33.333  26.746   5.712  0.00  0.00    +0.138 C 
ATOM     29  C   UNL     1     -34.902  25.232   2.240  0.00  0.00    +0.088 C 
ATOM     30  C   UNL     1     -32.993  27.307   4.476  0.00  0.00    +0.138 C 
ATOM     31  C   UNL     1     -32.784  27.282   6.874  0.00  0.00    +0.087 C 
ATOM     32  C   UNL     1     -32.113  28.387   4.438  0.00  0.00    +0.087 C 
ATOM     33  C   UNL     1     -31.905  28.362   6.830  0.00  0.00    -0.023 C 
ATOM     34  C   UNL     1     -31.568  28.918   5.606  0.00  0.00    -0.023 C 
ENDBRANCH  19  23
ENDBRANCH   2  19
TORSDOF 9
ENDMDL
MODEL 7
REMARK VINA RESULT:      -6.0      2.398      3.301
REMARK  Name = 21149483
REMARK  9 active torsions:
REMARK  status: ('A' for Active; 'I' for Inactive)
REMARK    1  A    between atoms: C_2  and  N_3
REMARK    2  A    between atoms: C_2  and  N_19
REMARK    3  A    between atoms: N_3  and  CA_5
REMARK    4  A    between atoms: CA_5  and  C_7
REMARK    5  A    between atoms: CA_5  and  CB_10
REMARK    6  A    between atoms: C_7  and  O_8
REMARK    7  A    between atoms: CB_10  and  CG_11
REMARK    8  A    between atoms: CZ_16  and  OH_17
REMARK    9  A    between atoms: N_19  and  C_23
REMARK                            x       y       z     vdW  Elec       q    Type
REMARK                         _______ _______ _______ _____ _____    ______ ____
ROOT
ATOM      1  S   UNL     1     -37.748  24.540  -0.801  0.00  0.00    -0.019 S 
ATOM      2  C   ACE A   0     -37.172  25.717   0.250  0.00  0.00    +0.135 C 
ENDROOT
BRANCH   2   3
ATOM      3  N   UNL     1     -38.027  26.127   1.265  0.00  0.00    -0.308 N 
ATOM      4  H   UNL     1     -38.469  26.998   1.140  0.00  0.00    +0.149 HD
BRANCH   3   5
ATOM      5  CA  UNL     1     -38.338  25.413   2.488  0.00  0.00    +0.175 C 
BRANCH   5   7
ATOM      6  OXT UNL     1     -40.449  26.594   2.437  0.00  0.00    -0.248 OA
ATOM      7  C   UNL     1     -39.722  25.782   3.002  0.00  0.00    +0.332 C 
BRANCH   7   8
ATOM      8  O   UNL     1     -40.099  25.140   4.133  0.00  0.00    -0.479 OA
ATOM      9  H   UNL     1     -40.225  24.211   4.125  0.00  0.00    +0.295 HD
ENDBRANCH   7   8
ENDBRANCH   5   7
BRANCH   5  10
ATOM     10  CB  UNL     1     -37.287  25.687   3.573  0.00  0.00    +0.057 C 
BRANCH  10  11
ATOM     11  CG  UNL     1     -36.628  24.429   4.085  0.00  0.00    -0.020 C 
ATOM     12  CD1 UNL     1     -35.906  24.456   5.279  0.00  0.00    -0.001 C 
ATOM     13  CD2 UNL     1     -36.740  23.240   3.365  0.00  0.00    -0.001 C 
ATOM     14  CE1 UNL     1     -35.297  23.293   5.752  0.00  0.00    +0.036 C 
ATOM     15  CE2 UNL     1     -36.131  22.078   3.838  0.00  0.00    +0.036 C 
ATOM     16  CZ  UNL     1     -35.410  22.104   5.031  0.00  0.00    +0.134 C 
BRANCH  16  17
ATOM     17  OH  UNL     1     -34.815  20.971   5.493  0.00  0.00    -0.506 OA
ATOM     18  HH  UNL     1     -33.996  21.022   5.944  0.00  0.00    +0.292 HD
ENDBRANCH  16  17
ENDBRANCH  10  11
ENDBRANCH   5  10
ENDBRANCH   3   5
ENDBRANCH   2   3
BRANCH   2  19
ATOM     19  N   UNL     1     -35.902  26.321   0.253  0.00  0.00    -0.299 N 
ATOM     20  H   UNL     1     -35.635  26.687  -0.621  0.00  0.00    +0.154 HD
BRANCH  19  23
ATOM     21  N   UNL     1     -33.616  29.199   3.330  0.00  0.00    -0.405 NA
ATOM     22  N   UNL     1     -32.114  27.070   4.222  0.00  0.00    -0.405 NA
ATOM     23  C   UNL     1     -34.946  26.505   1.252  0.00  0.00    +0.030 C 
ATOM     24  C   UNL     1     -33.796  27.975   2.807  0.00  0.00    +0.140 C 
ATOM     25  C   UNL     1     -33.034  26.895   3.260  0.00  0.00    +0.139 C 
ATOM     26  C   UNL     1     -34.744  27.767   1.807  0.00  0.00    +0.102 C 
ATOM     27  C   UNL     1     -34.189  25.432   1.702  0.00  0.00    -0.008 C 
ATOM     28  C   UNL     1     -32.697  29.375   4.291  0.00  0.00    +0.138 C 
ATOM     29  C   UNL     1     -33.240  25.635   2.701  0.00  0.00    +0.088 C 
ATOM     30  C   UNL     1     -31.933  28.294   4.744  0.00  0.00    +0.138 C 
ATOM     31  C   UNL     1     -32.490  30.634   4.850  0.00  0.00    +0.087 C 
ATOM     32  C   UNL     1     -30.985  28.503   5.744  0.00  0.00    +0.087 C 
ATOM     33  C   UNL     1     -31.540  30.837   5.849  0.00  0.00    -0.023 C 
ATOM     34  C   UNL     1     -30.784  29.766   6.298  0.00  0.00    -0.023 C 
ENDBRANCH  19  23
ENDBRANCH   2  19
TORSDOF 9
ENDMDL
MODEL 8
REMARK VINA RESULT:      -5.9      2.393      3.852
REMARK  Name = 21149483
REMARK  9 active torsions:
REMARK  status: ('A' for Active; 'I' for Inactive)
REMARK    1  A    between atoms: C_2  and  N_3
REMARK    2  A    between atoms: C_2  and  N_19
REMARK    3  A    between atoms: N_3  and  CA_5
REMARK    4  A    between atoms: CA_5  and  C_7
REMARK    5  A    between atoms: CA_5  and  CB_10
REMARK    6  A    between atoms: C_7  and  O_8
REMARK    7  A    between atoms: CB_10  and  CG_11
REMARK    8  A    between atoms: CZ_16  and  OH_17
REMARK    9  A    between atoms: N_19  and  C_23
REMARK                            x       y       z     vdW  Elec       q    Type
REMARK                         _______ _______ _______ _____ _____    ______ ____
ROOT
ATOM      1  S   UNL     1     -39.219  23.711   2.018  0.00  0.00    -0.019 S 
ATOM      2  C   ACE A   0     -38.026  23.701   3.199  0.00  0.00    +0.135 C 
ENDROOT
BRANCH   2   3
ATOM      3  N   UNL     1     -37.244  22.556   3.294  0.00  0.00    -0.308 N 
ATOM      4  H   UNL     1     -37.361  22.012   4.106  0.00  0.00    +0.149 HD
BRANCH   3   5
ATOM      5  CA  UNL     1     -36.275  22.076   2.328  0.00  0.00    +0.175 C 
BRANCH   5   7
ATOM      6  OXT UNL     1     -34.826  20.169   2.664  0.00  0.00    -0.248 OA
ATOM      7  C   UNL     1     -35.967  20.602   2.545  0.00  0.00    +0.332 C 
BRANCH   7   8
ATOM      8  O   UNL     1     -37.055  19.798   2.605  0.00  0.00    -0.479 OA
ATOM      9  H   UNL     1     -37.910  20.155   2.466  0.00  0.00    +0.295 HD
ENDBRANCH   7   8
ENDBRANCH   5   7
BRANCH   5  10
ATOM     10  CB  UNL     1     -34.978  22.896   2.390  0.00  0.00    +0.057 C 
BRANCH  10  11
ATOM     11  CG  UNL     1     -34.841  23.868   1.244  0.00  0.00    -0.020 C 
ATOM     12  CD1 UNL     1     -33.769  24.760   1.209  0.00  0.00    -0.001 C 
ATOM     13  CD2 UNL     1     -35.787  23.876   0.219  0.00  0.00    -0.001 C 
ATOM     14  CE1 UNL     1     -33.643  25.659   0.150  0.00  0.00    +0.036 C 
ATOM     15  CE2 UNL     1     -35.662  24.775  -0.840  0.00  0.00    +0.036 C 
ATOM     16  CZ  UNL     1     -34.590  25.667  -0.875  0.00  0.00    +0.134 C 
BRANCH  16  17
ATOM     17  OH  UNL     1     -34.466  26.544  -1.908  0.00  0.00    -0.506 OA
ATOM     18  HH  UNL     1     -33.661  26.597  -2.383  0.00  0.00    +0.292 HD
ENDBRANCH  16  17
ENDBRANCH  10  11
ENDBRANCH   5  10
ENDBRANCH   3   5
ENDBRANCH   2   3
BRANCH   2  19
ATOM     19  N   UNL     1     -37.689  24.734   4.092  0.00  0.00    -0.299 N 
ATOM     20  H   UNL     1     -38.460  25.101   4.582  0.00  0.00    +0.154 HD
BRANCH  19  23
ATOM     21  N   UNL     1     -34.370  28.093   3.268  0.00  0.00    -0.405 NA
ATOM     22  N   UNL     1     -32.878  27.153   5.382  0.00  0.00    -0.405 NA
ATOM     23  C   UNL     1     -36.477  25.340   4.421  0.00  0.00    +0.030 C 
ATOM     24  C   UNL     1     -34.803  27.048   3.991  0.00  0.00    +0.140 C 
ATOM     25  C   UNL     1     -34.045  26.571   5.064  0.00  0.00    +0.139 C 
ATOM     26  C   UNL     1     -36.011  26.426   3.682  0.00  0.00    +0.102 C 
ATOM     27  C   UNL     1     -35.725  24.866   5.486  0.00  0.00    -0.008 C 
ATOM     28  C   UNL     1     -33.204  28.675   3.584  0.00  0.00    +0.138 C 
ATOM     29  C   UNL     1     -34.516  25.484   5.799  0.00  0.00    +0.088 C 
ATOM     30  C   UNL     1     -32.446  28.197   4.659  0.00  0.00    +0.138 C 
ATOM     31  C   UNL     1     -32.733  29.761   2.850  0.00  0.00    +0.087 C 
ATOM     32  C   UNL     1     -31.237  28.820   4.967  0.00  0.00    +0.087 C 
ATOM     33  C   UNL     1     -31.524  30.379   3.164  0.00  0.00    -0.023 C 
ATOM     34  C   UNL     1     -30.772  29.906   4.228  0.00  0.00    -0.023 C 
ENDBRANCH  19  23
ENDBRANCH   2  19
TORSDOF 9
ENDMDL
MODEL 9
REMARK VINA RESULT:      -5.9      4.871      7.423
REMARK  Name = 21149483
REMARK  9 active torsions:
REMARK  status: ('A' for Active; 'I' for Inactive)
REMARK    1  A    between atoms: C_2  and  N_3
REMARK    2  A    between atoms: C_2  and  N_19
REMARK    3  A    between atoms: N_3  and  CA_5
REMARK    4  A    between atoms: CA_5  and  C_7
REMARK    5  A    between atoms: CA_5  and  CB_10
REMARK    6  A    between atoms: C_7  and  O_8
REMARK    7  A    between atoms: CB_10  and  CG_11
REMARK    8  A    between atoms: CZ_16  and  OH_17
REMARK    9  A    between atoms: N_19  and  C_23
REMARK                            x       y       z     vdW  Elec       q    Type
REMARK                         _______ _______ _______ _____ _____    ______ ____
ROOT
ATOM      1  S   UNL     1     -37.031  19.602  -0.596  0.00  0.00    -0.019 S 
ATOM      2  C   ACE A   0     -36.582  19.825   1.007  0.00  0.00    +0.135 C 
ENDROOT
BRANCH   2   3
ATOM      3  N   UNL     1     -37.560  20.291   1.875  0.00  0.00    -0.308 N 
ATOM      4  H   UNL     1     -38.168  19.614   2.253  0.00  0.00    +0.149 HD
BRANCH   3   5
ATOM      5  CA  UNL     1     -37.785  21.663   2.285  0.00  0.00    +0.175 C 
BRANCH   5   7
ATOM      6  OXT UNL     1     -39.614  23.219   1.988  0.00  0.00    -0.248 OA
ATOM      7  C   UNL     1     -39.246  22.055   2.113  0.00  0.00    +0.332 C 
BRANCH   7   8
ATOM      8  O   UNL     1     -40.115  21.017   2.100  0.00  0.00    -0.479 OA
ATOM      9  H   UNL     1     -40.168  20.441   2.837  0.00  0.00    +0.295 HD
ENDBRANCH   7   8
ENDBRANCH   5   7
BRANCH   5  10
ATOM     10  CB  UNL     1     -36.888  22.630   1.500  0.00  0.00    +0.057 C 
BRANCH  10  11
ATOM     11  CG  UNL     1     -35.924  23.386   2.383  0.00  0.00    -0.020 C 
ATOM     12  CD1 UNL     1     -35.945  23.192   3.765  0.00  0.00    -0.001 C 
ATOM     13  CD2 UNL     1     -35.014  24.279   1.818  0.00  0.00    -0.001 C 
ATOM     14  CE1 UNL     1     -35.054  23.891   4.581  0.00  0.00    +0.036 C 
ATOM     15  CE2 UNL     1     -34.125  24.978   2.633  0.00  0.00    +0.036 C 
ATOM     16  CZ  UNL     1     -34.144  24.784   4.014  0.00  0.00    +0.134 C 
BRANCH  16  17
ATOM     17  OH  UNL     1     -33.276  25.466   4.810  0.00  0.00    -0.506 OA
ATOM     18  HH  UNL     1     -33.125  26.379   4.665  0.00  0.00    +0.292 HD
ENDBRANCH  16  17
ENDBRANCH  10  11
ENDBRANCH   5  10
ENDBRANCH   3   5
ENDBRANCH   2   3
BRANCH   2  19
ATOM     19  N   UNL     1     -35.332  19.560   1.595  0.00  0.00    -0.299 N 
ATOM     20  H   UNL     1     -35.391  19.252   2.528  0.00  0.00    +0.154 HD
BRANCH  19  23
ATOM     21  N   UNL     1     -30.953  17.670   1.117  0.00  0.00    -0.405 NA
ATOM     22  N   UNL     1     -30.140  19.886  -0.302  0.00  0.00    -0.405 NA
ATOM     23  C   UNL     1     -34.025  19.646   1.116  0.00  0.00    +0.030 C 
ATOM     24  C   UNL     1     -31.810  18.676   0.881  0.00  0.00    +0.140 C 
ATOM     25  C   UNL     1     -31.397  19.801   0.161  0.00  0.00    +0.139 C 
ATOM     26  C   UNL     1     -33.120  18.613   1.351  0.00  0.00    +0.102 C 
ATOM     27  C   UNL     1     -33.616  20.763   0.401  0.00  0.00    -0.008 C 
ATOM     28  C   UNL     1     -29.696  17.754   0.656  0.00  0.00    +0.138 C 
ATOM     29  C   UNL     1     -32.306  20.832  -0.071  0.00  0.00    +0.088 C 
ATOM     30  C   UNL     1     -29.283  18.880  -0.065  0.00  0.00    +0.138 C 
ATOM     31  C   UNL     1     -28.787  16.725   0.887  0.00  0.00    +0.087 C 
ATOM     32  C   UNL     1     -27.972  18.943  -0.534  0.00  0.00    +0.087 C 
ATOM     33  C   UNL     1     -27.478  16.794   0.415  0.00  0.00    -0.023 C 
ATOM     34  C   UNL     1     -27.068  17.909  -0.299  0.00  0.00    -0.023 C 
ENDBRANCH  19  23
ENDBRANCH   2  19
TORSDOF 9
ENDMDL
