MODEL 1
REMARK VINA RESULT:      -8.8      0.000      0.000
REMARK  Name = 197533
REMARK  6 active torsions:
REMARK  status: ('A' for Active; 'I' for Inactive)
REMARK    1  A    between atoms: N_2  and  C_37
REMARK    2  A    between atoms: C_6  and  N_14
REMARK    3  A    between atoms: C_8  and  C_31
REMARK    4  A    between atoms: N_15  and  C_19
REMARK    5  A    between atoms: C_22  and  C_29
REMARK    6  A    between atoms: C_37  and  C_38
REMARK                            x       y       z     vdW  Elec       q    Type
REMARK                         _______ _______ _______ _____ _____    ______ ____
ROOT
ATOM      1  O   UNL     1     -37.338  24.275   0.729  0.00  0.00    -0.271 OA
ATOM      2  N   UNL     1     -36.224  22.932   2.266  0.00  0.00    -0.256 N 
ATOM      3  N   UNL     1     -36.551  25.692   3.491  0.00  0.00    -0.243 NA
ATOM      4  C   UNL     1     -35.770  22.688   3.609  0.00  0.00    +0.055 C 
ATOM      5  C   UNL     1     -37.053  24.004   1.898  0.00  0.00    +0.271 C 
ATOM      6  C   UNL     1     -37.619  24.820   3.048  0.00  0.00    +0.256 C 
ATOM      7  C   UNL     1     -35.521  23.721   4.536  0.00  0.00    +0.031 C 
ATOM      8  C   UNL     1     -35.587  25.166   4.166  0.00  0.00    +0.079 C 
ATOM      9  C   UNL     1     -35.540  21.364   4.031  0.00  0.00    +0.015 C 
ATOM     10  C   UNL     1     -35.135  23.418   5.854  0.00  0.00    +0.003 C 
ATOM     11  C   UNL     1     -35.136  21.072   5.336  0.00  0.00    +0.001 C 
ATOM     12  C   UNL     1     -34.945  22.098   6.251  0.00  0.00    +0.000 C 
ENDROOT
BRANCH   6  14
ATOM     13  O   UNL     1     -40.221  25.029   4.223  0.00  0.00    -0.252 OA
ATOM     14  N   UNL     1     -38.723  25.604   2.560  0.00  0.00    -0.264 N 
ATOM     15  N   UNL     1     -40.842  26.493   2.497  0.00  0.00    -0.268 N 
ATOM     16  C   UNL     1     -39.971  25.653   3.196  0.00  0.00    +0.306 C 
ATOM     17  H   UNL     1     -38.595  26.131   1.739  0.00  0.00    +0.153 HD
ATOM     18  H   UNL     1     -40.477  26.918   1.687  0.00  0.00    +0.156 HD
BRANCH  15  19
ATOM     19  C   UNL     1     -42.185  26.807   2.812  0.00  0.00    +0.052 C 
ATOM     20  C   UNL     1     -42.448  27.775   3.769  0.00  0.00    +0.025 C 
ATOM     21  C   UNL     1     -43.209  26.142   2.158  0.00  0.00    +0.015 C 
ATOM     22  C   UNL     1     -43.773  28.085   4.078  0.00  0.00    +0.067 C 
ATOM     23  C   UNL     1     -44.533  26.453   2.467  0.00  0.00    +0.002 C 
ATOM     24  C   UNL     1     -44.814  27.424   3.428  0.00  0.00    +0.010 C 
BRANCH  22  29
ATOM     25  N   UNL     1     -45.289  29.320   5.537  0.00  0.00    -0.110 NA
ATOM     26  N   UNL     1     -43.097  29.878   5.605  0.00  0.00    -0.087 NA
ATOM     27  N   UNL     1     -45.004  30.309   6.396  0.00  0.00    -0.140 N 
ATOM     28  N   UNL     1     -43.716  30.673   6.469  0.00  0.00    -0.022 NA
ATOM     29  C   UNL     1     -44.063  29.085   5.067  0.00  0.00    +0.074 C 
ATOM     30  H   UNL     1     -45.700  30.742   6.940  0.00  0.00    +0.197 HD
ENDBRANCH  22  29
ENDBRANCH  15  19
ENDBRANCH   6  14
BRANCH   8  31
ATOM     31  C   UNL     1     -34.477  26.070   4.583  0.00  0.00    +0.017 C 
ATOM     32  C   UNL     1     -34.101  26.126   5.920  0.00  0.00    +0.001 C 
ATOM     33  C   UNL     1     -33.828  26.845   3.630  0.00  0.00    +0.001 C 
ATOM     34  C   UNL     1     -33.062  26.970   6.309  0.00  0.00    +0.000 C 
ATOM     35  C   UNL     1     -32.789  27.690   4.019  0.00  0.00    +0.000 C 
ATOM     36  C   UNL     1     -32.405  27.752   5.359  0.00  0.00    +0.000 C 
ENDBRANCH   8  31
BRANCH   2  37
ATOM     37  C   UNL     1     -35.849  21.969   1.230  0.00  0.00    +0.098 C 
BRANCH  37  38
ATOM     38  C   UNL     1     -34.360  22.044   0.876  0.00  0.00    +0.020 C 
ATOM     39  C   UNL     1     -34.155  22.950  -0.338  0.00  0.00    +0.002 C 
ATOM     40  C   UNL     1     -33.775  20.657   0.597  0.00  0.00    +0.002 C 
ENDBRANCH  37  38
ENDBRANCH   2  37
TORSDOF 6
ENDMDL
MODEL 2
REMARK VINA RESULT:      -8.7      1.248      1.442
REMARK  Name = 197533
REMARK  6 active torsions:
REMARK  status: ('A' for Active; 'I' for Inactive)
REMARK    1  A    between atoms: N_2  and  C_37
REMARK    2  A    between atoms: C_6  and  N_14
REMARK    3  A    between atoms: C_8  and  C_31
REMARK    4  A    between atoms: N_15  and  C_19
REMARK    5  A    between atoms: C_22  and  C_29
REMARK    6  A    between atoms: C_37  and  C_38
REMARK                            x       y       z     vdW  Elec       q    Type
REMARK                         _______ _______ _______ _____ _____    ______ ____
ROOT
ATOM      1  O   UNL     1     -37.701  22.500   0.683  0.00  0.00    -0.271 OA
ATOM      2  N   UNL     1     -36.366  21.892   2.488  0.00  0.00    -0.256 N 
ATOM      3  N   UNL     1     -36.722  24.907   2.555  0.00  0.00    -0.243 NA
ATOM      4  C   UNL     1     -35.767  22.207   3.756  0.00  0.00    +0.055 C 
ATOM      5  C   UNL     1     -37.286  22.720   1.824  0.00  0.00    +0.271 C 
ATOM      6  C   UNL     1     -37.779  23.919   2.616  0.00  0.00    +0.256 C 
ATOM      7  C   UNL     1     -35.485  23.526   4.167  0.00  0.00    +0.031 C 
ATOM      8  C   UNL     1     -35.668  24.703   3.269  0.00  0.00    +0.079 C 
ATOM      9  C   UNL     1     -35.423  21.162   4.637  0.00  0.00    +0.015 C 
ATOM     10  C   UNL     1     -34.953  23.776   5.445  0.00  0.00    +0.003 C 
ATOM     11  C   UNL     1     -34.876  21.417   5.896  0.00  0.00    +0.001 C 
ATOM     12  C   UNL     1     -34.651  22.724   6.305  0.00  0.00    +0.000 C 
ENDROOT
BRANCH   6  14
ATOM     13  O   UNL     1     -40.077  25.007   3.933  0.00  0.00    -0.252 OA
ATOM     14  N   UNL     1     -38.968  24.432   1.988  0.00  0.00    -0.264 N 
ATOM     15  N   UNL     1     -41.061  25.371   1.833  0.00  0.00    -0.268 N 
ATOM     16  C   UNL     1     -40.054  24.950   2.707  0.00  0.00    +0.306 C 
ATOM     17  H   UNL     1     -39.020  24.419   1.005  0.00  0.00    +0.153 HD
ATOM     18  H   UNL     1     -40.878  25.252   0.872  0.00  0.00    +0.156 HD
BRANCH  15  19
ATOM     19  C   UNL     1     -42.309  25.949   2.162  0.00  0.00    +0.052 C 
ATOM     20  C   UNL     1     -42.371  26.908   3.159  0.00  0.00    +0.025 C 
ATOM     21  C   UNL     1     -43.444  25.544   1.478  0.00  0.00    +0.015 C 
ATOM     22  C   UNL     1     -43.603  27.479   3.482  0.00  0.00    +0.067 C 
ATOM     23  C   UNL     1     -44.676  26.115   1.801  0.00  0.00    +0.002 C 
ATOM     24  C   UNL     1     -44.754  27.082   2.803  0.00  0.00    +0.010 C 
BRANCH  22  29
ATOM     25  N   UNL     1     -44.798  28.730   5.201  0.00  0.00    -0.110 NA
ATOM     26  N   UNL     1     -42.617  29.240   4.871  0.00  0.00    -0.087 NA
ATOM     27  N   UNL     1     -44.338  29.704   6.001  0.00  0.00    -0.140 N 
ATOM     28  N   UNL     1     -43.050  30.039   5.840  0.00  0.00    -0.022 NA
ATOM     29  C   UNL     1     -43.684  28.474   4.514  0.00  0.00    +0.074 C 
ATOM     30  H   UNL     1     -44.913  30.146   6.665  0.00  0.00    +0.197 HD
ENDBRANCH  22  29
ENDBRANCH  15  19
ENDBRANCH   6  14
BRANCH   8  31
ATOM     31  C   UNL     1     -34.573  25.711   3.167  0.00  0.00    +0.017 C 
ATOM     32  C   UNL     1     -33.378  25.369   2.544  0.00  0.00    +0.001 C 
ATOM     33  C   UNL     1     -34.759  26.983   3.693  0.00  0.00    +0.001 C 
ATOM     34  C   UNL     1     -32.356  26.311   2.448  0.00  0.00    +0.000 C 
ATOM     35  C   UNL     1     -33.736  27.927   3.596  0.00  0.00    +0.000 C 
ATOM     36  C   UNL     1     -32.534  27.591   2.973  0.00  0.00    +0.000 C 
ENDBRANCH   8  31
BRANCH   2  37
ATOM     37  C   UNL     1     -36.044  20.600   1.879  0.00  0.00    +0.098 C 
BRANCH  37  38
ATOM     38  C   UNL     1     -34.683  20.611   1.176  0.00  0.00    +0.020 C 
ATOM     39  C   UNL     1     -34.874  20.725  -0.336  0.00  0.00    +0.002 C 
ATOM     40  C   UNL     1     -33.867  19.358   1.506  0.00  0.00    +0.002 C 
ENDBRANCH  37  38
ENDBRANCH   2  37
TORSDOF 6
ENDMDL
MODEL 3
REMARK VINA RESULT:      -7.8      1.417      2.280
REMARK  Name = 197533
REMARK  6 active torsions:
REMARK  status: ('A' for Active; 'I' for Inactive)
REMARK    1  A    between atoms: N_2  and  C_37
REMARK    2  A    between atoms: C_6  and  N_14
REMARK    3  A    between atoms: C_8  and  C_31
REMARK    4  A    between atoms: N_15  and  C_19
REMARK    5  A    between atoms: C_22  and  C_29
REMARK    6  A    between atoms: C_37  and  C_38
REMARK                            x       y       z     vdW  Elec       q    Type
REMARK                         _______ _______ _______ _____ _____    ______ ____
ROOT
ATOM      1  O   UNL     1     -37.612  25.004  -1.005  0.00  0.00    -0.271 OA
ATOM      2  N   UNL     1     -36.318  23.245  -0.205  0.00  0.00    -0.256 N 
ATOM      3  N   UNL     1     -37.396  24.782   2.183  0.00  0.00    -0.243 NA
ATOM      4  C   UNL     1     -35.915  22.385   0.875  0.00  0.00    +0.055 C 
ATOM      5  C   UNL     1     -37.355  24.188  -0.115  0.00  0.00    +0.271 C 
ATOM      6  C   UNL     1     -38.184  24.132   1.157  0.00  0.00    +0.256 C 
ATOM      7  C   UNL     1     -35.994  22.765   2.231  0.00  0.00    +0.031 C 
ATOM      8  C   UNL     1     -36.383  24.140   2.659  0.00  0.00    +0.079 C 
ATOM      9  C   UNL     1     -35.400  21.106   0.584  0.00  0.00    +0.015 C 
ATOM     10  C   UNL     1     -35.640  21.857   3.246  0.00  0.00    +0.003 C 
ATOM     11  C   UNL     1     -35.032  20.218   1.598  0.00  0.00    +0.001 C 
ATOM     12  C   UNL     1     -35.163  20.589   2.929  0.00  0.00    +0.000 C 
ENDROOT
BRANCH   6  14
ATOM     13  O   UNL     1     -40.301  24.511   3.047  0.00  0.00    -0.252 OA
ATOM     14  N   UNL     1     -39.407  24.859   0.943  0.00  0.00    -0.264 N 
ATOM     15  N   UNL     1     -41.468  25.754   1.433  0.00  0.00    -0.268 N 
ATOM     16  C   UNL     1     -40.399  24.999   1.925  0.00  0.00    +0.306 C 
ATOM     17  H   UNL     1     -39.555  25.279   0.066  0.00  0.00    +0.153 HD
ATOM     18  H   UNL     1     -41.384  26.070   0.505  0.00  0.00    +0.156 HD
BRANCH  15  19
ATOM     19  C   UNL     1     -42.656  26.117   2.109  0.00  0.00    +0.052 C 
ATOM     20  C   UNL     1     -42.617  27.131   3.053  0.00  0.00    +0.025 C 
ATOM     21  C   UNL     1     -43.836  25.453   1.813  0.00  0.00    +0.015 C 
ATOM     22  C   UNL     1     -43.789  27.491   3.718  0.00  0.00    +0.067 C 
ATOM     23  C   UNL     1     -45.008  25.813   2.478  0.00  0.00    +0.002 C 
ATOM     24  C   UNL     1     -44.984  26.831   3.431  0.00  0.00    +0.010 C 
BRANCH  22  29
ATOM     25  N   UNL     1     -44.813  28.857   5.461  0.00  0.00    -0.110 NA
ATOM     26  N   UNL     1     -42.658  29.297   4.926  0.00  0.00    -0.087 NA
ATOM     27  N   UNL     1     -44.269  29.859   6.167  0.00  0.00    -0.140 N 
ATOM     28  N   UNL     1     -42.993  30.154   5.883  0.00  0.00    -0.022 NA
ATOM     29  C   UNL     1     -43.765  28.539   4.699  0.00  0.00    +0.074 C 
ATOM     30  H   UNL     1     -44.778  30.348   6.852  0.00  0.00    +0.197 HD
ENDBRANCH  22  29
ENDBRANCH  15  19
ENDBRANCH   6  14
BRANCH   8  31
ATOM     31  C   UNL     1     -35.560  24.837   3.689  0.00  0.00    +0.017 C 
ATOM     32  C   UNL     1     -34.274  25.258   3.372  0.00  0.00    +0.001 C 
ATOM     33  C   UNL     1     -36.088  25.061   4.954  0.00  0.00    +0.001 C 
ATOM     34  C   UNL     1     -33.505  25.911   4.334  0.00  0.00    +0.000 C 
ATOM     35  C   UNL     1     -35.319  25.715   5.917  0.00  0.00    +0.000 C 
ATOM     36  C   UNL     1     -34.027  26.139   5.607  0.00  0.00    +0.000 C 
ENDBRANCH   8  31
BRANCH   2  37
ATOM     37  C   UNL     1     -35.646  23.086  -1.495  0.00  0.00    +0.098 C 
BRANCH  37  38
ATOM     38  C   UNL     1     -34.375  23.935  -1.599  0.00  0.00    +0.020 C 
ATOM     39  C   UNL     1     -34.462  24.864  -2.810  0.00  0.00    +0.002 C 
ATOM     40  C   UNL     1     -33.120  23.064  -1.698  0.00  0.00    +0.002 C 
ENDBRANCH  37  38
ENDBRANCH   2  37
TORSDOF 6
ENDMDL
MODEL 4
REMARK VINA RESULT:      -7.7      5.015      6.068
REMARK  Name = 197533
REMARK  6 active torsions:
REMARK  status: ('A' for Active; 'I' for Inactive)
REMARK    1  A    between atoms: N_2  and  C_37
REMARK    2  A    between atoms: C_6  and  N_14
REMARK    3  A    between atoms: C_8  and  C_31
REMARK    4  A    between atoms: N_15  and  C_19
REMARK    5  A    between atoms: C_22  and  C_29
REMARK    6  A    between atoms: C_37  and  C_38
REMARK                            x       y       z     vdW  Elec       q    Type
REMARK                         _______ _______ _______ _____ _____    ______ ____
ROOT
ATOM      1  O   UNL     1     -34.240  27.965  -0.242  0.00  0.00    -0.271 OA
ATOM      2  N   UNL     1     -34.196  26.407   1.483  0.00  0.00    -0.256 N 
ATOM      3  N   UNL     1     -33.610  29.141   2.670  0.00  0.00    -0.243 NA
ATOM      4  C   UNL     1     -34.219  26.103   2.888  0.00  0.00    +0.055 C 
ATOM      5  C   UNL     1     -34.382  27.694   0.954  0.00  0.00    +0.271 C 
ATOM      6  C   UNL     1     -34.807  28.759   1.951  0.00  0.00    +0.256 C 
ATOM      7  C   UNL     1     -33.786  27.009   3.879  0.00  0.00    +0.031 C 
ATOM      8  C   UNL     1     -33.148  28.316   3.548  0.00  0.00    +0.079 C 
ATOM      9  C   UNL     1     -34.676  24.840   3.315  0.00  0.00    +0.015 C 
ATOM     10  C   UNL     1     -33.889  26.677   5.242  0.00  0.00    +0.003 C 
ATOM     11  C   UNL     1     -34.755  24.510   4.670  0.00  0.00    +0.001 C 
ATOM     12  C   UNL     1     -34.373  25.433   5.634  0.00  0.00    +0.000 C 
ENDROOT
BRANCH   6  14
ATOM     13  O   UNL     1     -35.836  31.183   3.074  0.00  0.00    -0.252 OA
ATOM     14  N   UNL     1     -35.327  29.889   1.227  0.00  0.00    -0.264 N 
ATOM     15  N   UNL     1     -36.251  31.969   0.901  0.00  0.00    -0.268 N 
ATOM     16  C   UNL     1     -35.814  31.044   1.854  0.00  0.00    +0.306 C 
ATOM     17  H   UNL     1     -35.341  29.849   0.244  0.00  0.00    +0.153 HD
ATOM     18  H   UNL     1     -36.161  31.695  -0.041  0.00  0.00    +0.156 HD
BRANCH  15  19
ATOM     19  C   UNL     1     -36.806  33.250   1.126  0.00  0.00    +0.052 C 
ATOM     20  C   UNL     1     -38.123  33.356   1.542  0.00  0.00    +0.025 C 
ATOM     21  C   UNL     1     -36.019  34.374   0.929  0.00  0.00    +0.015 C 
ATOM     22  C   UNL     1     -38.669  34.620   1.766  0.00  0.00    +0.067 C 
ATOM     23  C   UNL     1     -36.565  35.638   1.153  0.00  0.00    +0.002 C 
ATOM     24  C   UNL     1     -37.890  35.760   1.571  0.00  0.00    +0.010 C 
BRANCH  22  29
ATOM     25  N   UNL     1     -40.455  35.695   3.034  0.00  0.00    -0.110 NA
ATOM     26  N   UNL     1     -41.010  33.896   1.777  0.00  0.00    -0.087 NA
ATOM     27  N   UNL     1     -41.753  35.365   3.096  0.00  0.00    -0.140 N 
ATOM     28  N   UNL     1     -42.127  34.305   2.367  0.00  0.00    -0.022 NA
ATOM     29  C   UNL     1     -40.033  34.747   2.196  0.00  0.00    +0.074 C 
ATOM     30  H   UNL     1     -42.392  35.872   3.646  0.00  0.00    +0.197 HD
ENDBRANCH  22  29
ENDBRANCH  15  19
ENDBRANCH   6  14
BRANCH   8  31
ATOM     31  C   UNL     1     -31.894  28.708   4.254  0.00  0.00    +0.017 C 
ATOM     32  C   UNL     1     -31.945  29.646   5.278  0.00  0.00    +0.001 C 
ATOM     33  C   UNL     1     -30.687  28.129   3.882  0.00  0.00    +0.001 C 
ATOM     34  C   UNL     1     -30.773  30.011   5.939  0.00  0.00    +0.000 C 
ATOM     35  C   UNL     1     -29.514  28.494   4.543  0.00  0.00    +0.000 C 
ATOM     36  C   UNL     1     -29.557  29.435   5.571  0.00  0.00    +0.000 C 
ENDBRANCH   8  31
BRANCH   2  37
ATOM     37  C   UNL     1     -34.028  25.297   0.545  0.00  0.00    +0.098 C 
BRANCH  37  38
ATOM     38  C   UNL     1     -32.604  24.729   0.562  0.00  0.00    +0.020 C 
ATOM     39  C   UNL     1     -31.597  25.827   0.221  0.00  0.00    +0.002 C 
ATOM     40  C   UNL     1     -32.451  23.559  -0.412  0.00  0.00    +0.002 C 
ENDBRANCH  37  38
ENDBRANCH   2  37
TORSDOF 6
ENDMDL
MODEL 5
REMARK VINA RESULT:      -7.6      4.939      5.966
REMARK  Name = 197533
REMARK  6 active torsions:
REMARK  status: ('A' for Active; 'I' for Inactive)
REMARK    1  A    between atoms: N_2  and  C_37
REMARK    2  A    between atoms: C_6  and  N_14
REMARK    3  A    between atoms: C_8  and  C_31
REMARK    4  A    between atoms: N_15  and  C_19
REMARK    5  A    between atoms: C_22  and  C_29
REMARK    6  A    between atoms: C_37  and  C_38
REMARK                            x       y       z     vdW  Elec       q    Type
REMARK                         _______ _______ _______ _____ _____    ______ ____
ROOT
ATOM      1  O   UNL     1     -36.162  27.308   0.218  0.00  0.00    -0.271 OA
ATOM      2  N   UNL     1     -35.664  26.110   2.148  0.00  0.00    -0.256 N 
ATOM      3  N   UNL     1     -33.948  28.616   2.127  0.00  0.00    -0.243 NA
ATOM      4  C   UNL     1     -35.080  26.048   3.460  0.00  0.00    +0.055 C 
ATOM      5  C   UNL     1     -35.771  27.286   1.388  0.00  0.00    +0.271 C 
ATOM      6  C   UNL     1     -35.395  28.569   2.110  0.00  0.00    +0.256 C 
ATOM      7  C   UNL     1     -34.022  26.886   3.871  0.00  0.00    +0.031 C 
ATOM      8  C   UNL     1     -33.332  27.824   2.938  0.00  0.00    +0.079 C 
ATOM      9  C   UNL     1     -35.560  25.102   4.387  0.00  0.00    +0.015 C 
ATOM     10  C   UNL     1     -33.531  26.819   5.187  0.00  0.00    +0.003 C 
ATOM     11  C   UNL     1     -35.052  25.029   5.687  0.00  0.00    +0.001 C 
ATOM     12  C   UNL     1     -34.046  25.894   6.090  0.00  0.00    +0.000 C 
ENDROOT
BRANCH   6  14
ATOM     13  O   UNL     1     -35.978  31.180   3.129  0.00  0.00    -0.252 OA
ATOM     14  N   UNL     1     -35.914  29.687   1.366  0.00  0.00    -0.264 N 
ATOM     15  N   UNL     1     -36.668  31.824   0.980  0.00  0.00    -0.268 N 
ATOM     16  C   UNL     1     -36.173  30.939   1.941  0.00  0.00    +0.306 C 
ATOM     17  H   UNL     1     -36.094  29.566   0.406  0.00  0.00    +0.153 HD
ATOM     18  H   UNL     1     -36.764  31.464   0.068  0.00  0.00    +0.156 HD
BRANCH  15  19
ATOM     19  C   UNL     1     -37.048  33.175   1.158  0.00  0.00    +0.052 C 
ATOM     20  C   UNL     1     -38.262  33.465   1.759  0.00  0.00    +0.025 C 
ATOM     21  C   UNL     1     -36.196  34.181   0.731  0.00  0.00    +0.015 C 
ATOM     22  C   UNL     1     -38.635  34.797   1.937  0.00  0.00    +0.067 C 
ATOM     23  C   UNL     1     -36.569  35.513   0.908  0.00  0.00    +0.002 C 
ATOM     24  C   UNL     1     -37.789  35.821   1.511  0.00  0.00    +0.010 C 
BRANCH  22  29
ATOM     25  N   UNL     1     -40.021  36.009   3.538  0.00  0.00    -0.110 NA
ATOM     26  N   UNL     1     -41.056  34.517   2.186  0.00  0.00    -0.087 NA
ATOM     27  N   UNL     1     -41.343  35.916   3.740  0.00  0.00    -0.140 N 
ATOM     28  N   UNL     1     -41.998  35.044   2.960  0.00  0.00    -0.022 NA
ATOM     29  C   UNL     1     -39.891  35.114   2.557  0.00  0.00    +0.074 C 
ATOM     30  H   UNL     1     -41.805  36.455   4.420  0.00  0.00    +0.197 HD
ENDBRANCH  22  29
ENDBRANCH  15  19
ENDBRANCH   6  14
BRANCH   8  31
ATOM     31  C   UNL     1     -31.841  27.858   2.918  0.00  0.00    +0.017 C 
ATOM     32  C   UNL     1     -31.141  26.899   2.196  0.00  0.00    +0.001 C 
ATOM     33  C   UNL     1     -31.167  28.849   3.621  0.00  0.00    +0.001 C 
ATOM     34  C   UNL     1     -29.748  26.931   2.176  0.00  0.00    +0.000 C 
ATOM     35  C   UNL     1     -29.773  28.881   3.601  0.00  0.00    +0.000 C 
ATOM     36  C   UNL     1     -29.063  27.922   2.879  0.00  0.00    +0.000 C 
ENDBRANCH   8  31
BRANCH   2  37
ATOM     37  C   UNL     1     -36.239  24.882   1.595  0.00  0.00    +0.098 C 
BRANCH  37  38
ATOM     38  C   UNL     1     -35.188  24.005   0.907  0.00  0.00    +0.020 C 
ATOM     39  C   UNL     1     -35.557  23.799  -0.562  0.00  0.00    +0.002 C 
ATOM     40  C   UNL     1     -35.039  22.650   1.603  0.00  0.00    +0.002 C 
ENDBRANCH  37  38
ENDBRANCH   2  37
TORSDOF 6
ENDMDL
MODEL 6
REMARK VINA RESULT:      -7.5      4.381      6.072
REMARK  Name = 197533
REMARK  6 active torsions:
REMARK  status: ('A' for Active; 'I' for Inactive)
REMARK    1  A    between atoms: N_2  and  C_37
REMARK    2  A    between atoms: C_6  and  N_14
REMARK    3  A    between atoms: C_8  and  C_31
REMARK    4  A    between atoms: N_15  and  C_19
REMARK    5  A    between atoms: C_22  and  C_29
REMARK    6  A    between atoms: C_37  and  C_38
REMARK                            x       y       z     vdW  Elec       q    Type
REMARK                         _______ _______ _______ _____ _____    ______ ____
ROOT
ATOM      1  O   UNL     1     -35.061  26.747  -0.141  0.00  0.00    -0.271 OA
ATOM      2  N   UNL     1     -36.703  25.101  -0.138  0.00  0.00    -0.256 N 
ATOM      3  N   UNL     1     -36.059  25.793   2.749  0.00  0.00    -0.243 NA
ATOM      4  C   UNL     1     -37.727  24.363   0.552  0.00  0.00    +0.055 C 
ATOM      5  C   UNL     1     -36.019  26.198   0.410  0.00  0.00    +0.271 C 
ATOM      6  C   UNL     1     -36.552  26.706   1.739  0.00  0.00    +0.256 C 
ATOM      7  C   UNL     1     -37.733  24.180   1.951  0.00  0.00    +0.031 C 
ATOM      8  C   UNL     1     -36.609  24.629   2.824  0.00  0.00    +0.079 C 
ATOM      9  C   UNL     1     -38.772  23.774  -0.187  0.00  0.00    +0.015 C 
ATOM     10  C   UNL     1     -38.793  23.499   2.576  0.00  0.00    +0.003 C 
ATOM     11  C   UNL     1     -39.811  23.082   0.440  0.00  0.00    +0.001 C 
ATOM     12  C   UNL     1     -39.828  22.954   1.822  0.00  0.00    +0.000 C 
ENDROOT
BRANCH   6  14
ATOM     13  O   UNL     1     -37.623  29.171   0.754  0.00  0.00    -0.252 OA
ATOM     14  N   UNL     1     -36.028  28.026   1.973  0.00  0.00    -0.264 N 
ATOM     15  N   UNL     1     -35.889  30.318   1.845  0.00  0.00    -0.268 N 
ATOM     16  C   UNL     1     -36.614  29.188   1.453  0.00  0.00    +0.306 C 
ATOM     17  H   UNL     1     -35.219  28.117   2.526  0.00  0.00    +0.153 HD
ATOM     18  H   UNL     1     -35.099  30.151   2.409  0.00  0.00    +0.156 HD
BRANCH  15  19
ATOM     19  C   UNL     1     -36.154  31.671   1.530  0.00  0.00    +0.052 C 
ATOM     20  C   UNL     1     -37.373  32.225   1.887  0.00  0.00    +0.025 C 
ATOM     21  C   UNL     1     -35.188  32.416   0.873  0.00  0.00    +0.015 C 
ATOM     22  C   UNL     1     -37.632  33.560   1.578  0.00  0.00    +0.067 C 
ATOM     23  C   UNL     1     -35.448  33.751   0.563  0.00  0.00    +0.002 C 
ATOM     24  C   UNL     1     -36.671  34.322   0.916  0.00  0.00    +0.010 C 
BRANCH  22  29
ATOM     25  N   UNL     1     -39.000  35.247   2.689  0.00  0.00    -0.110 NA
ATOM     26  N   UNL     1     -40.081  33.622   1.543  0.00  0.00    -0.087 NA
ATOM     27  N   UNL     1     -40.336  35.354   2.721  0.00  0.00    -0.140 N 
ATOM     28  N   UNL     1     -41.018  34.411   2.055  0.00  0.00    -0.022 NA
ATOM     29  C   UNL     1     -38.891  34.148   1.940  0.00  0.00    +0.074 C 
ATOM     30  H   UNL     1     -40.789  36.080   3.206  0.00  0.00    +0.197 HD
ENDBRANCH  22  29
ENDBRANCH  15  19
ENDBRANCH   6  14
BRANCH   8  31
ATOM     31  C   UNL     1     -36.066  23.686   3.845  0.00  0.00    +0.017 C 
ATOM     32  C   UNL     1     -35.882  24.119   5.153  0.00  0.00    +0.001 C 
ATOM     33  C   UNL     1     -35.752  22.383   3.478  0.00  0.00    +0.001 C 
ATOM     34  C   UNL     1     -35.377  23.238   6.107  0.00  0.00    +0.000 C 
ATOM     35  C   UNL     1     -35.246  21.501   4.433  0.00  0.00    +0.000 C 
ATOM     36  C   UNL     1     -35.058  21.928   5.747  0.00  0.00    +0.000 C 
ENDBRANCH   8  31
BRANCH   2  37
ATOM     37  C   UNL     1     -36.398  24.722  -1.518  0.00  0.00    +0.098 C 
BRANCH  37  38
ATOM     38  C   UNL     1     -35.385  23.576  -1.598  0.00  0.00    +0.020 C 
ATOM     39  C   UNL     1     -34.143  24.026  -2.367  0.00  0.00    +0.002 C 
ATOM     40  C   UNL     1     -35.987  22.334  -2.259  0.00  0.00    +0.002 C 
ENDBRANCH  37  38
ENDBRANCH   2  37
TORSDOF 6
ENDMDL
MODEL 7
REMARK VINA RESULT:      -7.5      2.395      2.615
REMARK  Name = 197533
REMARK  6 active torsions:
REMARK  status: ('A' for Active; 'I' for Inactive)
REMARK    1  A    between atoms: N_2  and  C_37
REMARK    2  A    between atoms: C_6  and  N_14
REMARK    3  A    between atoms: C_8  and  C_31
REMARK    4  A    between atoms: N_15  and  C_19
REMARK    5  A    between atoms: C_22  and  C_29
REMARK    6  A    between atoms: C_37  and  C_38
REMARK                            x       y       z     vdW  Elec       q    Type
REMARK                         _______ _______ _______ _____ _____    ______ ____
ROOT
ATOM      1  O   UNL     1     -37.973  22.373   0.673  0.00  0.00    -0.271 OA
ATOM      2  N   UNL     1     -36.578  21.932   2.481  0.00  0.00    -0.256 N 
ATOM      3  N   UNL     1     -37.062  24.929   2.374  0.00  0.00    -0.243 NA
ATOM      4  C   UNL     1     -35.969  22.349   3.714  0.00  0.00    +0.055 C 
ATOM      5  C   UNL     1     -37.545  22.680   1.789  0.00  0.00    +0.271 C 
ATOM      6  C   UNL     1     -38.074  23.903   2.518  0.00  0.00    +0.256 C 
ATOM      7  C   UNL     1     -35.735  23.701   4.039  0.00  0.00    +0.031 C 
ATOM      8  C   UNL     1     -35.986  24.813   3.076  0.00  0.00    +0.079 C 
ATOM      9  C   UNL     1     -35.562  21.375   4.648  0.00  0.00    +0.015 C 
ATOM     10  C   UNL     1     -35.189  24.050   5.287  0.00  0.00    +0.003 C 
ATOM     11  C   UNL     1     -35.002  21.729   5.878  0.00  0.00    +0.001 C 
ATOM     12  C   UNL     1     -34.825  23.067   6.202  0.00  0.00    +0.000 C 
ENDROOT
BRANCH   6  14
ATOM     13  O   UNL     1     -39.800  26.020   3.378  0.00  0.00    -0.252 OA
ATOM     14  N   UNL     1     -39.295  24.327   1.887  0.00  0.00    -0.264 N 
ATOM     15  N   UNL     1     -41.207  25.560   1.556  0.00  0.00    -0.268 N 
ATOM     16  C   UNL     1     -40.087  25.377   2.372  0.00  0.00    +0.306 C 
ATOM     17  H   UNL     1     -39.589  23.856   1.074  0.00  0.00    +0.153 HD
ATOM     18  H   UNL     1     -41.285  24.953   0.785  0.00  0.00    +0.156 HD
BRANCH  15  19
ATOM     19  C   UNL     1     -42.242  26.513   1.705  0.00  0.00    +0.052 C 
ATOM     20  C   UNL     1     -42.015  27.826   1.324  0.00  0.00    +0.025 C 
ATOM     21  C   UNL     1     -43.462  26.114   2.226  0.00  0.00    +0.015 C 
ATOM     22  C   UNL     1     -43.037  28.765   1.469  0.00  0.00    +0.067 C 
ATOM     23  C   UNL     1     -44.484  27.053   2.371  0.00  0.00    +0.002 C 
ATOM     24  C   UNL     1     -44.270  28.379   1.993  0.00  0.00    +0.010 C 
BRANCH  22  29
ATOM     25  N   UNL     1     -43.788  30.936   0.647  0.00  0.00    -0.110 NA
ATOM     26  N   UNL     1     -41.587  30.710   1.125  0.00  0.00    -0.087 NA
ATOM     27  N   UNL     1     -43.066  32.045   0.430  0.00  0.00    -0.140 N 
ATOM     28  N   UNL     1     -41.755  31.957   0.700  0.00  0.00    -0.022 NA
ATOM     29  C   UNL     1     -42.817  30.130   1.081  0.00  0.00    +0.074 C 
ATOM     30  H   UNL     1     -43.474  32.873   0.092  0.00  0.00    +0.197 HD
ENDBRANCH  22  29
ENDBRANCH  15  19
ENDBRANCH   6  14
BRANCH   8  31
ATOM     31  C   UNL     1     -34.937  25.858   2.889  0.00  0.00    +0.017 C 
ATOM     32  C   UNL     1     -33.683  25.496   2.412  0.00  0.00    +0.001 C 
ATOM     33  C   UNL     1     -35.226  27.182   3.192  0.00  0.00    +0.001 C 
ATOM     34  C   UNL     1     -32.704  26.472   2.235  0.00  0.00    +0.000 C 
ATOM     35  C   UNL     1     -34.247  28.160   3.016  0.00  0.00    +0.000 C 
ATOM     36  C   UNL     1     -32.985  27.804   2.538  0.00  0.00    +0.000 C 
ENDBRANCH   8  31
BRANCH   2  37
ATOM     37  C   UNL     1     -36.213  20.621   1.944  0.00  0.00    +0.098 C 
BRANCH  37  38
ATOM     38  C   UNL     1     -34.898  20.658   1.157  0.00  0.00    +0.020 C 
ATOM     39  C   UNL     1     -35.185  20.641  -0.344  0.00  0.00    +0.002 C 
ATOM     40  C   UNL     1     -33.984  19.488   1.528  0.00  0.00    +0.002 C 
ENDBRANCH  37  38
ENDBRANCH   2  37
TORSDOF 6
ENDMDL
MODEL 8
REMARK VINA RESULT:      -7.4      4.994      6.556
REMARK  Name = 197533
REMARK  6 active torsions:
REMARK  status: ('A' for Active; 'I' for Inactive)
REMARK    1  A    between atoms: N_2  and  C_37
REMARK    2  A    between atoms: C_6  and  N_14
REMARK    3  A    between atoms: C_8  and  C_31
REMARK    4  A    between atoms: N_15  and  C_19
REMARK    5  A    between atoms: C_22  and  C_29
REMARK    6  A    between atoms: C_37  and  C_38
REMARK                            x       y       z     vdW  Elec       q    Type
REMARK                         _______ _______ _______ _____ _____    ______ ____
ROOT
ATOM      1  O   UNL     1     -35.673  27.085   1.781  0.00  0.00    -0.271 OA
ATOM      2  N   UNL     1     -34.444  26.670   3.711  0.00  0.00    -0.256 N 
ATOM      3  N   UNL     1     -33.382  29.221   2.450  0.00  0.00    -0.243 NA
ATOM      4  C   UNL     1     -33.541  27.122   4.734  0.00  0.00    +0.055 C 
ATOM      5  C   UNL     1     -34.998  27.503   2.725  0.00  0.00    +0.271 C 
ATOM      6  C   UNL     1     -34.738  28.990   2.901  0.00  0.00    +0.256 C 
ATOM      7  C   UNL     1     -32.623  28.175   4.539  0.00  0.00    +0.031 C 
ATOM      8  C   UNL     1     -32.420  28.829   3.214  0.00  0.00    +0.079 C 
ATOM      9  C   UNL     1     -33.547  26.485   5.991  0.00  0.00    +0.015 C 
ATOM     10  C   UNL     1     -31.806  28.612   5.598  0.00  0.00    +0.003 C 
ATOM     11  C   UNL     1     -32.718  26.913   7.031  0.00  0.00    +0.001 C 
ATOM     12  C   UNL     1     -31.855  27.983   6.838  0.00  0.00    +0.000 C 
ENDROOT
BRANCH   6  14
ATOM     13  O   UNL     1     -35.370  31.775   3.097  0.00  0.00    -0.252 OA
ATOM     14  N   UNL     1     -35.662  29.722   2.076  0.00  0.00    -0.264 N 
ATOM     15  N   UNL     1     -36.855  31.526   1.296  0.00  0.00    -0.268 N 
ATOM     16  C   UNL     1     -35.917  31.091   2.237  0.00  0.00    +0.306 C 
ATOM     17  H   UNL     1     -36.138  29.238   1.364  0.00  0.00    +0.153 HD
ATOM     18  H   UNL     1     -37.195  30.841   0.675  0.00  0.00    +0.156 HD
BRANCH  15  19
ATOM     19  C   UNL     1     -37.374  32.831   1.128  0.00  0.00    +0.052 C 
ATOM     20  C   UNL     1     -38.512  33.204   1.825  0.00  0.00    +0.025 C 
ATOM     21  C   UNL     1     -36.733  33.711   0.272  0.00  0.00    +0.015 C 
ATOM     22  C   UNL     1     -39.022  34.492   1.661  0.00  0.00    +0.067 C 
ATOM     23  C   UNL     1     -37.243  34.999   0.107  0.00  0.00    +0.002 C 
ATOM     24  C   UNL     1     -38.388  35.388   0.802  0.00  0.00    +0.010 C 
BRANCH  22  29
ATOM     25  N   UNL     1     -40.220  35.891   3.261  0.00  0.00    -0.110 NA
ATOM     26  N   UNL     1     -41.402  34.276   2.202  0.00  0.00    -0.087 NA
ATOM     27  N   UNL     1     -41.512  35.840   3.614  0.00  0.00    -0.140 N 
ATOM     28  N   UNL     1     -42.252  34.898   3.011  0.00  0.00    -0.022 NA
ATOM     29  C   UNL     1     -40.202  34.893   2.376  0.00  0.00    +0.074 C 
ATOM     30  H   UNL     1     -41.895  36.457   4.278  0.00  0.00    +0.197 HD
ENDBRANCH  22  29
ENDBRANCH  15  19
ENDBRANCH   6  14
BRANCH   8  31
ATOM     31  C   UNL     1     -31.029  29.040   2.718  0.00  0.00    +0.017 C 
ATOM     32  C   UNL     1     -30.238  27.943   2.398  0.00  0.00    +0.001 C 
ATOM     33  C   UNL     1     -30.539  30.333   2.578  0.00  0.00    +0.001 C 
ATOM     34  C   UNL     1     -28.939  28.141   1.933  0.00  0.00    +0.000 C 
ATOM     35  C   UNL     1     -29.240  30.532   2.113  0.00  0.00    +0.000 C 
ATOM     36  C   UNL     1     -28.439  29.436   1.790  0.00  0.00    +0.000 C 
ENDBRANCH   8  31
BRANCH   2  37
ATOM     37  C   UNL     1     -34.860  25.267   3.734  0.00  0.00    +0.098 C 
BRANCH  37  38
ATOM     38  C   UNL     1     -36.050  25.027   4.669  0.00  0.00    +0.020 C 
ATOM     39  C   UNL     1     -35.837  23.744   5.472  0.00  0.00    +0.002 C 
ATOM     40  C   UNL     1     -37.368  24.945   3.895  0.00  0.00    +0.002 C 
ENDBRANCH  37  38
ENDBRANCH   2  37
TORSDOF 6
ENDMDL
MODEL 9
REMARK VINA RESULT:      -7.4      4.632      6.913
REMARK  Name = 197533
REMARK  6 active torsions:
REMARK  status: ('A' for Active; 'I' for Inactive)
REMARK    1  A    between atoms: N_2  and  C_37
REMARK    2  A    between atoms: C_6  and  N_14
REMARK    3  A    between atoms: C_8  and  C_31
REMARK    4  A    between atoms: N_15  and  C_19
REMARK    5  A    between atoms: C_22  and  C_29
REMARK    6  A    between atoms: C_37  and  C_38
REMARK                            x       y       z     vdW  Elec       q    Type
REMARK                         _______ _______ _______ _____ _____    ______ ____
ROOT
ATOM      1  O   UNL     1     -35.349  27.072   4.088  0.00  0.00    -0.271 OA
ATOM      2  N   UNL     1     -35.284  25.286   2.600  0.00  0.00    -0.256 N 
ATOM      3  N   UNL     1     -37.425  27.221   1.654  0.00  0.00    -0.243 NA
ATOM      4  C   UNL     1     -35.622  24.714   1.325  0.00  0.00    +0.055 C 
ATOM      5  C   UNL     1     -35.531  26.623   2.953  0.00  0.00    +0.271 C 
ATOM      6  C   UNL     1     -36.019  27.519   1.827  0.00  0.00    +0.256 C 
ATOM      7  C   UNL     1     -36.737  25.127   0.568  0.00  0.00    +0.031 C 
ATOM      8  C   UNL     1     -37.737  26.109   1.080  0.00  0.00    +0.079 C 
ATOM      9  C   UNL     1     -34.824  23.678   0.800  0.00  0.00    +0.015 C 
ATOM     10  C   UNL     1     -36.982  24.571  -0.701  0.00  0.00    +0.003 C 
ATOM     11  C   UNL     1     -35.086  23.117  -0.452  0.00  0.00    +0.001 C 
ATOM     12  C   UNL     1     -36.159  23.570  -1.208  0.00  0.00    +0.000 C 
ENDROOT
BRANCH   6  14
ATOM     13  O   UNL     1     -37.187  29.814   0.576  0.00  0.00    -0.252 OA
ATOM     14  N   UNL     1     -35.853  28.892   2.224  0.00  0.00    -0.264 N 
ATOM     15  N   UNL     1     -36.121  31.175   2.165  0.00  0.00    -0.268 N 
ATOM     16  C   UNL     1     -36.462  29.964   1.556  0.00  0.00    +0.306 C 
ATOM     17  H   UNL     1     -35.285  29.088   3.003  0.00  0.00    +0.153 HD
ATOM     18  H   UNL     1     -35.525  31.114   2.946  0.00  0.00    +0.156 HD
BRANCH  15  19
ATOM     19  C   UNL     1     -36.529  32.477   1.793  0.00  0.00    +0.052 C 
ATOM     20  C   UNL     1     -37.833  32.876   2.041  0.00  0.00    +0.025 C 
ATOM     21  C   UNL     1     -35.617  33.329   1.192  0.00  0.00    +0.015 C 
ATOM     22  C   UNL     1     -38.234  34.162   1.676  0.00  0.00    +0.067 C 
ATOM     23  C   UNL     1     -36.018  34.614   0.827  0.00  0.00    +0.002 C 
ATOM     24  C   UNL     1     -37.327  35.029   1.069  0.00  0.00    +0.010 C 
BRANCH  22  29
ATOM     25  N   UNL     1     -39.892  35.785   2.430  0.00  0.00    -0.110 NA
ATOM     26  N   UNL     1     -40.657  33.798   1.663  0.00  0.00    -0.087 NA
ATOM     27  N   UNL     1     -41.227  35.667   2.457  0.00  0.00    -0.140 N 
ATOM     28  N   UNL     1     -41.725  34.505   2.012  0.00  0.00    -0.022 NA
ATOM     29  C   UNL     1     -39.582  34.590   1.925  0.00  0.00    +0.074 C 
ATOM     30  H   UNL     1     -41.807  36.391   2.786  0.00  0.00    +0.197 HD
ENDBRANCH  22  29
ENDBRANCH  15  19
ENDBRANCH   6  14
BRANCH   8  31
ATOM     31  C   UNL     1     -39.190  25.799   0.942  0.00  0.00    +0.017 C 
ATOM     32  C   UNL     1     -39.720  24.687   1.585  0.00  0.00    +0.001 C 
ATOM     33  C   UNL     1     -39.998  26.627   0.174  0.00  0.00    +0.001 C 
ATOM     34  C   UNL     1     -41.078  24.399   1.457  0.00  0.00    +0.000 C 
ATOM     35  C   UNL     1     -41.357  26.339   0.045  0.00  0.00    +0.000 C 
ATOM     36  C   UNL     1     -41.897  25.225   0.687  0.00  0.00    +0.000 C 
ENDBRANCH   8  31
BRANCH   2  37
ATOM     37  C   UNL     1     -34.585  24.440   3.569  0.00  0.00    +0.098 C 
BRANCH  37  38
ATOM     38  C   UNL     1     -35.551  23.603   4.415  0.00  0.00    +0.020 C 
ATOM     39  C   UNL     1     -35.187  23.718   5.895  0.00  0.00    +0.002 C 
ATOM     40  C   UNL     1     -35.546  22.133   3.989  0.00  0.00    +0.002 C 
ENDBRANCH  37  38
ENDBRANCH   2  37
TORSDOF 6
ENDMDL
