MODEL 1
REMARK VINA RESULT:      -7.5      0.000      0.000
REMARK  Name = 53394762
REMARK  6 active torsions:
REMARK  status: ('A' for Active; 'I' for Inactive)
REMARK    1  A    between atoms: C_1  and  O_20
REMARK    2  A    between atoms: C_2  and  C_7
REMARK    3  A    between atoms: C_5  and  O_18
REMARK    4  A    between atoms: C_10  and  C_15
REMARK    5  A    between atoms: O_20  and  C_23
REMARK    6  A    between atoms: N_22  and  C_25
REMARK                            x       y       z     vdW  Elec       q    Type
REMARK                         _______ _______ _______ _____ _____    ______ ____
ROOT
ATOM      1  C   UNL     1     -40.333  25.502   2.964  0.00  0.00    +0.150 C 
ATOM      2  C   UNL     1     -42.181  27.044   3.173  0.00  0.00    +0.037 C 
ATOM      3  C   UNL     1     -41.328  26.097   3.740  0.00  0.00    +0.041 C 
ATOM      4  C   UNL     1     -40.192  25.853   1.621  0.00  0.00    +0.041 C 
ATOM      5  C   UNL     1     -42.041  27.395   1.831  0.00  0.00    +0.134 C 
ATOM      6  C   UNL     1     -41.046  26.800   1.054  0.00  0.00    +0.040 C 
ENDROOT
BRANCH   2   7
ATOM      7  C   UNL     1     -43.208  27.651   3.996  0.00  0.00    +0.003 C 
ATOM      8  C   UNL     1     -42.942  28.833   4.687  0.00  0.00    +0.005 C 
ATOM      9  C   UNL     1     -44.464  27.052   4.098  0.00  0.00    +0.000 C 
ATOM     10  C   UNL     1     -43.930  29.416   5.480  0.00  0.00    +0.053 C 
ATOM     11  C   UNL     1     -45.452  27.635   4.891  0.00  0.00    +0.000 C 
ATOM     12  C   UNL     1     -45.186  28.817   5.582  0.00  0.00    +0.005 C 
BRANCH  10  15
ATOM     13  O   UNL     1     -43.612  31.746   5.617  0.00  0.00    -0.270 OA
ATOM     14  N   UNL     1     -43.452  30.562   7.575  0.00  0.00    -0.325 N 
ATOM     15  C   UNL     1     -43.653  30.648   6.201  0.00  0.00    +0.243 C 
ATOM     16  H   UNL     1     -43.262  31.376   8.097  0.00  0.00    +0.145 HD
ATOM     17  H   UNL     1     -43.500  29.689   8.027  0.00  0.00    +0.145 HD
ENDBRANCH  10  15
ENDBRANCH   2   7
BRANCH   5  18
ATOM     18  O   UNL     1     -42.861  28.318   1.251  0.00  0.00    -0.506 OA
ATOM     19  H   UNL     1     -43.671  28.546   1.661  0.00  0.00    +0.292 HD
ENDBRANCH   5  18
BRANCH   1  20
ATOM     20  O   UNL     1     -39.477  24.552   3.531  0.00  0.00    -0.410 OA
BRANCH  20  23
ATOM     21  O   UNL     1     -37.747  26.095   3.354  0.00  0.00    -0.226 OA
ATOM     22  N   UNL     1     -37.349  23.868   3.864  0.00  0.00    -0.272 N 
ATOM     23  C   UNL     1     -38.145  24.954   3.564  0.00  0.00    +0.406 C 
ATOM     24  H   UNL     1     -37.785  22.997   4.011  0.00  0.00    +0.153 HD
BRANCH  22  25
ATOM     25  C   UNL     1     -35.910  23.940   3.977  0.00  0.00    +0.075 C 
ATOM     26  C   UNL     1     -35.471  23.949   5.446  0.00  0.00    +0.020 C 
ATOM     27  C   UNL     1     -35.239  22.799   3.204  0.00  0.00    +0.020 C 
ATOM     28  C   UNL     1     -35.660  22.590   6.120  0.00  0.00    +0.002 C 
ATOM     29  C   UNL     1     -35.429  21.442   3.883  0.00  0.00    +0.002 C 
ATOM     30  C   UNL     1     -34.975  21.473   5.339  0.00  0.00    +0.000 C 
ENDBRANCH  22  25
ENDBRANCH  20  23
ENDBRANCH   1  20
TORSDOF 6
ENDMDL
MODEL 2
REMARK VINA RESULT:      -7.5      7.253     10.157
REMARK  Name = 53394762
REMARK  6 active torsions:
REMARK  status: ('A' for Active; 'I' for Inactive)
REMARK    1  A    between atoms: C_1  and  O_20
REMARK    2  A    between atoms: C_2  and  C_7
REMARK    3  A    between atoms: C_5  and  O_18
REMARK    4  A    between atoms: C_10  and  C_15
REMARK    5  A    between atoms: O_20  and  C_23
REMARK    6  A    between atoms: N_22  and  C_25
REMARK                            x       y       z     vdW  Elec       q    Type
REMARK                         _______ _______ _______ _____ _____    ______ ____
ROOT
ATOM      1  C   UNL     1     -34.968  24.842   4.274  0.00  0.00    +0.150 C 
ATOM      2  C   UNL     1     -35.434  22.544   3.692  0.00  0.00    +0.037 C 
ATOM      3  C   UNL     1     -35.206  23.865   3.307  0.00  0.00    +0.041 C 
ATOM      4  C   UNL     1     -34.959  24.497   5.626  0.00  0.00    +0.041 C 
ATOM      5  C   UNL     1     -35.425  22.199   5.043  0.00  0.00    +0.134 C 
ATOM      6  C   UNL     1     -35.187  23.175   6.011  0.00  0.00    +0.040 C 
ENDROOT
BRANCH   2   7
ATOM      7  C   UNL     1     -35.680  21.544   2.671  0.00  0.00    +0.003 C 
ATOM      8  C   UNL     1     -34.675  20.642   2.322  0.00  0.00    +0.005 C 
ATOM      9  C   UNL     1     -36.921  21.485   2.038  0.00  0.00    +0.000 C 
ATOM     10  C   UNL     1     -34.912  19.680   1.339  0.00  0.00    +0.053 C 
ATOM     11  C   UNL     1     -37.158  20.524   1.055  0.00  0.00    +0.000 C 
ATOM     12  C   UNL     1     -36.153  19.621   0.706  0.00  0.00    +0.005 C 
BRANCH  10  15
ATOM     13  O   UNL     1     -32.662  19.017   1.126  0.00  0.00    -0.270 OA
ATOM     14  N   UNL     1     -34.254  17.504   0.465  0.00  0.00    -0.325 N 
ATOM     15  C   UNL     1     -33.865  18.740   0.974  0.00  0.00    +0.243 C 
ATOM     16  H   UNL     1     -33.572  16.841   0.208  0.00  0.00    +0.145 HD
ATOM     17  H   UNL     1     -35.209  17.292   0.362  0.00  0.00    +0.145 HD
ENDBRANCH  10  15
ENDBRANCH   2   7
BRANCH   5  18
ATOM     18  O   UNL     1     -35.646  20.914   5.447  0.00  0.00    -0.506 OA
ATOM     19  H   UNL     1     -36.204  20.744   6.179  0.00  0.00    +0.292 HD
ENDBRANCH   5  18
BRANCH   1  20
ATOM     20  O   UNL     1     -34.740  26.167   3.890  0.00  0.00    -0.410 OA
BRANCH  20  23
ATOM     21  O   UNL     1     -32.605  25.791   3.048  0.00  0.00    -0.226 OA
ATOM     22  N   UNL     1     -33.090  27.636   4.366  0.00  0.00    -0.272 N 
ATOM     23  C   UNL     1     -33.394  26.467   3.701  0.00  0.00    +0.406 C 
ATOM     24  H   UNL     1     -33.810  28.091   4.862  0.00  0.00    +0.153 HD
BRANCH  22  25
ATOM     25  C   UNL     1     -31.773  28.231   4.375  0.00  0.00    +0.075 C 
ATOM     26  C   UNL     1     -31.795  29.629   3.746  0.00  0.00    +0.020 C 
ATOM     27  C   UNL     1     -31.195  28.270   5.794  0.00  0.00    +0.020 C 
ATOM     28  C   UNL     1     -32.488  30.660   4.637  0.00  0.00    +0.002 C 
ATOM     29  C   UNL     1     -31.891  29.303   6.681  0.00  0.00    +0.002 C 
ATOM     30  C   UNL     1     -31.890  30.687   6.040  0.00  0.00    +0.000 C 
ENDBRANCH  22  25
ENDBRANCH  20  23
ENDBRANCH   1  20
TORSDOF 6
ENDMDL
MODEL 3
REMARK VINA RESULT:      -7.4      6.926      9.139
REMARK  Name = 53394762
REMARK  6 active torsions:
REMARK  status: ('A' for Active; 'I' for Inactive)
REMARK    1  A    between atoms: C_1  and  O_20
REMARK    2  A    between atoms: C_2  and  C_7
REMARK    3  A    between atoms: C_5  and  O_18
REMARK    4  A    between atoms: C_10  and  C_15
REMARK    5  A    between atoms: O_20  and  C_23
REMARK    6  A    between atoms: N_22  and  C_25
REMARK                            x       y       z     vdW  Elec       q    Type
REMARK                         _______ _______ _______ _____ _____    ______ ____
ROOT
ATOM      1  C   UNL     1     -34.950  24.896   4.321  0.00  0.00    +0.150 C 
ATOM      2  C   UNL     1     -35.652  22.674   3.682  0.00  0.00    +0.037 C 
ATOM      3  C   UNL     1     -35.413  24.008   3.350  0.00  0.00    +0.041 C 
ATOM      4  C   UNL     1     -34.728  24.451   5.624  0.00  0.00    +0.041 C 
ATOM      5  C   UNL     1     -35.430  22.229   4.984  0.00  0.00    +0.134 C 
ATOM      6  C   UNL     1     -34.967  23.117   5.956  0.00  0.00    +0.040 C 
ENDROOT
BRANCH   2   7
ATOM      7  C   UNL     1     -36.133  21.767   2.658  0.00  0.00    +0.003 C 
ATOM      8  C   UNL     1     -37.457  21.842   2.226  0.00  0.00    +0.005 C 
ATOM      9  C   UNL     1     -35.271  20.820   2.107  0.00  0.00    +0.000 C 
ATOM     10  C   UNL     1     -37.920  20.968   1.242  0.00  0.00    +0.053 C 
ATOM     11  C   UNL     1     -35.734  19.946   1.122  0.00  0.00    +0.000 C 
ATOM     12  C   UNL     1     -37.058  20.020   0.690  0.00  0.00    +0.005 C 
BRANCH  10  15
ATOM     13  O   UNL     1     -39.730  20.305  -0.112  0.00  0.00    -0.270 OA
ATOM     14  N   UNL     1     -40.136  21.963   1.420  0.00  0.00    -0.325 N 
ATOM     15  C   UNL     1     -39.300  21.044   0.791  0.00  0.00    +0.243 C 
ATOM     16  H   UNL     1     -41.078  22.042   1.141  0.00  0.00    +0.145 HD
ATOM     17  H   UNL     1     -39.787  22.532   2.142  0.00  0.00    +0.145 HD
ENDBRANCH  10  15
ENDBRANCH   2   7
BRANCH   5  18
ATOM     18  O   UNL     1     -35.657  20.930   5.337  0.00  0.00    -0.506 OA
ATOM     19  H   UNL     1     -36.516  20.567   5.255  0.00  0.00    +0.292 HD
ENDBRANCH   5  18
BRANCH   1  20
ATOM     20  O   UNL     1     -34.710  26.233   3.989  0.00  0.00    -0.410 OA
BRANCH  20  23
ATOM     21  O   UNL     1     -32.573  25.831   3.164  0.00  0.00    -0.226 OA
ATOM     22  N   UNL     1     -33.058  27.709   4.435  0.00  0.00    -0.272 N 
ATOM     23  C   UNL     1     -33.362  26.525   3.798  0.00  0.00    +0.406 C 
ATOM     24  H   UNL     1     -33.778  28.178   4.917  0.00  0.00    +0.153 HD
BRANCH  22  25
ATOM     25  C   UNL     1     -31.739  28.301   4.434  0.00  0.00    +0.075 C 
ATOM     26  C   UNL     1     -31.762  29.698   3.803  0.00  0.00    +0.020 C 
ATOM     27  C   UNL     1     -31.151  28.341   5.849  0.00  0.00    +0.020 C 
ATOM     28  C   UNL     1     -32.447  30.732   4.696  0.00  0.00    +0.002 C 
ATOM     29  C   UNL     1     -31.838  29.377   6.738  0.00  0.00    +0.002 C 
ATOM     30  C   UNL     1     -31.838  30.760   6.095  0.00  0.00    +0.000 C 
ENDBRANCH  22  25
ENDBRANCH  20  23
ENDBRANCH   1  20
TORSDOF 6
ENDMDL
MODEL 4
REMARK VINA RESULT:      -7.2      6.553      9.390
REMARK  Name = 53394762
REMARK  6 active torsions:
REMARK  status: ('A' for Active; 'I' for Inactive)
REMARK    1  A    between atoms: C_1  and  O_20
REMARK    2  A    between atoms: C_2  and  C_7
REMARK    3  A    between atoms: C_5  and  O_18
REMARK    4  A    between atoms: C_10  and  C_15
REMARK    5  A    between atoms: O_20  and  C_23
REMARK    6  A    between atoms: N_22  and  C_25
REMARK                            x       y       z     vdW  Elec       q    Type
REMARK                         _______ _______ _______ _____ _____    ______ ____
ROOT
ATOM      1  C   UNL     1     -33.009  26.968   2.391  0.00  0.00    +0.150 C 
ATOM      2  C   UNL     1     -34.589  25.498   3.475  0.00  0.00    +0.037 C 
ATOM      3  C   UNL     1     -33.316  25.729   2.954  0.00  0.00    +0.041 C 
ATOM      4  C   UNL     1     -33.974  27.975   2.350  0.00  0.00    +0.041 C 
ATOM      5  C   UNL     1     -35.554  26.503   3.435  0.00  0.00    +0.134 C 
ATOM      6  C   UNL     1     -35.247  27.742   2.872  0.00  0.00    +0.040 C 
ENDROOT
BRANCH   2   7
ATOM      7  C   UNL     1     -34.889  24.203   4.056  0.00  0.00    +0.003 C 
ATOM      8  C   UNL     1     -35.169  23.116   3.229  0.00  0.00    +0.005 C 
ATOM      9  C   UNL     1     -34.898  24.046   5.441  0.00  0.00    +0.000 C 
ATOM     10  C   UNL     1     -35.459  21.871   3.788  0.00  0.00    +0.053 C 
ATOM     11  C   UNL     1     -35.188  22.801   6.000  0.00  0.00    +0.000 C 
ATOM     12  C   UNL     1     -35.468  21.714   5.173  0.00  0.00    +0.005 C 
BRANCH  10  15
ATOM     13  O   UNL     1     -34.871  19.917   2.611  0.00  0.00    -0.270 OA
ATOM     14  N   UNL     1     -37.060  20.585   2.478  0.00  0.00    -0.325 N 
ATOM     15  C   UNL     1     -35.751  20.737   2.926  0.00  0.00    +0.243 C 
ATOM     16  H   UNL     1     -37.296  19.828   1.893  0.00  0.00    +0.145 HD
ATOM     17  H   UNL     1     -37.751  21.234   2.746  0.00  0.00    +0.145 HD
ENDBRANCH  10  15
ENDBRANCH   2   7
BRANCH   5  18
ATOM     18  O   UNL     1     -36.807  26.304   3.937  0.00  0.00    -0.506 OA
ATOM     19  H   UNL     1     -36.938  26.262   4.864  0.00  0.00    +0.292 HD
ENDBRANCH   5  18
BRANCH   1  20
ATOM     20  O   UNL     1     -31.734  27.201   1.867  0.00  0.00    -0.410 OA
BRANCH  20  23
ATOM     21  O   UNL     1     -29.826  26.501   2.998  0.00  0.00    -0.226 OA
ATOM     22  N   UNL     1     -30.957  28.437   3.593  0.00  0.00    -0.272 N 
ATOM     23  C   UNL     1     -30.742  27.302   2.839  0.00  0.00    +0.406 C 
ATOM     24  H   UNL     1     -31.731  29.004   3.371  0.00  0.00    +0.153 HD
BRANCH  22  25
ATOM     25  C   UNL     1     -30.106  28.839   4.690  0.00  0.00    +0.075 C 
ATOM     26  C   UNL     1     -30.120  30.362   4.869  0.00  0.00    +0.020 C 
ATOM     27  C   UNL     1     -30.504  28.125   5.986  0.00  0.00    +0.020 C 
ATOM     28  C   UNL     1     -31.443  30.872   5.440  0.00  0.00    +0.002 C 
ATOM     29  C   UNL     1     -31.827  28.639   6.555  0.00  0.00    +0.002 C 
ATOM     30  C   UNL     1     -31.812  30.153   6.735  0.00  0.00    +0.000 C 
ENDBRANCH  22  25
ENDBRANCH  20  23
ENDBRANCH   1  20
TORSDOF 6
ENDMDL
MODEL 5
REMARK VINA RESULT:      -7.2      4.491      9.749
REMARK  Name = 53394762
REMARK  6 active torsions:
REMARK  status: ('A' for Active; 'I' for Inactive)
REMARK    1  A    between atoms: C_1  and  O_20
REMARK    2  A    between atoms: C_2  and  C_7
REMARK    3  A    between atoms: C_5  and  O_18
REMARK    4  A    between atoms: C_10  and  C_15
REMARK    5  A    between atoms: O_20  and  C_23
REMARK    6  A    between atoms: N_22  and  C_25
REMARK                            x       y       z     vdW  Elec       q    Type
REMARK                         _______ _______ _______ _____ _____    ______ ____
ROOT
ATOM      1  C   UNL     1     -35.300  24.658   4.298  0.00  0.00    +0.150 C 
ATOM      2  C   UNL     1     -35.481  22.326   3.696  0.00  0.00    +0.037 C 
ATOM      3  C   UNL     1     -35.427  23.669   3.323  0.00  0.00    +0.041 C 
ATOM      4  C   UNL     1     -35.226  24.305   5.645  0.00  0.00    +0.041 C 
ATOM      5  C   UNL     1     -35.408  21.972   5.042  0.00  0.00    +0.134 C 
ATOM      6  C   UNL     1     -35.280  22.961   6.018  0.00  0.00    +0.040 C 
ENDROOT
BRANCH   2   7
ATOM      7  C   UNL     1     -35.614  21.312   2.667  0.00  0.00    +0.003 C 
ATOM      8  C   UNL     1     -34.521  20.516   2.326  0.00  0.00    +0.005 C 
ATOM      9  C   UNL     1     -36.836  21.134   2.019  0.00  0.00    +0.000 C 
ATOM     10  C   UNL     1     -34.649  19.542   1.336  0.00  0.00    +0.053 C 
ATOM     11  C   UNL     1     -36.964  20.160   1.029  0.00  0.00    +0.000 C 
ATOM     12  C   UNL     1     -35.871  19.364   0.688  0.00  0.00    +0.005 C 
BRANCH  10  15
ATOM     13  O   UNL     1     -32.352  19.168   0.974  0.00  0.00    -0.270 OA
ATOM     14  N   UNL     1     -33.753  17.380   0.662  0.00  0.00    -0.325 N 
ATOM     15  C   UNL     1     -33.509  18.713   0.980  0.00  0.00    +0.243 C 
ATOM     16  H   UNL     1     -33.005  16.787   0.416  0.00  0.00    +0.145 HD
ATOM     17  H   UNL     1     -34.673  17.029   0.682  0.00  0.00    +0.145 HD
ENDBRANCH  10  15
ENDBRANCH   2   7
BRANCH   5  18
ATOM     18  O   UNL     1     -35.459  20.666   5.435  0.00  0.00    -0.506 OA
ATOM     19  H   UNL     1     -35.870  20.028   4.887  0.00  0.00    +0.292 HD
ENDBRANCH   5  18
BRANCH   1  20
ATOM     20  O   UNL     1     -35.246  26.005   3.925  0.00  0.00    -0.410 OA
BRANCH  20  23
ATOM     21  O   UNL     1     -35.643  26.721   1.748  0.00  0.00    -0.226 OA
ATOM     22  N   UNL     1     -37.371  26.089   3.160  0.00  0.00    -0.272 N 
ATOM     23  C   UNL     1     -36.051  26.312   2.831  0.00  0.00    +0.406 C 
ATOM     24  H   UNL     1     -37.577  25.761   4.065  0.00  0.00    +0.153 HD
BRANCH  22  25
ATOM     25  C   UNL     1     -38.470  26.310   2.246  0.00  0.00    +0.075 C 
ATOM     26  C   UNL     1     -38.295  25.487   0.964  0.00  0.00    +0.020 C 
ATOM     27  C   UNL     1     -39.814  26.010   2.919  0.00  0.00    +0.020 C 
ATOM     28  C   UNL     1     -38.519  23.992   1.194  0.00  0.00    +0.002 C 
ATOM     29  C   UNL     1     -40.034  24.514   3.145  0.00  0.00    +0.002 C 
ATOM     30  C   UNL     1     -39.867  23.719   1.854  0.00  0.00    +0.000 C 
ENDBRANCH  22  25
ENDBRANCH  20  23
ENDBRANCH   1  20
TORSDOF 6
ENDMDL
MODEL 6
REMARK VINA RESULT:      -7.1      6.633      8.601
REMARK  Name = 53394762
REMARK  6 active torsions:
REMARK  status: ('A' for Active; 'I' for Inactive)
REMARK    1  A    between atoms: C_1  and  O_20
REMARK    2  A    between atoms: C_2  and  C_7
REMARK    3  A    between atoms: C_5  and  O_18
REMARK    4  A    between atoms: C_10  and  C_15
REMARK    5  A    between atoms: O_20  and  C_23
REMARK    6  A    between atoms: N_22  and  C_25
REMARK                            x       y       z     vdW  Elec       q    Type
REMARK                         _______ _______ _______ _____ _____    ______ ____
ROOT
ATOM      1  C   UNL     1     -34.910  21.900  -0.193  0.00  0.00    +0.150 C 
ATOM      2  C   UNL     1     -35.760  22.002   2.066  0.00  0.00    +0.037 C 
ATOM      3  C   UNL     1     -34.764  22.297   1.136  0.00  0.00    +0.041 C 
ATOM      4  C   UNL     1     -36.054  21.208  -0.592  0.00  0.00    +0.041 C 
ATOM      5  C   UNL     1     -36.903  21.309   1.668  0.00  0.00    +0.134 C 
ATOM      6  C   UNL     1     -37.051  20.912   0.339  0.00  0.00    +0.040 C 
ENDROOT
BRANCH   2   7
ATOM      7  C   UNL     1     -35.588  22.423   3.443  0.00  0.00    +0.003 C 
ATOM      8  C   UNL     1     -35.677  23.774   3.776  0.00  0.00    +0.005 C 
ATOM      9  C   UNL     1     -35.333  21.475   4.434  0.00  0.00    +0.000 C 
ATOM     10  C   UNL     1     -35.510  24.179   5.100  0.00  0.00    +0.053 C 
ATOM     11  C   UNL     1     -35.166  21.880   5.759  0.00  0.00    +0.000 C 
ATOM     12  C   UNL     1     -35.255  23.231   6.092  0.00  0.00    +0.005 C 
BRANCH  10  15
ATOM     13  O   UNL     1     -34.642  26.195   5.952  0.00  0.00    -0.270 OA
ATOM     14  N   UNL     1     -36.800  26.243   5.178  0.00  0.00    -0.325 N 
ATOM     15  C   UNL     1     -35.602  25.587   5.448  0.00  0.00    +0.243 C 
ATOM     16  H   UNL     1     -36.899  27.198   5.400  0.00  0.00    +0.145 HD
ATOM     17  H   UNL     1     -37.548  25.754   4.767  0.00  0.00    +0.145 HD
ENDBRANCH  10  15
ENDBRANCH   2   7
BRANCH   5  18
ATOM     18  O   UNL     1     -37.893  21.007   2.557  0.00  0.00    -0.506 OA
ATOM     19  H   UNL     1     -38.430  21.688   2.908  0.00  0.00    +0.292 HD
ENDBRANCH   5  18
BRANCH   1  20
ATOM     20  O   UNL     1     -33.912  22.196  -1.126  0.00  0.00    -0.410 OA
BRANCH  20  23
ATOM     21  O   UNL     1     -31.673  22.205  -0.496  0.00  0.00    -0.226 OA
ATOM     22  N   UNL     1     -32.792  20.237  -0.998  0.00  0.00    -0.272 N 
ATOM     23  C   UNL     1     -32.686  21.602  -0.837  0.00  0.00    +0.406 C 
ATOM     24  H   UNL     1     -33.660  19.866  -1.278  0.00  0.00    +0.153 HD
BRANCH  22  25
ATOM     25  C   UNL     1     -31.697  19.319  -0.776  0.00  0.00    +0.075 C 
ATOM     26  C   UNL     1     -31.591  18.934   0.704  0.00  0.00    +0.020 C 
ATOM     27  C   UNL     1     -31.830  18.077  -1.664  0.00  0.00    +0.020 C 
ATOM     28  C   UNL     1     -32.724  18.010   1.150  0.00  0.00    +0.002 C 
ATOM     29  C   UNL     1     -32.963  17.155  -1.214  0.00  0.00    +0.002 C 
ATOM     30  C   UNL     1     -32.830  16.776   0.258  0.00  0.00    +0.000 C 
ENDBRANCH  22  25
ENDBRANCH  20  23
ENDBRANCH   1  20
TORSDOF 6
ENDMDL
MODEL 7
REMARK VINA RESULT:      -7.0      6.297      8.982
REMARK  Name = 53394762
REMARK  6 active torsions:
REMARK  status: ('A' for Active; 'I' for Inactive)
REMARK    1  A    between atoms: C_1  and  O_20
REMARK    2  A    between atoms: C_2  and  C_7
REMARK    3  A    between atoms: C_5  and  O_18
REMARK    4  A    between atoms: C_10  and  C_15
REMARK    5  A    between atoms: O_20  and  C_23
REMARK    6  A    between atoms: N_22  and  C_25
REMARK                            x       y       z     vdW  Elec       q    Type
REMARK                         _______ _______ _______ _____ _____    ______ ____
ROOT
ATOM      1  C   UNL     1     -35.609  25.001   4.832  0.00  0.00    +0.150 C 
ATOM      2  C   UNL     1     -35.893  22.925   3.631  0.00  0.00    +0.037 C 
ATOM      3  C   UNL     1     -35.953  24.318   3.666  0.00  0.00    +0.041 C 
ATOM      4  C   UNL     1     -35.203  24.292   5.963  0.00  0.00    +0.041 C 
ATOM      5  C   UNL     1     -35.488  22.215   4.761  0.00  0.00    +0.134 C 
ATOM      6  C   UNL     1     -35.142  22.898   5.927  0.00  0.00    +0.040 C 
ENDROOT
BRANCH   2   7
ATOM      7  C   UNL     1     -36.256  22.233   2.409  0.00  0.00    +0.003 C 
ATOM      8  C   UNL     1     -37.594  21.950   2.139  0.00  0.00    +0.005 C 
ATOM      9  C   UNL     1     -35.265  21.850   1.505  0.00  0.00    +0.000 C 
ATOM     10  C   UNL     1     -37.943  21.284   0.964  0.00  0.00    +0.053 C 
ATOM     11  C   UNL     1     -35.614  21.183   0.330  0.00  0.00    +0.000 C 
ATOM     12  C   UNL     1     -36.953  20.900   0.060  0.00  0.00    +0.005 C 
BRANCH  10  15
ATOM     13  O   UNL     1     -39.664  20.195  -0.219  0.00  0.00    -0.270 OA
ATOM     14  N   UNL     1     -40.303  21.608   1.470  0.00  0.00    -0.325 N 
ATOM     15  C   UNL     1     -39.338  20.988   0.682  0.00  0.00    +0.243 C 
ATOM     16  H   UNL     1     -41.259  21.432   1.308  0.00  0.00    +0.145 HD
ATOM     17  H   UNL     1     -40.031  22.223   2.189  0.00  0.00    +0.145 HD
ENDBRANCH  10  15
ENDBRANCH   2   7
BRANCH   5  18
ATOM     18  O   UNL     1     -35.419  20.852   4.754  0.00  0.00    -0.506 OA
ATOM     19  H   UNL     1     -36.029  20.356   4.245  0.00  0.00    +0.292 HD
ENDBRANCH   5  18
BRANCH   1  20
ATOM     20  O   UNL     1     -35.670  26.398   4.869  0.00  0.00    -0.410 OA
BRANCH  20  23
ATOM     21  O   UNL     1     -33.479  26.763   4.180  0.00  0.00    -0.226 OA
ATOM     22  N   UNL     1     -35.253  27.962   3.291  0.00  0.00    -0.272 N 
ATOM     23  C   UNL     1     -34.677  27.018   4.115  0.00  0.00    +0.406 C 
ATOM     24  H   UNL     1     -36.231  28.080   3.329  0.00  0.00    +0.153 HD
BRANCH  22  25
ATOM     25  C   UNL     1     -34.501  28.789   2.375  0.00  0.00    +0.075 C 
ATOM     26  C   UNL     1     -35.249  28.963   1.048  0.00  0.00    +0.020 C 
ATOM     27  C   UNL     1     -34.165  30.145   3.005  0.00  0.00    +0.020 C 
ATOM     28  C   UNL     1     -36.472  29.870   1.181  0.00  0.00    +0.002 C 
ATOM     29  C   UNL     1     -35.391  31.050   3.134  0.00  0.00    +0.002 C 
ATOM     30  C   UNL     1     -36.111  31.217   1.800  0.00  0.00    +0.000 C 
ENDBRANCH  22  25
ENDBRANCH  20  23
ENDBRANCH   1  20
TORSDOF 6
ENDMDL
MODEL 8
REMARK VINA RESULT:      -7.0      3.381      6.443
REMARK  Name = 53394762
REMARK  6 active torsions:
REMARK  status: ('A' for Active; 'I' for Inactive)
REMARK    1  A    between atoms: C_1  and  O_20
REMARK    2  A    between atoms: C_2  and  C_7
REMARK    3  A    between atoms: C_5  and  O_18
REMARK    4  A    between atoms: C_10  and  C_15
REMARK    5  A    between atoms: O_20  and  C_23
REMARK    6  A    between atoms: N_22  and  C_25
REMARK                            x       y       z     vdW  Elec       q    Type
REMARK                         _______ _______ _______ _____ _____    ______ ____
ROOT
ATOM      1  C   UNL     1     -35.669  22.270   4.312  0.00  0.00    +0.150 C 
ATOM      2  C   UNL     1     -36.836  24.302   3.724  0.00  0.00    +0.037 C 
ATOM      3  C   UNL     1     -36.538  22.963   3.469  0.00  0.00    +0.041 C 
ATOM      4  C   UNL     1     -35.099  22.914   5.410  0.00  0.00    +0.041 C 
ATOM      5  C   UNL     1     -36.266  24.947   4.821  0.00  0.00    +0.134 C 
ATOM      6  C   UNL     1     -35.398  24.254   5.665  0.00  0.00    +0.040 C 
ENDROOT
BRANCH   2   7
ATOM      7  C   UNL     1     -37.740  25.005   2.836  0.00  0.00    +0.003 C 
ATOM      8  C   UNL     1     -39.064  25.224   3.218  0.00  0.00    +0.005 C 
ATOM      9  C   UNL     1     -37.286  25.462   1.599  0.00  0.00    +0.000 C 
ATOM     10  C   UNL     1     -39.934  25.900   2.362  0.00  0.00    +0.053 C 
ATOM     11  C   UNL     1     -38.156  26.138   0.743  0.00  0.00    +0.000 C 
ATOM     12  C   UNL     1     -39.480  26.357   1.125  0.00  0.00    +0.005 C 
BRANCH  10  15
ATOM     13  O   UNL     1     -42.259  25.890   1.987  0.00  0.00    -0.270 OA
ATOM     14  N   UNL     1     -41.546  26.606   4.046  0.00  0.00    -0.325 N 
ATOM     15  C   UNL     1     -41.313  26.129   2.759  0.00  0.00    +0.243 C 
ATOM     16  H   UNL     1     -42.468  26.772   4.350  0.00  0.00    +0.145 HD
ATOM     17  H   UNL     1     -40.789  26.778   4.652  0.00  0.00    +0.145 HD
ENDBRANCH  10  15
ENDBRANCH   2   7
BRANCH   5  18
ATOM     18  O   UNL     1     -36.540  26.255   5.094  0.00  0.00    -0.506 OA
ATOM     19  H   UNL     1     -36.464  26.576   5.971  0.00  0.00    +0.292 HD
ENDBRANCH   5  18
BRANCH   1  20
ATOM     20  O   UNL     1     -35.369  20.928   4.057  0.00  0.00    -0.410 OA
BRANCH  20  23
ATOM     21  O   UNL     1     -36.714  20.634   2.183  0.00  0.00    -0.226 OA
ATOM     22  N   UNL     1     -34.475  20.030   2.185  0.00  0.00    -0.272 N 
ATOM     23  C   UNL     1     -35.628  20.539   2.745  0.00  0.00    +0.406 C 
ATOM     24  H   UNL     1     -33.661  20.003   2.739  0.00  0.00    +0.153 HD
BRANCH  22  25
ATOM     25  C   UNL     1     -34.397  19.535   0.829  0.00  0.00    +0.075 C 
ATOM     26  C   UNL     1     -33.807  20.593  -0.111  0.00  0.00    +0.020 C 
ATOM     27  C   UNL     1     -33.599  18.229   0.765  0.00  0.00    +0.020 C 
ATOM     28  C   UNL     1     -32.311  20.805   0.114  0.00  0.00    +0.002 C 
ATOM     29  C   UNL     1     -32.102  18.446   0.988  0.00  0.00    +0.002 C 
ATOM     30  C   UNL     1     -31.537  19.493   0.034  0.00  0.00    +0.000 C 
ENDBRANCH  22  25
ENDBRANCH  20  23
ENDBRANCH   1  20
TORSDOF 6
ENDMDL
MODEL 9
REMARK VINA RESULT:      -7.0      6.043      9.646
REMARK  Name = 53394762
REMARK  6 active torsions:
REMARK  status: ('A' for Active; 'I' for Inactive)
REMARK    1  A    between atoms: C_1  and  O_20
REMARK    2  A    between atoms: C_2  and  C_7
REMARK    3  A    between atoms: C_5  and  O_18
REMARK    4  A    between atoms: C_10  and  C_15
REMARK    5  A    between atoms: O_20  and  C_23
REMARK    6  A    between atoms: N_22  and  C_25
REMARK                            x       y       z     vdW  Elec       q    Type
REMARK                         _______ _______ _______ _____ _____    ______ ____
ROOT
ATOM      1  C   UNL     1     -34.410  19.727   0.758  0.00  0.00    +0.150 C 
ATOM      2  C   UNL     1     -35.617  21.010   2.412  0.00  0.00    +0.037 C 
ATOM      3  C   UNL     1     -34.410  20.609   1.840  0.00  0.00    +0.041 C 
ATOM      4  C   UNL     1     -35.617  19.247   0.250  0.00  0.00    +0.041 C 
ATOM      5  C   UNL     1     -36.824  20.530   1.905  0.00  0.00    +0.134 C 
ATOM      6  C   UNL     1     -36.825  19.649   0.823  0.00  0.00    +0.040 C 
ENDROOT
BRANCH   2   7
ATOM      7  C   UNL     1     -35.595  21.926   3.536  0.00  0.00    +0.003 C 
ATOM      8  C   UNL     1     -35.920  23.269   3.347  0.00  0.00    +0.005 C 
ATOM      9  C   UNL     1     -35.249  21.463   4.805  0.00  0.00    +0.000 C 
ATOM     10  C   UNL     1     -35.898  24.150   4.428  0.00  0.00    +0.053 C 
ATOM     11  C   UNL     1     -35.227  22.345   5.886  0.00  0.00    +0.000 C 
ATOM     12  C   UNL     1     -35.551  23.688   5.698  0.00  0.00    +0.005 C 
BRANCH  10  15
ATOM     13  O   UNL     1     -36.396  26.027   3.095  0.00  0.00    -0.270 OA
ATOM     14  N   UNL     1     -36.395  26.343   5.366  0.00  0.00    -0.325 N 
ATOM     15  C   UNL     1     -36.236  25.551   4.233  0.00  0.00    +0.243 C 
ATOM     16  H   UNL     1     -36.624  27.296   5.272  0.00  0.00    +0.145 HD
ATOM     17  H   UNL     1     -36.278  25.951   6.261  0.00  0.00    +0.145 HD
ENDBRANCH  10  15
ENDBRANCH   2   7
BRANCH   5  18
ATOM     18  O   UNL     1     -38.019  20.905   2.446  0.00  0.00    -0.506 OA
ATOM     19  H   UNL     1     -38.587  20.260   2.818  0.00  0.00    +0.292 HD
ENDBRANCH   5  18
BRANCH   1  20
ATOM     20  O   UNL     1     -33.201  19.324   0.184  0.00  0.00    -0.410 OA
BRANCH  20  23
ATOM     21  O   UNL     1     -32.336  17.878   1.786  0.00  0.00    -0.226 OA
ATOM     22  N   UNL     1     -32.826  17.164  -0.365  0.00  0.00    -0.272 N 
ATOM     23  C   UNL     1     -32.746  18.094   0.650  0.00  0.00    +0.406 C 
ATOM     24  H   UNL     1     -33.171  17.457  -1.240  0.00  0.00    +0.153 HD
BRANCH  22  25
ATOM     25  C   UNL     1     -32.431  15.782  -0.214  0.00  0.00    +0.075 C 
ATOM     26  C   UNL     1     -33.260  14.868  -1.125  0.00  0.00    +0.020 C 
ATOM     27  C   UNL     1     -30.930  15.606  -0.472  0.00  0.00    +0.020 C 
ATOM     28  C   UNL     1     -32.894  15.024  -2.600  0.00  0.00    +0.002 C 
ATOM     29  C   UNL     1     -30.568  15.761  -1.950  0.00  0.00    +0.002 C 
ATOM     30  C   UNL     1     -31.398  14.835  -2.833  0.00  0.00    +0.000 C 
ENDBRANCH  22  25
ENDBRANCH  20  23
ENDBRANCH   1  20
TORSDOF 6
ENDMDL
