MODEL 1
REMARK VINA RESULT:      -6.8      0.000      0.000
REMARK  Name = 5486848
REMARK  5 active torsions:
REMARK  status: ('A' for Active; 'I' for Inactive)
REMARK    1  A    between atoms: C_5  and  C_13
REMARK    2  A    between atoms: C_8  and  O_23
REMARK    3  A    between atoms: C_12  and  O_25
REMARK    4  A    between atoms: C_16  and  O_19
REMARK    5  A    between atoms: C_18  and  O_21
REMARK                            x       y       z     vdW  Elec       q    Type
REMARK                         _______ _______ _______ _____ _____    ______ ____
ROOT
ATOM      1 CL   UNL     1     -35.155  26.526   1.996  0.00  0.00    -0.076 Cl
ATOM      2  O   UNL     1     -34.849  23.686   1.403  0.00  0.00    -0.449 OA
ATOM      3  O   UNL     1     -35.367  20.527   3.933  0.00  0.00    -0.286 OA
ATOM      4  C   UNL     1     -35.427  22.859   3.611  0.00  0.00    +0.108 C 
ATOM      5  C   UNL     1     -34.841  21.281   1.736  0.00  0.00    +0.077 C 
ATOM      6  C   UNL     1     -35.226  23.899   2.704  0.00  0.00    +0.165 C 
ATOM      7  C   UNL     1     -35.229  21.468   3.162  0.00  0.00    +0.205 C 
ATOM      8  C   UNL     1     -35.809  23.135   4.926  0.00  0.00    +0.143 C 
ATOM      9  C   UNL     1     -34.689  22.386   0.991  0.00  0.00    +0.183 C 
ATOM     10  C   UNL     1     -35.403  25.223   3.109  0.00  0.00    +0.126 C 
ATOM     11  C   UNL     1     -35.987  24.460   5.328  0.00  0.00    +0.074 C 
ATOM     12  C   UNL     1     -35.784  25.502   4.422  0.00  0.00    +0.150 C 
ENDROOT
BRANCH   5  13
ATOM     13  C   UNL     1     -34.649  19.944   1.150  0.00  0.00    +0.009 C 
ATOM     14  C   UNL     1     -33.480  19.227   1.410  0.00  0.00    +0.040 C 
ATOM     15  C   UNL     1     -35.636  19.390   0.333  0.00  0.00    +0.004 C 
ATOM     16  C   UNL     1     -33.297  17.961   0.855  0.00  0.00    +0.167 C 
ATOM     17  C   UNL     1     -35.453  18.123  -0.223  0.00  0.00    +0.040 C 
ATOM     18  C   UNL     1     -34.284  17.409   0.039  0.00  0.00    +0.167 C 
BRANCH  16  19
ATOM     19  O   UNL     1     -32.151  17.272   1.117  0.00  0.00    -0.503 OA
ATOM     20  H   UNL     1     -32.183  16.488   1.630  0.00  0.00    +0.292 HD
ENDBRANCH  16  19
BRANCH  18  21
ATOM     21  O   UNL     1     -34.119  16.172  -0.509  0.00  0.00    -0.503 OA
ATOM     22  H   UNL     1     -34.836  15.570  -0.528  0.00  0.00    +0.292 HD
ENDBRANCH  18  21
ENDBRANCH   5  13
BRANCH   8  23
ATOM     23  O   UNL     1     -36.019  22.158   5.851  0.00  0.00    -0.505 OA
ATOM     24  H   UNL     1     -35.583  21.333   5.768  0.00  0.00    +0.292 HD
ENDBRANCH   8  23
BRANCH  12  25
ATOM     25  O   UNL     1     -35.969  26.783   4.851  0.00  0.00    -0.504 OA
ATOM     26  H   UNL     1     -36.739  27.254   4.600  0.00  0.00    +0.292 HD
ENDBRANCH  12  25
TORSDOF 5
ENDMDL
MODEL 2
REMARK VINA RESULT:      -6.6      0.599      1.455
REMARK  Name = 5486848
REMARK  5 active torsions:
REMARK  status: ('A' for Active; 'I' for Inactive)
REMARK    1  A    between atoms: C_5  and  C_13
REMARK    2  A    between atoms: C_8  and  O_23
REMARK    3  A    between atoms: C_12  and  O_25
REMARK    4  A    between atoms: C_16  and  O_19
REMARK    5  A    between atoms: C_18  and  O_21
REMARK                            x       y       z     vdW  Elec       q    Type
REMARK                         _______ _______ _______ _____ _____    ______ ____
ROOT
ATOM      1 CL   UNL     1     -35.140  26.537   2.065  0.00  0.00    -0.076 Cl
ATOM      2  O   UNL     1     -34.848  23.701   1.449  0.00  0.00    -0.449 OA
ATOM      3  O   UNL     1     -35.380  20.524   3.952  0.00  0.00    -0.286 OA
ATOM      4  C   UNL     1     -35.430  22.858   3.649  0.00  0.00    +0.108 C 
ATOM      5  C   UNL     1     -34.851  21.293   1.762  0.00  0.00    +0.077 C 
ATOM      6  C   UNL     1     -35.223  23.905   2.752  0.00  0.00    +0.165 C 
ATOM      7  C   UNL     1     -35.238  21.470   3.189  0.00  0.00    +0.205 C 
ATOM      8  C   UNL     1     -35.810  23.125   4.967  0.00  0.00    +0.143 C 
ATOM      9  C   UNL     1     -34.693  22.403   1.026  0.00  0.00    +0.183 C 
ATOM     10  C   UNL     1     -35.394  25.226   3.168  0.00  0.00    +0.126 C 
ATOM     11  C   UNL     1     -35.982  24.448   5.380  0.00  0.00    +0.074 C 
ATOM     12  C   UNL     1     -35.774  25.496   4.482  0.00  0.00    +0.150 C 
ENDROOT
BRANCH   5  13
ATOM     13  C   UNL     1     -34.666  19.960   1.165  0.00  0.00    +0.009 C 
ATOM     14  C   UNL     1     -35.664  19.409   0.359  0.00  0.00    +0.040 C 
ATOM     15  C   UNL     1     -33.492  19.244   1.403  0.00  0.00    +0.004 C 
ATOM     16  C   UNL     1     -35.489  18.146  -0.205  0.00  0.00    +0.167 C 
ATOM     17  C   UNL     1     -33.317  17.980   0.838  0.00  0.00    +0.040 C 
ATOM     18  C   UNL     1     -34.315  17.432   0.033  0.00  0.00    +0.167 C 
BRANCH  16  19
ATOM     19  O   UNL     1     -36.470  17.620  -0.990  0.00  0.00    -0.503 OA
ATOM     20  H   UNL     1     -36.258  17.268  -1.833  0.00  0.00    +0.292 HD
ENDBRANCH  16  19
BRANCH  18  21
ATOM     21  O   UNL     1     -34.131  16.198  -0.514  0.00  0.00    -0.503 OA
ATOM     22  H   UNL     1     -34.617  15.465  -0.191  0.00  0.00    +0.292 HD
ENDBRANCH  18  21
ENDBRANCH   5  13
BRANCH   8  23
ATOM     23  O   UNL     1     -36.025  22.142   5.884  0.00  0.00    -0.505 OA
ATOM     24  H   UNL     1     -36.850  22.083   6.324  0.00  0.00    +0.292 HD
ENDBRANCH   8  23
BRANCH  12  25
ATOM     25  O   UNL     1     -35.953  26.774   4.922  0.00  0.00    -0.504 OA
ATOM     26  H   UNL     1     -35.316  27.169   5.484  0.00  0.00    +0.292 HD
ENDBRANCH  12  25
TORSDOF 5
ENDMDL
MODEL 3
REMARK VINA RESULT:      -6.3      3.552      5.891
REMARK  Name = 5486848
REMARK  5 active torsions:
REMARK  status: ('A' for Active; 'I' for Inactive)
REMARK    1  A    between atoms: C_5  and  C_13
REMARK    2  A    between atoms: C_8  and  O_23
REMARK    3  A    between atoms: C_12  and  O_25
REMARK    4  A    between atoms: C_16  and  O_19
REMARK    5  A    between atoms: C_18  and  O_21
REMARK                            x       y       z     vdW  Elec       q    Type
REMARK                         _______ _______ _______ _____ _____    ______ ____
ROOT
ATOM      1 CL   UNL     1     -36.679  29.897   0.892  0.00  0.00    -0.076 Cl
ATOM      2  O   UNL     1     -36.252  27.356   2.258  0.00  0.00    -0.449 OA
ATOM      3  O   UNL     1     -33.046  26.230   4.517  0.00  0.00    -0.286 OA
ATOM      4  C   UNL     1     -34.096  27.900   3.230  0.00  0.00    +0.108 C 
ATOM      5  C   UNL     1     -35.182  25.662   3.630  0.00  0.00    +0.077 C 
ATOM      6  C   UNL     1     -35.212  28.225   2.460  0.00  0.00    +0.165 C 
ATOM      7  C   UNL     1     -34.021  26.567   3.857  0.00  0.00    +0.205 C 
ATOM      8  C   UNL     1     -33.063  28.826   3.400  0.00  0.00    +0.143 C 
ATOM      9  C   UNL     1     -36.181  26.125   2.865  0.00  0.00    +0.183 C 
ATOM     10  C   UNL     1     -35.300  29.479   1.854  0.00  0.00    +0.126 C 
ATOM     11  C   UNL     1     -33.156  30.079   2.794  0.00  0.00    +0.074 C 
ATOM     12  C   UNL     1     -34.272  30.405   2.022  0.00  0.00    +0.150 C 
ENDROOT
BRANCH   5  13
ATOM     13  C   UNL     1     -35.252  24.319   4.230  0.00  0.00    +0.009 C 
ATOM     14  C   UNL     1     -35.473  23.202   3.423  0.00  0.00    +0.040 C 
ATOM     15  C   UNL     1     -35.096  24.160   5.608  0.00  0.00    +0.004 C 
ATOM     16  C   UNL     1     -35.541  21.931   3.991  0.00  0.00    +0.167 C 
ATOM     17  C   UNL     1     -35.164  22.887   6.177  0.00  0.00    +0.040 C 
ATOM     18  C   UNL     1     -35.386  21.773   5.368  0.00  0.00    +0.167 C 
BRANCH  16  19
ATOM     19  O   UNL     1     -35.757  20.849   3.191  0.00  0.00    -0.503 OA
ATOM     20  H   UNL     1     -36.289  20.932   2.424  0.00  0.00    +0.292 HD
ENDBRANCH  16  19
BRANCH  18  21
ATOM     21  O   UNL     1     -35.447  20.536   5.936  0.00  0.00    -0.503 OA
ATOM     22  H   UNL     1     -35.940  20.406   6.722  0.00  0.00    +0.292 HD
ENDBRANCH  18  21
ENDBRANCH   5  13
BRANCH   8  23
ATOM     23  O   UNL     1     -31.952  28.560   4.142  0.00  0.00    -0.505 OA
ATOM     24  H   UNL     1     -31.689  27.673   4.290  0.00  0.00    +0.292 HD
ENDBRANCH   8  23
BRANCH  12  25
ATOM     25  O   UNL     1     -34.326  31.640   1.446  0.00  0.00    -0.504 OA
ATOM     26  H   UNL     1     -34.026  31.760   0.567  0.00  0.00    +0.292 HD
ENDBRANCH  12  25
TORSDOF 5
ENDMDL
MODEL 4
REMARK VINA RESULT:      -6.1      4.313      6.932
REMARK  Name = 5486848
REMARK  5 active torsions:
REMARK  status: ('A' for Active; 'I' for Inactive)
REMARK    1  A    between atoms: C_5  and  C_13
REMARK    2  A    between atoms: C_8  and  O_23
REMARK    3  A    between atoms: C_12  and  O_25
REMARK    4  A    between atoms: C_16  and  O_19
REMARK    5  A    between atoms: C_18  and  O_21
REMARK                            x       y       z     vdW  Elec       q    Type
REMARK                         _______ _______ _______ _____ _____    ______ ____
ROOT
ATOM      1 CL   UNL     1     -30.502  30.390   2.349  0.00  0.00    -0.076 Cl
ATOM      2  O   UNL     1     -32.416  28.217   2.695  0.00  0.00    -0.449 OA
ATOM      3  O   UNL     1     -33.708  26.545   6.185  0.00  0.00    -0.286 OA
ATOM      4  C   UNL     1     -32.365  28.160   5.121  0.00  0.00    +0.108 C 
ATOM      5  C   UNL     1     -33.834  26.591   3.808  0.00  0.00    +0.077 C 
ATOM      6  C   UNL     1     -31.952  28.685   3.897  0.00  0.00    +0.165 C 
ATOM      7  C   UNL     1     -33.340  27.054   5.134  0.00  0.00    +0.205 C 
ATOM      8  C   UNL     1     -31.857  28.676   6.316  0.00  0.00    +0.143 C 
ATOM      9  C   UNL     1     -33.341  27.201   2.721  0.00  0.00    +0.183 C 
ATOM     10  C   UNL     1     -31.026  29.729   3.862  0.00  0.00    +0.126 C 
ATOM     11  C   UNL     1     -30.932  29.720   6.277  0.00  0.00    +0.074 C 
ATOM     12  C   UNL     1     -30.517  30.245   5.053  0.00  0.00    +0.150 C 
ENDROOT
BRANCH   5  13
ATOM     13  C   UNL     1     -34.838  25.521   3.681  0.00  0.00    +0.009 C 
ATOM     14  C   UNL     1     -36.175  25.774   3.993  0.00  0.00    +0.040 C 
ATOM     15  C   UNL     1     -34.456  24.250   3.249  0.00  0.00    +0.004 C 
ATOM     16  C   UNL     1     -37.126  24.761   3.874  0.00  0.00    +0.167 C 
ATOM     17  C   UNL     1     -35.407  23.236   3.130  0.00  0.00    +0.040 C 
ATOM     18  C   UNL     1     -36.742  23.492   3.442  0.00  0.00    +0.167 C 
BRANCH  16  19
ATOM     19  O   UNL     1     -38.427  25.022   4.181  0.00  0.00    -0.503 OA
ATOM     20  H   UNL     1     -38.779  24.744   5.004  0.00  0.00    +0.292 HD
ENDBRANCH  16  19
BRANCH  18  21
ATOM     21  O   UNL     1     -37.661  22.494   3.319  0.00  0.00    -0.503 OA
ATOM     22  H   UNL     1     -38.527  22.611   3.658  0.00  0.00    +0.292 HD
ENDBRANCH  18  21
ENDBRANCH   5  13
BRANCH   8  23
ATOM     23  O   UNL     1     -32.226  28.200   7.538  0.00  0.00    -0.505 OA
ATOM     24  H   UNL     1     -33.065  28.420   7.892  0.00  0.00    +0.292 HD
ENDBRANCH   8  23
BRANCH  12  25
ATOM     25  O   UNL     1     -29.613  31.266   5.055  0.00  0.00    -0.504 OA
ATOM     26  H   UNL     1     -28.751  31.129   4.716  0.00  0.00    +0.292 HD
ENDBRANCH  12  25
TORSDOF 5
ENDMDL
MODEL 5
REMARK VINA RESULT:      -6.0      3.492      6.172
REMARK  Name = 5486848
REMARK  5 active torsions:
REMARK  status: ('A' for Active; 'I' for Inactive)
REMARK    1  A    between atoms: C_5  and  C_13
REMARK    2  A    between atoms: C_8  and  O_23
REMARK    3  A    between atoms: C_12  and  O_25
REMARK    4  A    between atoms: C_16  and  O_19
REMARK    5  A    between atoms: C_18  and  O_21
REMARK                            x       y       z     vdW  Elec       q    Type
REMARK                         _______ _______ _______ _____ _____    ______ ____
ROOT
ATOM      1 CL   UNL     1     -32.294  30.729   4.282  0.00  0.00    -0.076 Cl
ATOM      2  O   UNL     1     -33.349  28.014   4.126  0.00  0.00    -0.449 OA
ATOM      3  O   UNL     1     -36.569  26.695   1.995  0.00  0.00    -0.286 OA
ATOM      4  C   UNL     1     -35.172  28.492   2.596  0.00  0.00    +0.108 C 
ATOM      5  C   UNL     1     -34.767  26.160   3.457  0.00  0.00    +0.077 C 
ATOM      6  C   UNL     1     -34.069  28.888   3.352  0.00  0.00    +0.165 C 
ATOM      7  C   UNL     1     -35.589  27.078   2.622  0.00  0.00    +0.205 C 
ATOM      8  C   UNL     1     -35.870  29.427   1.827  0.00  0.00    +0.143 C 
ATOM      9  C   UNL     1     -33.734  26.696   4.125  0.00  0.00    +0.183 C 
ATOM     10  C   UNL     1     -33.660  30.222   3.346  0.00  0.00    +0.126 C 
ATOM     11  C   UNL     1     -35.458  30.760   1.822  0.00  0.00    +0.074 C 
ATOM     12  C   UNL     1     -34.355  31.157   2.579  0.00  0.00    +0.150 C 
ENDROOT
BRANCH   5  13
ATOM     13  C   UNL     1     -35.052  24.718   3.541  0.00  0.00    +0.009 C 
ATOM     14  C   UNL     1     -35.467  24.155   4.749  0.00  0.00    +0.040 C 
ATOM     15  C   UNL     1     -34.907  23.909   2.412  0.00  0.00    +0.004 C 
ATOM     16  C   UNL     1     -35.736  22.789   4.829  0.00  0.00    +0.167 C 
ATOM     17  C   UNL     1     -35.176  22.542   2.492  0.00  0.00    +0.040 C 
ATOM     18  C   UNL     1     -35.591  21.983   3.700  0.00  0.00    +0.167 C 
BRANCH  16  19
ATOM     19  O   UNL     1     -36.141  22.253   6.014  0.00  0.00    -0.503 OA
ATOM     20  H   UNL     1     -36.886  22.608   6.459  0.00  0.00    +0.292 HD
ENDBRANCH  16  19
BRANCH  18  21
ATOM     21  O   UNL     1     -35.852  20.647   3.764  0.00  0.00    -0.503 OA
ATOM     22  H   UNL     1     -35.810  20.201   4.587  0.00  0.00    +0.292 HD
ENDBRANCH  18  21
ENDBRANCH   5  13
BRANCH   8  23
ATOM     23  O   UNL     1     -36.952  29.095   1.070  0.00  0.00    -0.505 OA
ATOM     24  H   UNL     1     -37.136  28.195   0.885  0.00  0.00    +0.292 HD
ENDBRANCH   8  23
BRANCH  12  25
ATOM     25  O   UNL     1     -33.982  32.469   2.548  0.00  0.00    -0.504 OA
ATOM     26  H   UNL     1     -33.698  32.893   3.333  0.00  0.00    +0.292 HD
ENDBRANCH  12  25
TORSDOF 5
ENDMDL
MODEL 6
REMARK VINA RESULT:      -5.8      3.783      7.129
REMARK  Name = 5486848
REMARK  5 active torsions:
REMARK  status: ('A' for Active; 'I' for Inactive)
REMARK    1  A    between atoms: C_5  and  C_13
REMARK    2  A    between atoms: C_8  and  O_23
REMARK    3  A    between atoms: C_12  and  O_25
REMARK    4  A    between atoms: C_16  and  O_19
REMARK    5  A    between atoms: C_18  and  O_21
REMARK                            x       y       z     vdW  Elec       q    Type
REMARK                         _______ _______ _______ _____ _____    ______ ____
ROOT
ATOM      1 CL   UNL     1     -40.993  24.499   1.484  0.00  0.00    -0.076 Cl
ATOM      2  O   UNL     1     -38.497  25.297   2.764  0.00  0.00    -0.449 OA
ATOM      3  O   UNL     1     -35.283  22.953   3.674  0.00  0.00    -0.286 OA
ATOM      4  C   UNL     1     -37.434  23.116   2.729  0.00  0.00    +0.108 C 
ATOM      5  C   UNL     1     -36.258  25.125   3.690  0.00  0.00    +0.077 C 
ATOM      6  C   UNL     1     -38.506  23.962   2.451  0.00  0.00    +0.165 C 
ATOM      7  C   UNL     1     -36.235  23.668   3.387  0.00  0.00    +0.205 C 
ATOM      8  C   UNL     1     -37.499  21.762   2.388  0.00  0.00    +0.143 C 
ATOM      9  C   UNL     1     -37.366  25.805   3.358  0.00  0.00    +0.183 C 
ATOM     10  C   UNL     1     -39.652  23.459   1.833  0.00  0.00    +0.126 C 
ATOM     11  C   UNL     1     -38.646  21.262   1.769  0.00  0.00    +0.074 C 
ATOM     12  C   UNL     1     -39.720  22.109   1.492  0.00  0.00    +0.150 C 
ENDROOT
BRANCH   5  13
ATOM     13  C   UNL     1     -35.112  25.810   4.310  0.00  0.00    +0.009 C 
ATOM     14  C   UNL     1     -34.284  26.629   3.539  0.00  0.00    +0.040 C 
ATOM     15  C   UNL     1     -34.850  25.644   5.671  0.00  0.00    +0.004 C 
ATOM     16  C   UNL     1     -33.198  27.277   4.126  0.00  0.00    +0.167 C 
ATOM     17  C   UNL     1     -33.763  26.292   6.258  0.00  0.00    +0.040 C 
ATOM     18  C   UNL     1     -32.937  27.109   5.486  0.00  0.00    +0.167 C 
BRANCH  16  19
ATOM     19  O   UNL     1     -32.398  28.073   3.363  0.00  0.00    -0.503 OA
ATOM     20  H   UNL     1     -31.968  28.812   3.747  0.00  0.00    +0.292 HD
ENDBRANCH  16  19
BRANCH  18  21
ATOM     21  O   UNL     1     -31.881  27.738   6.073  0.00  0.00    -0.503 OA
ATOM     22  H   UNL     1     -31.297  28.255   5.553  0.00  0.00    +0.292 HD
ENDBRANCH  18  21
ENDBRANCH   5  13
BRANCH   8  23
ATOM     23  O   UNL     1     -36.482  20.891   2.636  0.00  0.00    -0.505 OA
ATOM     24  H   UNL     1     -36.317  20.182   2.046  0.00  0.00    +0.292 HD
ENDBRANCH   8  23
BRANCH  12  25
ATOM     25  O   UNL     1     -40.823  21.584   0.886  0.00  0.00    -0.504 OA
ATOM     26  H   UNL     1     -41.307  20.901   1.305  0.00  0.00    +0.292 HD
ENDBRANCH  12  25
TORSDOF 5
ENDMDL
MODEL 7
REMARK VINA RESULT:      -5.7      4.429      7.213
REMARK  Name = 5486848
REMARK  5 active torsions:
REMARK  status: ('A' for Active; 'I' for Inactive)
REMARK    1  A    between atoms: C_5  and  C_13
REMARK    2  A    between atoms: C_8  and  O_23
REMARK    3  A    between atoms: C_12  and  O_25
REMARK    4  A    between atoms: C_16  and  O_19
REMARK    5  A    between atoms: C_18  and  O_21
REMARK                            x       y       z     vdW  Elec       q    Type
REMARK                         _______ _______ _______ _____ _____    ______ ____
ROOT
ATOM      1 CL   UNL     1     -30.847  29.490   7.122  0.00  0.00    -0.076 Cl
ATOM      2  O   UNL     1     -32.758  27.600   5.988  0.00  0.00    -0.449 OA
ATOM      3  O   UNL     1     -34.213  27.488   2.178  0.00  0.00    -0.286 OA
ATOM      4  C   UNL     1     -32.793  28.524   3.744  0.00  0.00    +0.108 C 
ATOM      5  C   UNL     1     -34.179  26.510   4.348  0.00  0.00    +0.077 C 
ATOM      6  C   UNL     1     -32.338  28.520   5.062  0.00  0.00    +0.165 C 
ATOM      7  C   UNL     1     -33.767  27.502   3.318  0.00  0.00    +0.205 C 
ATOM      8  C   UNL     1     -32.332  29.488   2.843  0.00  0.00    +0.143 C 
ATOM      9  C   UNL     1     -33.648  26.640   5.573  0.00  0.00    +0.183 C 
ATOM     10  C   UNL     1     -31.420  29.482   5.487  0.00  0.00    +0.126 C 
ATOM     11  C   UNL     1     -31.413  30.448   3.271  0.00  0.00    +0.074 C 
ATOM     12  C   UNL     1     -30.958  30.444   4.591  0.00  0.00    +0.150 C 
ENDROOT
BRANCH   5  13
ATOM     13  C   UNL     1     -35.115  25.415   4.045  0.00  0.00    +0.009 C 
ATOM     14  C   UNL     1     -36.493  25.630   4.120  0.00  0.00    +0.040 C 
ATOM     15  C   UNL     1     -34.628  24.159   3.680  0.00  0.00    +0.004 C 
ATOM     16  C   UNL     1     -37.379  24.592   3.834  0.00  0.00    +0.167 C 
ATOM     17  C   UNL     1     -35.515  23.121   3.394  0.00  0.00    +0.040 C 
ATOM     18  C   UNL     1     -36.891  23.338   3.470  0.00  0.00    +0.167 C 
BRANCH  16  19
ATOM     19  O   UNL     1     -38.721  24.816   3.911  0.00  0.00    -0.503 OA
ATOM     20  H   UNL     1     -39.049  25.523   4.432  0.00  0.00    +0.292 HD
ENDBRANCH  16  19
BRANCH  18  21
ATOM     21  O   UNL     1     -37.747  22.316   3.185  0.00  0.00    -0.503 OA
ATOM     22  H   UNL     1     -38.439  22.107   3.781  0.00  0.00    +0.292 HD
ENDBRANCH  18  21
ENDBRANCH   5  13
BRANCH   8  23
ATOM     23  O   UNL     1     -32.743  29.538   1.546  0.00  0.00    -0.505 OA
ATOM     24  H   UNL     1     -32.116  29.468   0.852  0.00  0.00    +0.292 HD
ENDBRANCH   8  23
BRANCH  12  25
ATOM     25  O   UNL     1     -30.060  31.397   4.972  0.00  0.00    -0.504 OA
ATOM     26  H   UNL     1     -29.197  31.147   5.237  0.00  0.00    +0.292 HD
ENDBRANCH  12  25
TORSDOF 5
ENDMDL
MODEL 8
REMARK VINA RESULT:      -5.7      3.981      6.070
REMARK  Name = 5486848
REMARK  5 active torsions:
REMARK  status: ('A' for Active; 'I' for Inactive)
REMARK    1  A    between atoms: C_5  and  C_13
REMARK    2  A    between atoms: C_8  and  O_23
REMARK    3  A    between atoms: C_12  and  O_25
REMARK    4  A    between atoms: C_16  and  O_19
REMARK    5  A    between atoms: C_18  and  O_21
REMARK                            x       y       z     vdW  Elec       q    Type
REMARK                         _______ _______ _______ _____ _____    ______ ____
ROOT
ATOM      1 CL   UNL     1     -37.700  28.844  -0.721  0.00  0.00    -0.076 Cl
ATOM      2  O   UNL     1     -36.931  26.816   1.229  0.00  0.00    -0.449 OA
ATOM      3  O   UNL     1     -39.369  24.335   3.362  0.00  0.00    -0.286 OA
ATOM      4  C   UNL     1     -39.171  26.040   1.750  0.00  0.00    +0.108 C 
ATOM      5  C   UNL     1     -37.147  25.023   2.851  0.00  0.00    +0.077 C 
ATOM      6  C   UNL     1     -38.290  26.870   1.057  0.00  0.00    +0.165 C 
ATOM      7  C   UNL     1     -38.629  25.062   2.711  0.00  0.00    +0.205 C 
ATOM      8  C   UNL     1     -40.548  26.140   1.535  0.00  0.00    +0.143 C 
ATOM      9  C   UNL     1     -36.436  25.886   2.111  0.00  0.00    +0.183 C 
ATOM     10  C   UNL     1     -38.782  27.806   0.146  0.00  0.00    +0.126 C 
ATOM     11  C   UNL     1     -41.037  27.077   0.623  0.00  0.00    +0.074 C 
ATOM     12  C   UNL     1     -40.156  27.908  -0.070  0.00  0.00    +0.150 C 
ENDROOT
BRANCH   5  13
ATOM     13  C   UNL     1     -36.474  24.067   3.748  0.00  0.00    +0.009 C 
ATOM     14  C   UNL     1     -36.292  22.742   3.348  0.00  0.00    +0.040 C 
ATOM     15  C   UNL     1     -36.018  24.484   4.999  0.00  0.00    +0.004 C 
ATOM     16  C   UNL     1     -35.656  21.837   4.197  0.00  0.00    +0.167 C 
ATOM     17  C   UNL     1     -35.382  23.578   5.848  0.00  0.00    +0.040 C 
ATOM     18  C   UNL     1     -35.200  22.255   5.447  0.00  0.00    +0.167 C 
BRANCH  16  19
ATOM     19  O   UNL     1     -35.484  20.546   3.794  0.00  0.00    -0.503 OA
ATOM     20  H   UNL     1     -35.730  20.290   2.927  0.00  0.00    +0.292 HD
ENDBRANCH  16  19
BRANCH  18  21
ATOM     21  O   UNL     1     -34.576  21.381   6.285  0.00  0.00    -0.503 OA
ATOM     22  H   UNL     1     -33.653  21.454   6.434  0.00  0.00    +0.292 HD
ENDBRANCH  18  21
ENDBRANCH   5  13
BRANCH   8  23
ATOM     23  O   UNL     1     -41.452  25.356   2.185  0.00  0.00    -0.505 OA
ATOM     24  H   UNL     1     -41.194  24.517   2.513  0.00  0.00    +0.292 HD
ENDBRANCH   8  23
BRANCH  12  25
ATOM     25  O   UNL     1     -40.671  28.809  -0.954  0.00  0.00    -0.504 OA
ATOM     26  H   UNL     1     -40.793  28.568  -1.851  0.00  0.00    +0.292 HD
ENDBRANCH  12  25
TORSDOF 5
ENDMDL
MODEL 9
REMARK VINA RESULT:      -5.7      4.086      7.481
REMARK  Name = 5486848
REMARK  5 active torsions:
REMARK  status: ('A' for Active; 'I' for Inactive)
REMARK    1  A    between atoms: C_5  and  C_13
REMARK    2  A    between atoms: C_8  and  O_23
REMARK    3  A    between atoms: C_12  and  O_25
REMARK    4  A    between atoms: C_16  and  O_19
REMARK    5  A    between atoms: C_18  and  O_21
REMARK                            x       y       z     vdW  Elec       q    Type
REMARK                         _______ _______ _______ _____ _____    ______ ____
ROOT
ATOM      1 CL   UNL     1     -28.773  16.113   0.702  0.00  0.00    -0.076 Cl
ATOM      2  O   UNL     1     -31.316  17.490   1.087  0.00  0.00    -0.449 OA
ATOM      3  O   UNL     1     -32.340  21.250  -0.121  0.00  0.00    -0.286 OA
ATOM      4  C   UNL     1     -30.713  19.549  -0.048  0.00  0.00    +0.108 C 
ATOM      5  C   UNL     1     -33.001  19.234   0.959  0.00  0.00    +0.077 C 
ATOM      6  C   UNL     1     -30.416  18.262   0.398  0.00  0.00    +0.165 C 
ATOM      7  C   UNL     1     -32.047  20.113   0.228  0.00  0.00    +0.205 C 
ATOM      8  C   UNL     1     -29.756  20.291  -0.744  0.00  0.00    +0.143 C 
ATOM      9  C   UNL     1     -32.563  18.018   1.319  0.00  0.00    +0.183 C 
ATOM     10  C   UNL     1     -29.158  17.710   0.153  0.00  0.00    +0.126 C 
ATOM     11  C   UNL     1     -28.499  19.736  -0.989  0.00  0.00    +0.074 C 
ATOM     12  C   UNL     1     -28.200  18.449  -0.542  0.00  0.00    +0.150 C 
ENDROOT
BRANCH   5  13
ATOM     13  C   UNL     1     -34.377  19.660   1.265  0.00  0.00    +0.009 C 
ATOM     14  C   UNL     1     -34.642  20.393   2.423  0.00  0.00    +0.040 C 
ATOM     15  C   UNL     1     -35.420  19.332   0.397  0.00  0.00    +0.004 C 
ATOM     16  C   UNL     1     -35.945  20.796   2.713  0.00  0.00    +0.167 C 
ATOM     17  C   UNL     1     -36.723  19.735   0.688  0.00  0.00    +0.040 C 
ATOM     18  C   UNL     1     -36.986  20.468   1.845  0.00  0.00    +0.167 C 
BRANCH  16  19
ATOM     19  O   UNL     1     -36.189  21.511   3.847  0.00  0.00    -0.503 OA
ATOM     20  H   UNL     1     -36.171  22.448   3.822  0.00  0.00    +0.292 HD
ENDBRANCH  16  19
BRANCH  18  21
ATOM     21  O   UNL     1     -38.263  20.857   2.116  0.00  0.00    -0.503 OA
ATOM     22  H   UNL     1     -38.969  20.547   1.583  0.00  0.00    +0.292 HD
ENDBRANCH  18  21
ENDBRANCH   5  13
BRANCH   8  23
ATOM     23  O   UNL     1     -29.993  21.551  -1.202  0.00  0.00    -0.505 OA
ATOM     24  H   UNL     1     -30.513  22.144  -0.695  0.00  0.00    +0.292 HD
ENDBRANCH   8  23
BRANCH  12  25
ATOM     25  O   UNL     1     -26.962  17.940  -0.802  0.00  0.00    -0.504 OA
ATOM     26  H   UNL     1     -26.670  17.169  -0.358  0.00  0.00    +0.292 HD
ENDBRANCH  12  25
TORSDOF 5
ENDMDL
