MODEL 1
REMARK VINA RESULT:      -5.7      0.000      0.000
REMARK  Name = 5276374
REMARK  11 active torsions:
REMARK  status: ('A' for Active; 'I' for Inactive)
REMARK    1  A    between atoms: C_3  and  C_17
REMARK    2  A    between atoms: C_5  and  C_23
REMARK    3  A    between atoms: C_9  and  C_26
REMARK    4  A    between atoms: C_12  and  O_14
REMARK    5  A    between atoms: C_17  and  C_18
REMARK    6  A    between atoms: C_18  and  C_19
REMARK    7  A    between atoms: C_19  and  O_20
REMARK    8  A    between atoms: C_23  and  O_24
REMARK    9  A    between atoms: C_26  and  C_28
REMARK   10  A    between atoms: C_28  and  C_29
REMARK   11  A    between atoms: C_29  and  C_30
REMARK                            x       y       z     vdW  Elec       q    Type
REMARK                         _______ _______ _______ _____ _____    ______ ____
ROOT
ATOM      1  O   UNL     1     -32.184  24.309   0.270  0.00  0.00    -0.288 OA
ATOM      2  C   UNL     1     -34.319  25.309   2.992  0.00  0.00    +0.028 C 
ATOM      3  C   UNL     1     -35.561  24.379   2.729  0.00  0.00    +0.070 C 
ATOM      4  C   UNL     1     -33.623  25.660   1.660  0.00  0.00    +0.066 C 
ATOM      5  C   UNL     1     -34.627  26.608   3.788  0.00  0.00    +0.100 C 
ATOM      6  C   UNL     1     -32.393  26.555   1.868  0.00  0.00    +0.008 C 
ATOM      7  C   UNL     1     -32.734  27.833   2.634  0.00  0.00    +0.001 C 
ATOM      8  C   UNL     1     -33.379  27.481   3.974  0.00  0.00    +0.011 C 
ATOM      9  C   UNL     1     -35.236  23.229   1.761  0.00  0.00    -0.002 C 
ATOM     10  C   UNL     1     -33.216  24.387   0.936  0.00  0.00    +0.205 C 
ATOM     11  C   UNL     1     -36.791  25.157   2.226  0.00  0.00    +0.012 C 
ATOM     12  C   UNL     1     -34.144  23.225   0.970  0.00  0.00    +0.161 C 
ATOM     13  C   UNL     1     -31.487  28.690   2.843  0.00  0.00    +0.000 C 
ENDROOT
BRANCH  12  14
ATOM     14  O   UNL     1     -33.845  22.162   0.141  0.00  0.00    -0.503 OA
ATOM     15  H   UNL     1     -33.189  22.254  -0.522  0.00  0.00    +0.292 HD
ENDBRANCH  12  14
BRANCH   3  17
ATOM     16  O   UNL     1     -37.049  23.773   4.499  0.00  0.00    -0.296 OA
ATOM     17  C   UNL     1     -35.911  23.702   4.035  0.00  0.00    +0.156 C 
BRANCH  17  18
ATOM     18  C   UNL     1     -34.785  22.946   4.719  0.00  0.00    +0.096 C 
BRANCH  18  19
ATOM     19  C   UNL     1     -35.242  22.188   5.957  0.00  0.00    +0.145 C 
BRANCH  19  20
ATOM     20  O   UNL     1     -35.227  20.787   5.716  0.00  0.00    -0.382 OA
ATOM     21  H   UNL     1     -34.355  20.428   5.942  0.00  0.00    +0.210 HD
ENDBRANCH  19  20
ENDBRANCH  18  19
ENDBRANCH  17  18
ENDBRANCH   3  17
BRANCH   5  23
ATOM     22  O   UNL     1     -34.497  25.869   6.087  0.00  0.00    -0.250 OA
ATOM     23  C   UNL     1     -35.157  26.317   5.160  0.00  0.00    +0.313 C 
BRANCH  23  24
ATOM     24  O   UNL     1     -36.476  26.617   5.238  0.00  0.00    -0.480 OA
ATOM     25  H   UNL     1     -37.046  26.412   4.523  0.00  0.00    +0.295 HD
ENDBRANCH  23  24
ENDBRANCH   5  23
BRANCH   9  26
ATOM     26  C   UNL     1     -36.204  22.062   1.708  0.00  0.00    +0.022 C 
ATOM     27  C   UNL     1     -35.445  20.771   1.987  0.00  0.00    +0.004 C 
BRANCH  26  28
ATOM     28  C   UNL     1     -36.925  21.995   0.359  0.00  0.00    +0.004 C 
BRANCH  28  29
ATOM     29  C   UNL     1     -38.452  21.956   0.481  0.00  0.00    +0.000 C 
BRANCH  29  30
ATOM     30  C   UNL     1     -38.891  21.988   1.947  0.00  0.00    +0.000 C 
ATOM     31  C   UNL     1     -39.832  23.149   2.222  0.00  0.00    +0.000 C 
ENDBRANCH  29  30
ENDBRANCH  28  29
ENDBRANCH  26  28
ENDBRANCH   9  26
TORSDOF 11
ENDMDL
MODEL 2
REMARK VINA RESULT:      -5.5      2.682      4.469
REMARK  Name = 5276374
REMARK  11 active torsions:
REMARK  status: ('A' for Active; 'I' for Inactive)
REMARK    1  A    between atoms: C_3  and  C_17
REMARK    2  A    between atoms: C_5  and  C_23
REMARK    3  A    between atoms: C_9  and  C_26
REMARK    4  A    between atoms: C_12  and  O_14
REMARK    5  A    between atoms: C_17  and  C_18
REMARK    6  A    between atoms: C_18  and  C_19
REMARK    7  A    between atoms: C_19  and  O_20
REMARK    8  A    between atoms: C_23  and  O_24
REMARK    9  A    between atoms: C_26  and  C_28
REMARK   10  A    between atoms: C_28  and  C_29
REMARK   11  A    between atoms: C_29  and  C_30
REMARK                            x       y       z     vdW  Elec       q    Type
REMARK                         _______ _______ _______ _____ _____    ______ ____
ROOT
ATOM      1  O   UNL     1     -35.235  21.235   4.557  0.00  0.00    -0.288 OA
ATOM      2  C   UNL     1     -36.468  24.207   2.939  0.00  0.00    +0.028 C 
ATOM      3  C   UNL     1     -36.916  23.606   1.555  0.00  0.00    +0.070 C 
ATOM      4  C   UNL     1     -35.276  23.409   3.507  0.00  0.00    +0.066 C 
ATOM      5  C   UNL     1     -36.129  25.724   2.918  0.00  0.00    +0.100 C 
ATOM      6  C   UNL     1     -34.812  23.949   4.867  0.00  0.00    +0.008 C 
ATOM      7  C   UNL     1     -34.466  25.437   4.807  0.00  0.00    +0.001 C 
ATOM      8  C   UNL     1     -35.665  26.231   4.291  0.00  0.00    +0.011 C 
ATOM      9  C   UNL     1     -37.027  22.072   1.593  0.00  0.00    -0.002 C 
ATOM     10  C   UNL     1     -35.648  21.941   3.637  0.00  0.00    +0.205 C 
ATOM     11  C   UNL     1     -36.001  24.038   0.395  0.00  0.00    +0.012 C 
ATOM     12  C   UNL     1     -36.474  21.323   2.566  0.00  0.00    +0.161 C 
ATOM     13  C   UNL     1     -34.029  25.949   6.179  0.00  0.00    +0.000 C 
ENDROOT
BRANCH  12  14
ATOM     14  O   UNL     1     -36.624  19.951   2.607  0.00  0.00    -0.503 OA
ATOM     15  H   UNL     1     -36.976  19.540   3.372  0.00  0.00    +0.292 HD
ENDBRANCH  12  14
BRANCH   3  17
ATOM     16  O   UNL     1     -39.194  24.030   2.143  0.00  0.00    -0.296 OA
ATOM     17  C   UNL     1     -38.320  24.093   1.278  0.00  0.00    +0.156 C 
BRANCH  17  18
ATOM     18  C   UNL     1     -38.572  24.653  -0.112  0.00  0.00    +0.096 C 
BRANCH  18  19
ATOM     19  C   UNL     1     -39.928  25.333  -0.243  0.00  0.00    +0.145 C 
BRANCH  19  20
ATOM     20  O   UNL     1     -40.067  26.357   0.733  0.00  0.00    -0.382 OA
ATOM     21  H   UNL     1     -39.418  27.058   0.562  0.00  0.00    +0.210 HD
ENDBRANCH  19  20
ENDBRANCH  18  19
ENDBRANCH  17  18
ENDBRANCH   3  17
BRANCH   5  23
ATOM     22  O   UNL     1     -37.351  27.310   1.563  0.00  0.00    -0.250 OA
ATOM     23  C   UNL     1     -37.310  26.561   2.528  0.00  0.00    +0.313 C 
BRANCH  23  24
ATOM     24  O   UNL     1     -38.334  26.380   3.397  0.00  0.00    -0.480 OA
ATOM     25  H   UNL     1     -38.235  26.628   4.296  0.00  0.00    +0.295 HD
ENDBRANCH  23  24
ENDBRANCH   5  23
BRANCH   9  26
ATOM     26  C   UNL     1     -37.795  21.398   0.470  0.00  0.00    +0.022 C 
ATOM     27  C   UNL     1     -39.129  20.898   1.009  0.00  0.00    +0.004 C 
BRANCH  26  28
ATOM     28  C   UNL     1     -36.987  20.253  -0.148  0.00  0.00    +0.004 C 
BRANCH  28  29
ATOM     29  C   UNL     1     -35.787  20.728  -0.975  0.00  0.00    +0.000 C 
BRANCH  29  30
ATOM     30  C   UNL     1     -34.479  20.139  -0.440  0.00  0.00    +0.000 C 
ATOM     31  C   UNL     1     -33.632  21.197   0.247  0.00  0.00    +0.000 C 
ENDBRANCH  29  30
ENDBRANCH  28  29
ENDBRANCH  26  28
ENDBRANCH   9  26
TORSDOF 11
ENDMDL
MODEL 3
REMARK VINA RESULT:      -5.5      2.552      7.109
REMARK  Name = 5276374
REMARK  11 active torsions:
REMARK  status: ('A' for Active; 'I' for Inactive)
REMARK    1  A    between atoms: C_3  and  C_17
REMARK    2  A    between atoms: C_5  and  C_23
REMARK    3  A    between atoms: C_9  and  C_26
REMARK    4  A    between atoms: C_12  and  O_14
REMARK    5  A    between atoms: C_17  and  C_18
REMARK    6  A    between atoms: C_18  and  C_19
REMARK    7  A    between atoms: C_19  and  O_20
REMARK    8  A    between atoms: C_23  and  O_24
REMARK    9  A    between atoms: C_26  and  C_28
REMARK   10  A    between atoms: C_28  and  C_29
REMARK   11  A    between atoms: C_29  and  C_30
REMARK                            x       y       z     vdW  Elec       q    Type
REMARK                         _______ _______ _______ _____ _____    ______ ____
ROOT
ATOM      1  O   UNL     1     -40.129  23.177   2.276  0.00  0.00    -0.288 OA
ATOM      2  C   UNL     1     -37.778  20.961   0.684  0.00  0.00    +0.028 C 
ATOM      3  C   UNL     1     -36.423  21.614   1.146  0.00  0.00    +0.070 C 
ATOM      4  C   UNL     1     -38.874  22.040   0.555  0.00  0.00    +0.066 C 
ATOM      5  C   UNL     1     -37.695  20.130  -0.627  0.00  0.00    +0.100 C 
ATOM      6  C   UNL     1     -40.222  21.448   0.122  0.00  0.00    +0.008 C 
ATOM      7  C   UNL     1     -40.110  20.656  -1.181  0.00  0.00    +0.001 C 
ATOM      8  C   UNL     1     -39.059  19.557  -1.035  0.00  0.00    +0.011 C 
ATOM      9  C   UNL     1     -36.614  22.591   2.318  0.00  0.00    -0.002 C 
ATOM     10  C   UNL     1     -39.037  22.775   1.875  0.00  0.00    +0.205 C 
ATOM     11  C   UNL     1     -35.677  22.314  -0.005  0.00  0.00    +0.012 C 
ATOM     12  C   UNL     1     -37.817  23.090   2.665  0.00  0.00    +0.161 C 
ATOM     13  C   UNL     1     -41.462  20.062  -1.574  0.00  0.00    +0.000 C 
ENDROOT
BRANCH  12  14
ATOM     14  O   UNL     1     -37.974  23.930   3.750  0.00  0.00    -0.503 OA
ATOM     15  H   UNL     1     -38.399  23.620   4.526  0.00  0.00    +0.292 HD
ENDBRANCH  12  14
BRANCH   3  17
ATOM     16  O   UNL     1     -35.967  19.743   2.562  0.00  0.00    -0.296 OA
ATOM     17  C   UNL     1     -35.548  20.510   1.696  0.00  0.00    +0.156 C 
BRANCH  17  18
ATOM     18  C   UNL     1     -34.145  20.418   1.117  0.00  0.00    +0.096 C 
BRANCH  18  19
ATOM     19  C   UNL     1     -33.427  19.131   1.500  0.00  0.00    +0.145 C 
BRANCH  19  20
ATOM     20  O   UNL     1     -34.151  18.000   1.031  0.00  0.00    -0.382 OA
ATOM     21  H   UNL     1     -33.948  17.852   0.094  0.00  0.00    +0.210 HD
ENDBRANCH  19  20
ENDBRANCH  18  19
ENDBRANCH  17  18
ENDBRANCH   3  17
BRANCH   5  23
ATOM     22  O   UNL     1     -35.788  18.765  -1.211  0.00  0.00    -0.250 OA
ATOM     23  C   UNL     1     -36.760  18.965  -0.499  0.00  0.00    +0.313 C 
BRANCH  23  24
ATOM     24  O   UNL     1     -37.141  18.154   0.518  0.00  0.00    -0.480 OA
ATOM     25  H   UNL     1     -36.940  17.239   0.487  0.00  0.00    +0.295 HD
ENDBRANCH  23  24
ENDBRANCH   5  23
BRANCH   9  26
ATOM     26  C   UNL     1     -35.378  22.999   3.098  0.00  0.00    +0.022 C 
ATOM     27  C   UNL     1     -35.512  22.512   4.535  0.00  0.00    +0.004 C 
BRANCH  26  28
ATOM     28  C   UNL     1     -35.163  24.515   3.050  0.00  0.00    +0.004 C 
BRANCH  28  29
ATOM     29  C   UNL     1     -34.109  25.016   4.044  0.00  0.00    +0.000 C 
BRANCH  29  30
ATOM     30  C   UNL     1     -34.623  26.221   4.836  0.00  0.00    +0.000 C 
ATOM     31  C   UNL     1     -35.876  25.876   5.624  0.00  0.00    +0.000 C 
ENDBRANCH  29  30
ENDBRANCH  28  29
ENDBRANCH  26  28
ENDBRANCH   9  26
TORSDOF 11
ENDMDL
MODEL 4
REMARK VINA RESULT:      -5.5      2.210      5.148
REMARK  Name = 5276374
REMARK  11 active torsions:
REMARK  status: ('A' for Active; 'I' for Inactive)
REMARK    1  A    between atoms: C_3  and  C_17
REMARK    2  A    between atoms: C_5  and  C_23
REMARK    3  A    between atoms: C_9  and  C_26
REMARK    4  A    between atoms: C_12  and  O_14
REMARK    5  A    between atoms: C_17  and  C_18
REMARK    6  A    between atoms: C_18  and  C_19
REMARK    7  A    between atoms: C_19  and  O_20
REMARK    8  A    between atoms: C_23  and  O_24
REMARK    9  A    between atoms: C_26  and  C_28
REMARK   10  A    between atoms: C_28  and  C_29
REMARK   11  A    between atoms: C_29  and  C_30
REMARK                            x       y       z     vdW  Elec       q    Type
REMARK                         _______ _______ _______ _____ _____    ______ ____
ROOT
ATOM      1  O   UNL     1     -36.502  21.767   1.498  0.00  0.00    -0.288 OA
ATOM      2  C   UNL     1     -35.175  24.690   3.130  0.00  0.00    +0.028 C 
ATOM      3  C   UNL     1     -34.606  25.470   1.887  0.00  0.00    +0.070 C 
ATOM      4  C   UNL     1     -35.106  23.168   2.883  0.00  0.00    +0.066 C 
ATOM      5  C   UNL     1     -34.502  25.037   4.488  0.00  0.00    +0.100 C 
ATOM      6  C   UNL     1     -35.666  22.363   4.065  0.00  0.00    +0.008 C 
ATOM      7  C   UNL     1     -34.968  22.713   5.379  0.00  0.00    +0.001 C 
ATOM      8  C   UNL     1     -35.079  24.213   5.647  0.00  0.00    +0.011 C 
ATOM      9  C   UNL     1     -35.159  24.931   0.557  0.00  0.00    -0.002 C 
ATOM     10  C   UNL     1     -35.866  22.814   1.615  0.00  0.00    +0.205 C 
ATOM     11  C   UNL     1     -33.068  25.488   1.849  0.00  0.00    +0.012 C 
ATOM     12  C   UNL     1     -35.763  23.731   0.448  0.00  0.00    +0.161 C 
ATOM     13  C   UNL     1     -35.561  21.911   6.538  0.00  0.00    +0.000 C 
ENDROOT
BRANCH  12  14
ATOM     14  O   UNL     1     -36.293  23.285  -0.746  0.00  0.00    -0.503 OA
ATOM     15  H   UNL     1     -37.015  22.688  -0.745  0.00  0.00    +0.292 HD
ENDBRANCH  12  14
BRANCH   3  17
ATOM     16  O   UNL     1     -36.301  27.132   2.169  0.00  0.00    -0.296 OA
ATOM     17  C   UNL     1     -35.111  26.893   1.971  0.00  0.00    +0.156 C 
BRANCH  17  18
ATOM     18  C   UNL     1     -34.066  27.984   1.798  0.00  0.00    +0.096 C 
BRANCH  18  19
ATOM     19  C   UNL     1     -34.603  29.375   2.102  0.00  0.00    +0.145 C 
BRANCH  19  20
ATOM     20  O   UNL     1     -35.233  29.398   3.376  0.00  0.00    -0.382 OA
ATOM     21  H   UNL     1     -35.699  30.240   3.492  0.00  0.00    +0.210 HD
ENDBRANCH  19  20
ENDBRANCH  18  19
ENDBRANCH  17  18
ENDBRANCH   3  17
BRANCH   5  23
ATOM     22  O   UNL     1     -33.773  27.280   5.022  0.00  0.00    -0.250 OA
ATOM     23  C   UNL     1     -34.682  26.479   4.855  0.00  0.00    +0.313 C 
BRANCH  23  24
ATOM     24  O   UNL     1     -35.997  26.781   4.983  0.00  0.00    -0.480 OA
ATOM     25  H   UNL     1     -36.277  27.675   4.955  0.00  0.00    +0.295 HD
ENDBRANCH  23  24
ENDBRANCH   5  23
BRANCH   9  26
ATOM     26  C   UNL     1     -34.999  25.805  -0.674  0.00  0.00    +0.022 C 
ATOM     27  C   UNL     1     -36.376  26.115  -1.246  0.00  0.00    +0.004 C 
BRANCH  26  28
ATOM     28  C   UNL     1     -34.106  25.134  -1.722  0.00  0.00    +0.004 C 
BRANCH  28  29
ATOM     29  C   UNL     1     -32.710  25.759  -1.826  0.00  0.00    +0.000 C 
BRANCH  29  30
ATOM     30  C   UNL     1     -31.625  24.763  -1.410  0.00  0.00    +0.000 C 
ATOM     31  C   UNL     1     -32.211  23.393  -1.110  0.00  0.00    +0.000 C 
ENDBRANCH  29  30
ENDBRANCH  28  29
ENDBRANCH  26  28
ENDBRANCH   9  26
TORSDOF 11
ENDMDL
MODEL 5
REMARK VINA RESULT:      -5.4      2.769      6.209
REMARK  Name = 5276374
REMARK  11 active torsions:
REMARK  status: ('A' for Active; 'I' for Inactive)
REMARK    1  A    between atoms: C_3  and  C_17
REMARK    2  A    between atoms: C_5  and  C_23
REMARK    3  A    between atoms: C_9  and  C_26
REMARK    4  A    between atoms: C_12  and  O_14
REMARK    5  A    between atoms: C_17  and  C_18
REMARK    6  A    between atoms: C_18  and  C_19
REMARK    7  A    between atoms: C_19  and  O_20
REMARK    8  A    between atoms: C_23  and  O_24
REMARK    9  A    between atoms: C_26  and  C_28
REMARK   10  A    between atoms: C_28  and  C_29
REMARK   11  A    between atoms: C_29  and  C_30
REMARK                            x       y       z     vdW  Elec       q    Type
REMARK                         _______ _______ _______ _____ _____    ______ ____
ROOT
ATOM      1  O   UNL     1     -40.130  21.326   1.683  0.00  0.00    -0.288 OA
ATOM      2  C   UNL     1     -38.821  24.664   1.346  0.00  0.00    +0.028 C 
ATOM      3  C   UNL     1     -37.508  24.537   2.205  0.00  0.00    +0.070 C 
ATOM      4  C   UNL     1     -39.912  23.721   1.896  0.00  0.00    +0.066 C 
ATOM      5  C   UNL     1     -39.384  26.107   1.215  0.00  0.00    +0.100 C 
ATOM      6  C   UNL     1     -41.210  23.798   1.079  0.00  0.00    +0.008 C 
ATOM      7  C   UNL     1     -41.748  25.225   0.988  0.00  0.00    +0.001 C 
ATOM      8  C   UNL     1     -40.683  26.148   0.398  0.00  0.00    +0.011 C 
ATOM      9  C   UNL     1     -37.126  23.072   2.475  0.00  0.00    -0.002 C 
ATOM     10  C   UNL     1     -39.400  22.290   1.914  0.00  0.00    +0.205 C 
ATOM     11  C   UNL     1     -37.589  25.312   3.533  0.00  0.00    +0.012 C 
ATOM     12  C   UNL     1     -37.986  22.049   2.306  0.00  0.00    +0.161 C 
ATOM     13  C   UNL     1     -43.026  25.271   0.152  0.00  0.00    +0.000 C 
ENDROOT
BRANCH  12  14
ATOM     14  O   UNL     1     -37.609  20.736   2.510  0.00  0.00    -0.503 OA
ATOM     15  H   UNL     1     -37.563  20.143   1.785  0.00  0.00    +0.292 HD
ENDBRANCH  12  14
BRANCH   3  17
ATOM     16  O   UNL     1     -36.181  24.719   0.226  0.00  0.00    -0.296 OA
ATOM     17  C   UNL     1     -36.368  25.094   1.383  0.00  0.00    +0.156 C 
BRANCH  17  18
ATOM     18  C   UNL     1     -35.490  26.126   2.070  0.00  0.00    +0.096 C 
BRANCH  18  19
ATOM     19  C   UNL     1     -34.492  26.782   1.126  0.00  0.00    +0.145 C 
BRANCH  19  20
ATOM     20  O   UNL     1     -35.170  27.408   0.043  0.00  0.00    -0.382 OA
ATOM     21  H   UNL     1     -34.551  27.975  -0.442  0.00  0.00    +0.210 HD
ENDBRANCH  19  20
ENDBRANCH  18  19
ENDBRANCH  17  18
ENDBRANCH   3  17
BRANCH   5  23
ATOM     22  O   UNL     1     -37.951  28.045   1.031  0.00  0.00    -0.250 OA
ATOM     23  C   UNL     1     -38.419  27.030   0.535  0.00  0.00    +0.313 C 
BRANCH  23  24
ATOM     24  O   UNL     1     -38.134  26.591  -0.714  0.00  0.00    -0.480 OA
ATOM     25  H   UNL     1     -37.943  25.684  -0.860  0.00  0.00    +0.295 HD
ENDBRANCH  23  24
ENDBRANCH   5  23
BRANCH   9  26
ATOM     26  C   UNL     1     -35.713  22.794   2.956  0.00  0.00    +0.022 C 
ATOM     27  C   UNL     1     -35.011  21.897   1.946  0.00  0.00    +0.004 C 
BRANCH  26  28
ATOM     28  C   UNL     1     -35.713  22.159   4.349  0.00  0.00    +0.004 C 
BRANCH  28  29
ATOM     29  C   UNL     1     -35.182  23.089   5.446  0.00  0.00    +0.000 C 
BRANCH  29  30
ATOM     30  C   UNL     1     -34.302  24.194   4.857  0.00  0.00    +0.000 C 
ATOM     31  C   UNL     1     -34.472  25.503   5.610  0.00  0.00    +0.000 C 
ENDBRANCH  29  30
ENDBRANCH  28  29
ENDBRANCH  26  28
ENDBRANCH   9  26
TORSDOF 11
ENDMDL
MODEL 6
REMARK VINA RESULT:      -5.2      2.655      6.370
REMARK  Name = 5276374
REMARK  11 active torsions:
REMARK  status: ('A' for Active; 'I' for Inactive)
REMARK    1  A    between atoms: C_3  and  C_17
REMARK    2  A    between atoms: C_5  and  C_23
REMARK    3  A    between atoms: C_9  and  C_26
REMARK    4  A    between atoms: C_12  and  O_14
REMARK    5  A    between atoms: C_17  and  C_18
REMARK    6  A    between atoms: C_18  and  C_19
REMARK    7  A    between atoms: C_19  and  O_20
REMARK    8  A    between atoms: C_23  and  O_24
REMARK    9  A    between atoms: C_26  and  C_28
REMARK   10  A    between atoms: C_28  and  C_29
REMARK   11  A    between atoms: C_29  and  C_30
REMARK                            x       y       z     vdW  Elec       q    Type
REMARK                         _______ _______ _______ _____ _____    ______ ____
ROOT
ATOM      1  O   UNL     1     -33.288  26.521   6.002  0.00  0.00    -0.288 OA
ATOM      2  C   UNL     1     -34.944  25.001   3.188  0.00  0.00    +0.028 C 
ATOM      3  C   UNL     1     -35.278  26.282   2.336  0.00  0.00    +0.070 C 
ATOM      4  C   UNL     1     -34.941  25.346   4.692  0.00  0.00    +0.066 C 
ATOM      5  C   UNL     1     -35.866  23.778   2.926  0.00  0.00    +0.100 C 
ATOM      6  C   UNL     1     -34.603  24.129   5.565  0.00  0.00    +0.008 C 
ATOM      7  C   UNL     1     -35.542  22.952   5.299  0.00  0.00    +0.001 C 
ATOM      8  C   UNL     1     -35.505  22.581   3.817  0.00  0.00    +0.011 C 
ATOM      9  C   UNL     1     -34.477  27.513   2.792  0.00  0.00    -0.002 C 
ATOM     10  C   UNL     1     -33.951  26.466   4.967  0.00  0.00    +0.205 C 
ATOM     11  C   UNL     1     -36.782  26.610   2.321  0.00  0.00    +0.012 C 
ATOM     12  C   UNL     1     -33.845  27.575   3.981  0.00  0.00    +0.161 C 
ATOM     13  C   UNL     1     -35.166  21.752   6.166  0.00  0.00    +0.000 C 
ENDROOT
BRANCH  12  14
ATOM     14  O   UNL     1     -33.093  28.671   4.353  0.00  0.00    -0.503 OA
ATOM     15  H   UNL     1     -33.402  29.537   4.168  0.00  0.00    +0.292 HD
ENDBRANCH  12  14
BRANCH   3  17
ATOM     16  O   UNL     1     -33.695  25.580   0.689  0.00  0.00    -0.296 OA
ATOM     17  C   UNL     1     -34.821  26.021   0.919  0.00  0.00    +0.156 C 
BRANCH  17  18
ATOM     18  C   UNL     1     -35.826  26.333  -0.177  0.00  0.00    +0.096 C 
BRANCH  18  19
ATOM     19  C   UNL     1     -35.385  25.840  -1.547  0.00  0.00    +0.145 C 
BRANCH  19  20
ATOM     20  O   UNL     1     -35.092  24.449  -1.504  0.00  0.00    -0.382 OA
ATOM     21  H   UNL     1     -35.565  24.041  -0.762  0.00  0.00    +0.210 HD
ENDBRANCH  19  20
ENDBRANCH  18  19
ENDBRANCH  17  18
ENDBRANCH   3  17
BRANCH   5  23
ATOM     22  O   UNL     1     -36.716  23.257   0.724  0.00  0.00    -0.250 OA
ATOM     23  C   UNL     1     -35.780  23.299   1.508  0.00  0.00    +0.313 C 
BRANCH  23  24
ATOM     24  O   UNL     1     -34.516  22.912   1.209  0.00  0.00    -0.480 OA
ATOM     25  H   UNL     1     -33.885  22.802   1.894  0.00  0.00    +0.295 HD
ENDBRANCH  23  24
ENDBRANCH   5  23
BRANCH   9  26
ATOM     26  C   UNL     1     -34.415  28.698   1.846  0.00  0.00    +0.022 C 
ATOM     27  C   UNL     1     -32.957  29.013   1.538  0.00  0.00    +0.004 C 
BRANCH  26  28
ATOM     28  C   UNL     1     -35.129  29.919   2.433  0.00  0.00    +0.004 C 
BRANCH  28  29
ATOM     29  C   UNL     1     -36.250  30.460   1.540  0.00  0.00    +0.000 C 
BRANCH  29  30
ATOM     30  C   UNL     1     -36.638  31.885   1.940  0.00  0.00    +0.000 C 
ATOM     31  C   UNL     1     -37.985  32.280   1.357  0.00  0.00    +0.000 C 
ENDBRANCH  29  30
ENDBRANCH  28  29
ENDBRANCH  26  28
ENDBRANCH   9  26
TORSDOF 11
ENDMDL
MODEL 7
REMARK VINA RESULT:      -5.1      2.288      5.597
REMARK  Name = 5276374
REMARK  11 active torsions:
REMARK  status: ('A' for Active; 'I' for Inactive)
REMARK    1  A    between atoms: C_3  and  C_17
REMARK    2  A    between atoms: C_5  and  C_23
REMARK    3  A    between atoms: C_9  and  C_26
REMARK    4  A    between atoms: C_12  and  O_14
REMARK    5  A    between atoms: C_17  and  C_18
REMARK    6  A    between atoms: C_18  and  C_19
REMARK    7  A    between atoms: C_19  and  O_20
REMARK    8  A    between atoms: C_23  and  O_24
REMARK    9  A    between atoms: C_26  and  C_28
REMARK   10  A    between atoms: C_28  and  C_29
REMARK   11  A    between atoms: C_29  and  C_30
REMARK                            x       y       z     vdW  Elec       q    Type
REMARK                         _______ _______ _______ _____ _____    ______ ____
ROOT
ATOM      1  O   UNL     1     -33.227  24.732  -0.567  0.00  0.00    -0.288 OA
ATOM      2  C   UNL     1     -35.160  22.164   1.055  0.00  0.00    +0.028 C 
ATOM      3  C   UNL     1     -35.927  23.025   2.126  0.00  0.00    +0.070 C 
ATOM      4  C   UNL     1     -33.782  22.789   0.754  0.00  0.00    +0.066 C 
ATOM      5  C   UNL     1     -34.993  20.661   1.418  0.00  0.00    +0.100 C 
ATOM      6  C   UNL     1     -33.001  21.990  -0.300  0.00  0.00    +0.008 C 
ATOM      7  C   UNL     1     -32.836  20.523   0.098  0.00  0.00    +0.001 C 
ATOM      8  C   UNL     1     -34.205  19.893   0.349  0.00  0.00    +0.011 C 
ATOM      9  C   UNL     1     -35.871  24.530   1.813  0.00  0.00    -0.002 C 
ATOM     10  C   UNL     1     -33.955  24.224   0.285  0.00  0.00    +0.205 C 
ATOM     11  C   UNL     1     -35.433  22.769   3.561  0.00  0.00    +0.012 C 
ATOM     12  C   UNL     1     -34.990  25.065   0.945  0.00  0.00    +0.161 C 
ATOM     13  C   UNL     1     -32.074  19.752  -0.979  0.00  0.00    +0.000 C 
ENDROOT
BRANCH  12  14
ATOM     14  O   UNL     1     -34.986  26.412   0.643  0.00  0.00    -0.503 OA
ATOM     15  H   UNL     1     -35.795  26.861   0.493  0.00  0.00    +0.292 HD
ENDBRANCH  12  14
BRANCH   3  17
ATOM     16  O   UNL     1     -38.031  22.367   3.050  0.00  0.00    -0.296 OA
ATOM     17  C   UNL     1     -37.393  22.663   2.041  0.00  0.00    +0.156 C 
BRANCH  17  18
ATOM     18  C   UNL     1     -38.008  22.688   0.651  0.00  0.00    +0.096 C 
BRANCH  18  19
ATOM     19  C   UNL     1     -39.457  22.224   0.633  0.00  0.00    +0.145 C 
BRANCH  19  20
ATOM     20  O   UNL     1     -39.568  20.919   1.186  0.00  0.00    -0.382 OA
ATOM     21  H   UNL     1     -40.456  20.568   1.013  0.00  0.00    +0.210 HD
ENDBRANCH  19  20
ENDBRANCH  18  19
ENDBRANCH  17  18
ENDBRANCH   3  17
BRANCH   5  23
ATOM     22  O   UNL     1     -37.028  19.618   0.635  0.00  0.00    -0.250 OA
ATOM     23  C   UNL     1     -36.312  19.965   1.563  0.00  0.00    +0.313 C 
BRANCH  23  24
ATOM     24  O   UNL     1     -36.612  19.772   2.870  0.00  0.00    -0.480 OA
ATOM     25  H   UNL     1     -36.687  18.901   3.210  0.00  0.00    +0.295 HD
ENDBRANCH  23  24
ENDBRANCH   5  23
BRANCH   9  26
ATOM     26  C   UNL     1     -36.860  25.432   2.530  0.00  0.00    +0.022 C 
ATOM     27  C   UNL     1     -37.645  26.230   1.497  0.00  0.00    +0.004 C 
BRANCH  26  28
ATOM     28  C   UNL     1     -36.151  26.360   3.520  0.00  0.00    +0.004 C 
BRANCH  28  29
ATOM     29  C   UNL     1     -36.262  25.900   4.978  0.00  0.00    +0.000 C 
BRANCH  29  30
ATOM     30  C   UNL     1     -34.888  25.851   5.649  0.00  0.00    +0.000 C 
ATOM     31  C   UNL     1     -33.766  25.998   4.635  0.00  0.00    +0.000 C 
ENDBRANCH  29  30
ENDBRANCH  28  29
ENDBRANCH  26  28
ENDBRANCH   9  26
TORSDOF 11
ENDMDL
MODEL 8
REMARK VINA RESULT:      -5.1      1.974      5.276
REMARK  Name = 5276374
REMARK  11 active torsions:
REMARK  status: ('A' for Active; 'I' for Inactive)
REMARK    1  A    between atoms: C_3  and  C_17
REMARK    2  A    between atoms: C_5  and  C_23
REMARK    3  A    between atoms: C_9  and  C_26
REMARK    4  A    between atoms: C_12  and  O_14
REMARK    5  A    between atoms: C_17  and  C_18
REMARK    6  A    between atoms: C_18  and  C_19
REMARK    7  A    between atoms: C_19  and  O_20
REMARK    8  A    between atoms: C_23  and  O_24
REMARK    9  A    between atoms: C_26  and  C_28
REMARK   10  A    between atoms: C_28  and  C_29
REMARK   11  A    between atoms: C_29  and  C_30
REMARK                            x       y       z     vdW  Elec       q    Type
REMARK                         _______ _______ _______ _____ _____    ______ ____
ROOT
ATOM      1  O   UNL     1     -35.297  20.603   3.418  0.00  0.00    -0.288 OA
ATOM      2  C   UNL     1     -34.292  23.305   1.260  0.00  0.00    +0.028 C 
ATOM      3  C   UNL     1     -35.342  24.401   1.676  0.00  0.00    +0.070 C 
ATOM      4  C   UNL     1     -34.899  21.896   1.418  0.00  0.00    +0.066 C 
ATOM      5  C   UNL     1     -33.699  23.471  -0.167  0.00  0.00    +0.100 C 
ATOM      6  C   UNL     1     -33.903  20.790   1.038  0.00  0.00    +0.008 C 
ATOM      7  C   UNL     1     -33.357  20.971  -0.378  0.00  0.00    +0.001 C 
ATOM      8  C   UNL     1     -32.713  22.349  -0.518  0.00  0.00    +0.011 C 
ATOM      9  C   UNL     1     -36.045  24.062   3.002  0.00  0.00    -0.002 C 
ATOM     10  C   UNL     1     -35.372  21.691   2.847  0.00  0.00    +0.205 C 
ATOM     11  C   UNL     1     -36.390  24.668   0.580  0.00  0.00    +0.012 C 
ATOM     12  C   UNL     1     -36.025  22.830   3.547  0.00  0.00    +0.161 C 
ATOM     13  C   UNL     1     -32.355  19.868  -0.718  0.00  0.00    +0.000 C 
ENDROOT
BRANCH  12  14
ATOM     14  O   UNL     1     -36.623  22.558   4.761  0.00  0.00    -0.503 OA
ATOM     15  H   UNL     1     -37.530  22.322   4.795  0.00  0.00    +0.292 HD
ENDBRANCH  12  14
BRANCH   3  17
ATOM     16  O   UNL     1     -33.558  25.674   2.629  0.00  0.00    -0.296 OA
ATOM     17  C   UNL     1     -34.585  25.680   1.951  0.00  0.00    +0.156 C 
BRANCH  17  18
ATOM     18  C   UNL     1     -35.168  26.946   1.344  0.00  0.00    +0.096 C 
BRANCH  18  19
ATOM     19  C   UNL     1     -34.710  28.212   2.054  0.00  0.00    +0.145 C 
BRANCH  19  20
ATOM     20  O   UNL     1     -35.180  28.227   3.396  0.00  0.00    -0.382 OA
ATOM     21  H   UNL     1     -35.555  27.360   3.618  0.00  0.00    +0.210 HD
ENDBRANCH  19  20
ENDBRANCH  18  19
ENDBRANCH  17  18
ENDBRANCH   3  17
BRANCH   5  23
ATOM     22  O   UNL     1     -33.283  25.678  -1.064  0.00  0.00    -0.250 OA
ATOM     23  C   UNL     1     -32.954  24.763  -0.323  0.00  0.00    +0.313 C 
BRANCH  23  24
ATOM     24  O   UNL     1     -31.855  24.781   0.469  0.00  0.00    -0.480 OA
ATOM     25  H   UNL     1     -31.706  24.084   1.079  0.00  0.00    +0.295 HD
ENDBRANCH  23  24
ENDBRANCH   5  23
BRANCH   9  26
ATOM     26  C   UNL     1     -36.791  25.182   3.705  0.00  0.00    +0.022 C 
ATOM     27  C   UNL     1     -36.233  25.346   5.112  0.00  0.00    +0.004 C 
BRANCH  26  28
ATOM     28  C   UNL     1     -38.298  24.912   3.739  0.00  0.00    +0.004 C 
BRANCH  28  29
ATOM     29  C   UNL     1     -39.094  25.759   2.740  0.00  0.00    +0.000 C 
BRANCH  29  30
ATOM     30  C   UNL     1     -39.932  24.877   1.811  0.00  0.00    +0.000 C 
ATOM     31  C   UNL     1     -39.746  23.402   2.125  0.00  0.00    +0.000 C 
ENDBRANCH  29  30
ENDBRANCH  28  29
ENDBRANCH  26  28
ENDBRANCH   9  26
TORSDOF 11
ENDMDL
MODEL 9
REMARK VINA RESULT:      -5.1      8.881     11.186
REMARK  Name = 5276374
REMARK  11 active torsions:
REMARK  status: ('A' for Active; 'I' for Inactive)
REMARK    1  A    between atoms: C_3  and  C_17
REMARK    2  A    between atoms: C_5  and  C_23
REMARK    3  A    between atoms: C_9  and  C_26
REMARK    4  A    between atoms: C_12  and  O_14
REMARK    5  A    between atoms: C_17  and  C_18
REMARK    6  A    between atoms: C_18  and  C_19
REMARK    7  A    between atoms: C_19  and  O_20
REMARK    8  A    between atoms: C_23  and  O_24
REMARK    9  A    between atoms: C_26  and  C_28
REMARK   10  A    between atoms: C_28  and  C_29
REMARK   11  A    between atoms: C_29  and  C_30
REMARK                            x       y       z     vdW  Elec       q    Type
REMARK                         _______ _______ _______ _____ _____    ______ ____
ROOT
ATOM      1  O   UNL     1     -42.889  29.842   0.087  0.00  0.00    -0.288 OA
ATOM      2  C   UNL     1     -44.195  31.072   3.210  0.00  0.00    +0.028 C 
ATOM      3  C   UNL     1     -44.572  29.713   3.910  0.00  0.00    +0.070 C 
ATOM      4  C   UNL     1     -44.334  30.941   1.679  0.00  0.00    +0.066 C 
ATOM      5  C   UNL     1     -44.988  32.311   3.711  0.00  0.00    +0.100 C 
ATOM      6  C   UNL     1     -43.961  32.240   0.950  0.00  0.00    +0.008 C 
ATOM      7  C   UNL     1     -44.774  33.433   1.450  0.00  0.00    +0.001 C 
ATOM      8  C   UNL     1     -44.596  33.591   2.959  0.00  0.00    +0.011 C 
ATOM      9  C   UNL     1     -43.914  28.502   3.227  0.00  0.00    -0.002 C 
ATOM     10  C   UNL     1     -43.465  29.800   1.174  0.00  0.00    +0.205 C 
ATOM     11  C   UNL     1     -46.093  29.498   4.010  0.00  0.00    +0.012 C 
ATOM     12  C   UNL     1     -43.381  28.560   1.991  0.00  0.00    +0.161 C 
ATOM     13  C   UNL     1     -44.364  34.712   0.721  0.00  0.00    +0.000 C 
ENDROOT
BRANCH  12  14
ATOM     14  O   UNL     1     -42.753  27.474   1.414  0.00  0.00    -0.503 OA
ATOM     15  H   UNL     1     -41.885  27.560   1.073  0.00  0.00    +0.292 HD
ENDBRANCH  12  14
BRANCH   3  17
ATOM     16  O   UNL     1     -42.792  29.962   5.486  0.00  0.00    -0.296 OA
ATOM     17  C   UNL     1     -43.989  29.740   5.304  0.00  0.00    +0.156 C 
BRANCH  17  18
ATOM     18  C   UNL     1     -44.963  29.479   6.442  0.00  0.00    +0.096 C 
BRANCH  18  19
ATOM     19  C   UNL     1     -44.356  29.730   7.815  0.00  0.00    +0.145 C 
BRANCH  19  20
ATOM     20  O   UNL     1     -43.701  30.992   7.845  0.00  0.00    -0.382 OA
ATOM     21  H   UNL     1     -42.836  30.918   7.413  0.00  0.00    +0.210 HD
ENDBRANCH  19  20
ENDBRANCH  18  19
ENDBRANCH  17  18
ENDBRANCH   3  17
BRANCH   5  23
ATOM     22  O   UNL     1     -45.624  32.580   6.028  0.00  0.00    -0.250 OA
ATOM     23  C   UNL     1     -44.756  32.580   5.167  0.00  0.00    +0.313 C 
BRANCH  23  24
ATOM     24  O   UNL     1     -43.446  32.829   5.406  0.00  0.00    -0.480 OA
ATOM     25  H   UNL     1     -43.188  33.267   6.194  0.00  0.00    +0.295 HD
ENDBRANCH  23  24
ENDBRANCH   5  23
BRANCH   9  26
ATOM     26  C   UNL     1     -43.881  27.196   3.998  0.00  0.00    +0.022 C 
ATOM     27  C   UNL     1     -42.438  26.727   4.123  0.00  0.00    +0.004 C 
BRANCH  26  28
ATOM     28  C   UNL     1     -44.750  26.129   3.325  0.00  0.00    +0.004 C 
BRANCH  28  29
ATOM     29  C   UNL     1     -45.981  25.733   4.148  0.00  0.00    +0.000 C 
BRANCH  29  30
ATOM     30  C   UNL     1     -45.865  26.227   5.592  0.00  0.00    +0.000 C 
ATOM     31  C   UNL     1     -47.174  26.061   6.345  0.00  0.00    +0.000 C 
ENDBRANCH  29  30
ENDBRANCH  28  29
ENDBRANCH  26  28
ENDBRANCH   9  26
TORSDOF 11
ENDMDL
