MODEL 1
REMARK VINA RESULT:      -6.5      0.000      0.000
REMARK  Name = 5353563
REMARK  4 active torsions:
REMARK  status: ('A' for Active; 'I' for Inactive)
REMARK    1  A    between atoms: C_2  and  C_6
REMARK    2  A    between atoms: C_3  and  C_16
REMARK    3  A    between atoms: C_9  and  N_14
REMARK    4  A    between atoms: N_15  and  N_19
REMARK                            x       y       z     vdW  Elec       q    Type
REMARK                         _______ _______ _______ _____ _____    ______ ____
ROOT
ATOM      1  O   UNL     1     -36.081  22.548   2.020  0.00  0.00    -0.452 OA
ATOM      2  C   UNL     1     -34.994  22.658   1.216  0.00  0.00    +0.145 C 
ATOM      3  C   UNL     1     -36.675  23.770   2.029  0.00  0.00    +0.166 C 
ATOM      4  C   UNL     1     -34.883  23.927   0.711  0.00  0.00    +0.041 C 
ATOM      5  C   UNL     1     -35.977  24.653   1.240  0.00  0.00    +0.042 C 
ENDROOT
BRANCH   2   6
ATOM      6  C   UNL     1     -34.215  21.453   1.070  0.00  0.00    +0.035 C 
ATOM      7  C   UNL     1     -34.584  20.297   1.757  0.00  0.00    +0.005 C 
ATOM      8  C   UNL     1     -33.093  21.444   0.242  0.00  0.00    +0.005 C 
ATOM      9  C   UNL     1     -32.709  19.122   0.787  0.00  0.00    +0.143 C 
ATOM     10  C   UNL     1     -33.832  19.131   1.615  0.00  0.00    +0.024 C 
ATOM     11  C   UNL     1     -32.339  20.278   0.100  0.00  0.00    +0.024 C 
BRANCH   9  14
ATOM     12  O   UNL     1     -32.059  17.260  -0.406  0.00  0.00    -0.126 OA
ATOM     13  O   UNL     1     -31.167  17.596   1.571  0.00  0.00    -0.126 OA
ATOM     14  N   UNL     1     -31.942  17.935   0.644  0.00  0.00    +0.058 N 
ENDBRANCH   9  14
ENDBRANCH   2   6
BRANCH   3  16
ATOM     15  N   UNL     1     -37.865  24.381   4.049  0.00  0.00    -0.161 NA
ATOM     16  C   UNL     1     -37.856  23.930   2.808  0.00  0.00    +0.156 C 
BRANCH  15  19
ATOM     17  O   UNL     1     -34.030  26.818   5.265  0.00  0.00    -0.212 OA
ATOM     18  O   UNL     1     -36.069  22.740   5.403  0.00  0.00    -0.191 OA
ATOM     19  N   UNL     1     -36.658  24.694   4.560  0.00  0.00    -0.108 N 
ATOM     20  N   UNL     1     -34.657  24.596   5.579  0.00  0.00    -0.247 NA
ATOM     21  C   UNL     1     -36.169  26.047   4.421  0.00  0.00    +0.264 C 
ATOM     22  C   UNL     1     -34.827  25.900   5.128  0.00  0.00    +0.216 C 
ATOM     23  C   UNL     1     -35.733  23.923   5.236  0.00  0.00    +0.299 C 
ENDBRANCH  15  19
ENDBRANCH   3  16
TORSDOF 4
ENDMDL
MODEL 2
REMARK VINA RESULT:      -6.5      0.033      1.008
REMARK  Name = 5353563
REMARK  4 active torsions:
REMARK  status: ('A' for Active; 'I' for Inactive)
REMARK    1  A    between atoms: C_2  and  C_6
REMARK    2  A    between atoms: C_3  and  C_16
REMARK    3  A    between atoms: C_9  and  N_14
REMARK    4  A    between atoms: N_15  and  N_19
REMARK                            x       y       z     vdW  Elec       q    Type
REMARK                         _______ _______ _______ _____ _____    ______ ____
ROOT
ATOM      1  O   UNL     1     -36.103  22.548   2.006  0.00  0.00    -0.452 OA
ATOM      2  C   UNL     1     -35.016  22.653   1.200  0.00  0.00    +0.145 C 
ATOM      3  C   UNL     1     -36.698  23.770   2.005  0.00  0.00    +0.166 C 
ATOM      4  C   UNL     1     -34.907  23.918   0.684  0.00  0.00    +0.041 C 
ATOM      5  C   UNL     1     -36.001  24.647   1.207  0.00  0.00    +0.042 C 
ENDROOT
BRANCH   2   6
ATOM      6  C   UNL     1     -34.237  21.447   1.063  0.00  0.00    +0.035 C 
ATOM      7  C   UNL     1     -33.104  21.438   0.250  0.00  0.00    +0.005 C 
ATOM      8  C   UNL     1     -34.616  20.290   1.744  0.00  0.00    +0.005 C 
ATOM      9  C   UNL     1     -32.729  19.115   0.799  0.00  0.00    +0.143 C 
ATOM     10  C   UNL     1     -32.349  20.272   0.118  0.00  0.00    +0.024 C 
ATOM     11  C   UNL     1     -33.862  19.124   1.613  0.00  0.00    +0.024 C 
BRANCH   9  14
ATOM     12  O   UNL     1     -32.084  17.239  -0.377  0.00  0.00    -0.126 OA
ATOM     13  O   UNL     1     -31.178  17.601   1.590  0.00  0.00    -0.126 OA
ATOM     14  N   UNL     1     -31.961  17.928   0.664  0.00  0.00    +0.058 N 
ENDBRANCH   9  14
ENDBRANCH   2   6
BRANCH   3  16
ATOM     15  N   UNL     1     -37.885  24.389   4.024  0.00  0.00    -0.161 NA
ATOM     16  C   UNL     1     -37.878  23.936   2.784  0.00  0.00    +0.156 C 
BRANCH  15  19
ATOM     17  O   UNL     1     -34.035  26.813   5.221  0.00  0.00    -0.212 OA
ATOM     18  O   UNL     1     -36.103  22.751   5.400  0.00  0.00    -0.191 OA
ATOM     19  N   UNL     1     -36.676  24.700   4.534  0.00  0.00    -0.108 N 
ATOM     20  N   UNL     1     -34.679  24.599   5.558  0.00  0.00    -0.247 NA
ATOM     21  C   UNL     1     -36.177  26.047   4.381  0.00  0.00    +0.264 C 
ATOM     22  C   UNL     1     -34.838  25.899   5.092  0.00  0.00    +0.216 C 
ATOM     23  C   UNL     1     -35.759  23.930   5.220  0.00  0.00    +0.299 C 
ENDBRANCH  15  19
ENDBRANCH   3  16
TORSDOF 4
ENDMDL
MODEL 3
REMARK VINA RESULT:      -6.3      4.307      7.461
REMARK  Name = 5353563
REMARK  4 active torsions:
REMARK  status: ('A' for Active; 'I' for Inactive)
REMARK    1  A    between atoms: C_2  and  C_6
REMARK    2  A    between atoms: C_3  and  C_16
REMARK    3  A    between atoms: C_9  and  N_14
REMARK    4  A    between atoms: N_15  and  N_19
REMARK                            x       y       z     vdW  Elec       q    Type
REMARK                         _______ _______ _______ _____ _____    ______ ____
ROOT
ATOM      1  O   UNL     1     -32.937  28.006   4.719  0.00  0.00    -0.452 OA
ATOM      2  C   UNL     1     -33.283  27.013   5.576  0.00  0.00    +0.145 C 
ATOM      3  C   UNL     1     -32.096  28.826   5.403  0.00  0.00    +0.166 C 
ATOM      4  C   UNL     1     -32.679  27.183   6.794  0.00  0.00    +0.041 C 
ATOM      5  C   UNL     1     -31.905  28.363   6.684  0.00  0.00    +0.042 C 
ENDROOT
BRANCH   2   6
ATOM      6  C   UNL     1     -34.183  26.024   5.035  0.00  0.00    +0.035 C 
ATOM      7  C   UNL     1     -33.777  25.220   3.971  0.00  0.00    +0.005 C 
ATOM      8  C   UNL     1     -35.458  25.871   5.579  0.00  0.00    +0.005 C 
ATOM      9  C   UNL     1     -35.923  24.110   3.991  0.00  0.00    +0.143 C 
ATOM     10  C   UNL     1     -34.647  24.263   3.448  0.00  0.00    +0.024 C 
ATOM     11  C   UNL     1     -36.329  24.914   5.057  0.00  0.00    +0.024 C 
BRANCH   9  14
ATOM     12  O   UNL     1     -36.353  22.016   3.128  0.00  0.00    -0.126 OA
ATOM     13  O   UNL     1     -38.025  23.422   3.336  0.00  0.00    -0.126 OA
ATOM     14  N   UNL     1     -36.809  23.136   3.459  0.00  0.00    +0.058 N 
ENDBRANCH   9  14
ENDBRANCH   2   6
BRANCH   3  16
ATOM     15  N   UNL     1     -30.394  29.999   4.140  0.00  0.00    -0.161 NA
ATOM     16  C   UNL     1     -31.577  29.965   4.724  0.00  0.00    +0.156 C 
BRANCH  15  19
ATOM     17  O   UNL     1     -28.635  25.750   3.144  0.00  0.00    -0.212 OA
ATOM     18  O   UNL     1     -28.560  29.233   6.091  0.00  0.00    -0.191 OA
ATOM     19  N   UNL     1     -29.675  28.860   4.221  0.00  0.00    -0.108 N 
ATOM     20  N   UNL     1     -28.262  27.247   4.892  0.00  0.00    -0.247 NA
ATOM     21  C   UNL     1     -29.829  27.861   3.190  0.00  0.00    +0.264 C 
ATOM     22  C   UNL     1     -28.852  26.814   3.709  0.00  0.00    +0.216 C 
ATOM     23  C   UNL     1     -28.759  28.434   5.161  0.00  0.00    +0.299 C 
ENDBRANCH  15  19
ENDBRANCH   3  16
TORSDOF 4
ENDMDL
MODEL 4
REMARK VINA RESULT:      -6.1      1.483      2.027
REMARK  Name = 5353563
REMARK  4 active torsions:
REMARK  status: ('A' for Active; 'I' for Inactive)
REMARK    1  A    between atoms: C_2  and  C_6
REMARK    2  A    between atoms: C_3  and  C_16
REMARK    3  A    between atoms: C_9  and  N_14
REMARK    4  A    between atoms: N_15  and  N_19
REMARK                            x       y       z     vdW  Elec       q    Type
REMARK                         _______ _______ _______ _____ _____    ______ ____
ROOT
ATOM      1  O   UNL     1     -35.654  21.521   1.808  0.00  0.00    -0.452 OA
ATOM      2  C   UNL     1     -34.740  21.646   0.814  0.00  0.00    +0.145 C 
ATOM      3  C   UNL     1     -36.519  22.560   1.664  0.00  0.00    +0.166 C 
ATOM      4  C   UNL     1     -35.003  22.744   0.038  0.00  0.00    +0.041 C 
ATOM      5  C   UNL     1     -36.162  23.340   0.590  0.00  0.00    +0.042 C 
ENDROOT
BRANCH   2   6
ATOM      6  C   UNL     1     -33.719  20.627   0.790  0.00  0.00    +0.035 C 
ATOM      7  C   UNL     1     -32.521  20.856   0.115  0.00  0.00    +0.005 C 
ATOM      8  C   UNL     1     -33.931  19.413   1.443  0.00  0.00    +0.005 C 
ATOM      9  C   UNL     1     -31.745  18.656   0.744  0.00  0.00    +0.143 C 
ATOM     10  C   UNL     1     -31.534  19.871   0.091  0.00  0.00    +0.024 C 
ATOM     11  C   UNL     1     -32.944  18.426   1.420  0.00  0.00    +0.024 C 
BRANCH   9  14
ATOM     12  O   UNL     1     -31.085  16.447   0.735  0.00  0.00    -0.126 OA
ATOM     13  O   UNL     1     -29.535  18.000   0.681  0.00  0.00    -0.126 OA
ATOM     14  N   UNL     1     -30.741  17.653   0.719  0.00  0.00    +0.058 N 
ENDBRANCH   9  14
ENDBRANCH   2   6
BRANCH   3  16
ATOM     15  N   UNL     1     -37.617  23.525   3.595  0.00  0.00    -0.161 NA
ATOM     16  C   UNL     1     -37.592  22.666   2.593  0.00  0.00    +0.156 C 
BRANCH  15  19
ATOM     17  O   UNL     1     -33.293  25.082   4.602  0.00  0.00    -0.212 OA
ATOM     18  O   UNL     1     -37.322  26.163   2.753  0.00  0.00    -0.191 OA
ATOM     19  N   UNL     1     -36.538  24.327   3.698  0.00  0.00    -0.108 N 
ATOM     20  N   UNL     1     -35.135  26.078   3.577  0.00  0.00    -0.247 NA
ATOM     21  C   UNL     1     -35.340  23.811   4.318  0.00  0.00    +0.264 C 
ATOM     22  C   UNL     1     -34.448  25.041   4.199  0.00  0.00    +0.216 C 
ATOM     23  C   UNL     1     -36.341  25.634   3.299  0.00  0.00    +0.299 C 
ENDBRANCH  15  19
ENDBRANCH   3  16
TORSDOF 4
ENDMDL
MODEL 5
REMARK VINA RESULT:      -6.1      4.480      7.472
REMARK  Name = 5353563
REMARK  4 active torsions:
REMARK  status: ('A' for Active; 'I' for Inactive)
REMARK    1  A    between atoms: C_2  and  C_6
REMARK    2  A    between atoms: C_3  and  C_16
REMARK    3  A    between atoms: C_9  and  N_14
REMARK    4  A    between atoms: N_15  and  N_19
REMARK                            x       y       z     vdW  Elec       q    Type
REMARK                         _______ _______ _______ _____ _____    ______ ____
ROOT
ATOM      1  O   UNL     1     -32.775  27.890   4.849  0.00  0.00    -0.452 OA
ATOM      2  C   UNL     1     -33.217  26.948   5.720  0.00  0.00    +0.145 C 
ATOM      3  C   UNL     1     -32.039  28.769   5.578  0.00  0.00    +0.166 C 
ATOM      4  C   UNL     1     -32.777  27.209   6.992  0.00  0.00    +0.041 C 
ATOM      5  C   UNL     1     -32.009  28.394   6.901  0.00  0.00    +0.042 C 
ENDROOT
BRANCH   2   6
ATOM      6  C   UNL     1     -34.030  25.908   5.137  0.00  0.00    +0.035 C 
ATOM      7  C   UNL     1     -33.742  25.434   3.858  0.00  0.00    +0.005 C 
ATOM      8  C   UNL     1     -35.101  25.376   5.854  0.00  0.00    +0.005 C 
ATOM      9  C   UNL     1     -35.599  23.896   4.011  0.00  0.00    +0.143 C 
ATOM     10  C   UNL     1     -34.527  24.428   3.294  0.00  0.00    +0.024 C 
ATOM     11  C   UNL     1     -35.887  24.370   5.291  0.00  0.00    +0.024 C 
BRANCH   9  14
ATOM     12  O   UNL     1     -35.840  21.838   3.000  0.00  0.00    -0.126 OA
ATOM     13  O   UNL     1     -37.643  23.029   3.385  0.00  0.00    -0.126 OA
ATOM     14  N   UNL     1     -36.398  22.872   3.437  0.00  0.00    +0.058 N 
ENDBRANCH   9  14
ENDBRANCH   2   6
BRANCH   3  16
ATOM     15  N   UNL     1     -30.148  30.035   4.748  0.00  0.00    -0.161 NA
ATOM     16  C   UNL     1     -31.449  29.870   4.896  0.00  0.00    +0.156 C 
BRANCH  15  19
ATOM     17  O   UNL     1     -27.385  27.699   7.756  0.00  0.00    -0.212 OA
ATOM     18  O   UNL     1     -29.461  27.550   3.696  0.00  0.00    -0.191 OA
ATOM     19  N   UNL     1     -29.377  29.073   5.294  0.00  0.00    -0.108 N 
ATOM     20  N   UNL     1     -28.234  27.171   5.651  0.00  0.00    -0.247 NA
ATOM     21  C   UNL     1     -28.798  29.295   6.598  0.00  0.00    +0.264 C 
ATOM     22  C   UNL     1     -28.049  27.979   6.767  0.00  0.00    +0.216 C 
ATOM     23  C   UNL     1     -29.007  27.831   4.817  0.00  0.00    +0.299 C 
ENDBRANCH  15  19
ENDBRANCH   3  16
TORSDOF 4
ENDMDL
MODEL 6
REMARK VINA RESULT:      -6.0      2.830      3.937
REMARK  Name = 5353563
REMARK  4 active torsions:
REMARK  status: ('A' for Active; 'I' for Inactive)
REMARK    1  A    between atoms: C_2  and  C_6
REMARK    2  A    between atoms: C_3  and  C_16
REMARK    3  A    between atoms: C_9  and  N_14
REMARK    4  A    between atoms: N_15  and  N_19
REMARK                            x       y       z     vdW  Elec       q    Type
REMARK                         _______ _______ _______ _____ _____    ______ ____
ROOT
ATOM      1  O   UNL     1     -36.324  23.704   3.928  0.00  0.00    -0.452 OA
ATOM      2  C   UNL     1     -35.811  22.451   4.004  0.00  0.00    +0.145 C 
ATOM      3  C   UNL     1     -35.936  24.346   5.061  0.00  0.00    +0.166 C 
ATOM      4  C   UNL     1     -35.102  22.280   5.164  0.00  0.00    +0.041 C 
ATOM      5  C   UNL     1     -35.182  23.513   5.854  0.00  0.00    +0.042 C 
ENDROOT
BRANCH   2   6
ATOM      6  C   UNL     1     -36.112  21.596   2.882  0.00  0.00    +0.035 C 
ATOM      7  C   UNL     1     -37.306  21.761   2.181  0.00  0.00    +0.005 C 
ATOM      8  C   UNL     1     -35.209  20.605   2.498  0.00  0.00    +0.005 C 
ATOM      9  C   UNL     1     -36.694  19.943   0.711  0.00  0.00    +0.143 C 
ATOM     10  C   UNL     1     -37.597  20.935   1.095  0.00  0.00    +0.024 C 
ATOM     11  C   UNL     1     -35.500  19.778   1.412  0.00  0.00    +0.024 C 
BRANCH   9  14
ATOM     12  O   UNL     1     -36.113  18.917  -1.270  0.00  0.00    -0.126 OA
ATOM     13  O   UNL     1     -38.124  18.564  -0.462  0.00  0.00    -0.126 OA
ATOM     14  N   UNL     1     -36.991  19.102  -0.393  0.00  0.00    +0.058 N 
ENDBRANCH   9  14
ENDBRANCH   2   6
BRANCH   3  16
ATOM     15  N   UNL     1     -35.718  26.732   4.707  0.00  0.00    -0.161 NA
ATOM     16  C   UNL     1     -36.347  25.698   5.234  0.00  0.00    +0.156 C 
BRANCH  15  19
ATOM     17  O   UNL     1     -32.962  25.671   1.045  0.00  0.00    -0.212 OA
ATOM     18  O   UNL     1     -33.075  26.456   5.538  0.00  0.00    -0.191 OA
ATOM     19  N   UNL     1     -34.630  26.434   3.969  0.00  0.00    -0.108 N 
ATOM     20  N   UNL     1     -32.527  25.988   3.313  0.00  0.00    -0.247 NA
ATOM     21  C   UNL     1     -34.785  26.216   2.550  0.00  0.00    +0.264 C 
ATOM     22  C   UNL     1     -33.335  25.924   2.183  0.00  0.00    +0.216 C 
ATOM     23  C   UNL     1     -33.305  26.286   4.330  0.00  0.00    +0.299 C 
ENDBRANCH  15  19
ENDBRANCH   3  16
TORSDOF 4
ENDMDL
MODEL 7
REMARK VINA RESULT:      -6.0      3.849      6.140
REMARK  Name = 5353563
REMARK  4 active torsions:
REMARK  status: ('A' for Active; 'I' for Inactive)
REMARK    1  A    between atoms: C_2  and  C_6
REMARK    2  A    between atoms: C_3  and  C_16
REMARK    3  A    between atoms: C_9  and  N_14
REMARK    4  A    between atoms: N_15  and  N_19
REMARK                            x       y       z     vdW  Elec       q    Type
REMARK                         _______ _______ _______ _____ _____    ______ ____
ROOT
ATOM      1  O   UNL     1     -34.466  27.903   3.658  0.00  0.00    -0.452 OA
ATOM      2  C   UNL     1     -34.593  26.819   2.852  0.00  0.00    +0.145 C 
ATOM      3  C   UNL     1     -34.270  28.969   2.839  0.00  0.00    +0.166 C 
ATOM      4  C   UNL     1     -34.482  27.173   1.532  0.00  0.00    +0.041 C 
ATOM      5  C   UNL     1     -34.272  28.573   1.522  0.00  0.00    +0.042 C 
ENDROOT
BRANCH   2   6
ATOM      6  C   UNL     1     -34.811  25.568   3.536  0.00  0.00    +0.035 C 
ATOM      7  C   UNL     1     -34.763  25.518   4.928  0.00  0.00    +0.005 C 
ATOM      8  C   UNL     1     -35.070  24.410   2.804  0.00  0.00    +0.005 C 
ATOM      9  C   UNL     1     -35.234  23.149   4.859  0.00  0.00    +0.143 C 
ATOM     10  C   UNL     1     -34.975  24.309   5.590  0.00  0.00    +0.024 C 
ATOM     11  C   UNL     1     -35.281  23.199   3.466  0.00  0.00    +0.024 C 
BRANCH   9  14
ATOM     12  O   UNL     1     -36.044  21.924   6.636  0.00  0.00    -0.126 OA
ATOM     13  O   UNL     1     -35.037  20.855   5.004  0.00  0.00    -0.126 OA
ATOM     14  N   UNL     1     -35.448  21.918   5.532  0.00  0.00    +0.058 N 
ENDBRANCH   9  14
ENDBRANCH   2   6
BRANCH   3  16
ATOM     15  N   UNL     1     -33.019  30.624   4.088  0.00  0.00    -0.161 NA
ATOM     16  C   UNL     1     -34.106  30.249   3.439  0.00  0.00    +0.156 C 
BRANCH  15  19
ATOM     17  O   UNL     1     -29.300  27.974   2.957  0.00  0.00    -0.212 OA
ATOM     18  O   UNL     1     -32.437  28.848   6.152  0.00  0.00    -0.191 OA
ATOM     19  N   UNL     1     -32.037  29.702   4.155  0.00  0.00    -0.108 N 
ATOM     20  N   UNL     1     -30.669  28.057   4.841  0.00  0.00    -0.247 NA
ATOM     21  C   UNL     1     -31.129  29.565   3.040  0.00  0.00    +0.264 C 
ATOM     22  C   UNL     1     -30.245  28.446   3.575  0.00  0.00    +0.216 C 
ATOM     23  C   UNL     1     -31.707  28.803   5.149  0.00  0.00    +0.299 C 
ENDBRANCH  15  19
ENDBRANCH   3  16
TORSDOF 4
ENDMDL
MODEL 8
REMARK VINA RESULT:      -5.9      1.269      2.301
REMARK  Name = 5353563
REMARK  4 active torsions:
REMARK  status: ('A' for Active; 'I' for Inactive)
REMARK    1  A    between atoms: C_2  and  C_6
REMARK    2  A    between atoms: C_3  and  C_16
REMARK    3  A    between atoms: C_9  and  N_14
REMARK    4  A    between atoms: N_15  and  N_19
REMARK                            x       y       z     vdW  Elec       q    Type
REMARK                         _______ _______ _______ _____ _____    ______ ____
ROOT
ATOM      1  O   UNL     1     -35.099  23.285   1.321  0.00  0.00    -0.452 OA
ATOM      2  C   UNL     1     -35.461  21.998   1.092  0.00  0.00    +0.145 C 
ATOM      3  C   UNL     1     -36.253  23.995   1.415  0.00  0.00    +0.166 C 
ATOM      4  C   UNL     1     -36.824  21.872   1.039  0.00  0.00    +0.041 C 
ATOM      5  C   UNL     1     -37.342  23.172   1.250  0.00  0.00    +0.042 C 
ENDROOT
BRANCH   2   6
ATOM      6  C   UNL     1     -34.366  21.068   0.959  0.00  0.00    +0.035 C 
ATOM      7  C   UNL     1     -33.254  21.406   0.189  0.00  0.00    +0.005 C 
ATOM      8  C   UNL     1     -34.419  19.831   1.602  0.00  0.00    +0.005 C 
ATOM      9  C   UNL     1     -32.248  19.270   0.702  0.00  0.00    +0.143 C 
ATOM     10  C   UNL     1     -32.195  20.508   0.060  0.00  0.00    +0.024 C 
ATOM     11  C   UNL     1     -33.360  18.932   1.474  0.00  0.00    +0.024 C 
BRANCH   9  14
ATOM     12  O   UNL     1     -30.940  17.550   1.505  0.00  0.00    -0.126 OA
ATOM     13  O   UNL     1     -30.479  18.376  -0.476  0.00  0.00    -0.126 OA
ATOM     14  N   UNL     1     -31.170  18.355   0.571  0.00  0.00    +0.058 N 
ENDBRANCH   9  14
ENDBRANCH   2   6
BRANCH   3  16
ATOM     15  N   UNL     1     -35.747  25.918   2.798  0.00  0.00    -0.161 NA
ATOM     16  C   UNL     1     -36.156  25.395   1.657  0.00  0.00    +0.156 C 
BRANCH  15  19
ATOM     17  O   UNL     1     -36.075  22.645   6.162  0.00  0.00    -0.212 OA
ATOM     18  O   UNL     1     -33.215  25.259   3.753  0.00  0.00    -0.191 OA
ATOM     19  N   UNL     1     -35.412  25.030   3.756  0.00  0.00    -0.108 N 
ATOM     20  N   UNL     1     -34.262  23.754   5.205  0.00  0.00    -0.247 NA
ATOM     21  C   UNL     1     -36.459  24.286   4.417  0.00  0.00    +0.264 C 
ATOM     22  C   UNL     1     -35.610  23.455   5.371  0.00  0.00    +0.216 C 
ATOM     23  C   UNL     1     -34.180  24.668   4.264  0.00  0.00    +0.299 C 
ENDBRANCH  15  19
ENDBRANCH   3  16
TORSDOF 4
ENDMDL
MODEL 9
REMARK VINA RESULT:      -5.9      3.991      7.504
REMARK  Name = 5353563
REMARK  4 active torsions:
REMARK  status: ('A' for Active; 'I' for Inactive)
REMARK    1  A    between atoms: C_2  and  C_6
REMARK    2  A    between atoms: C_3  and  C_16
REMARK    3  A    between atoms: C_9  and  N_14
REMARK    4  A    between atoms: N_15  and  N_19
REMARK                            x       y       z     vdW  Elec       q    Type
REMARK                         _______ _______ _______ _____ _____    ______ ____
ROOT
ATOM      1  O   UNL     1     -34.213  24.917   3.977  0.00  0.00    -0.452 OA
ATOM      2  C   UNL     1     -34.299  25.547   5.175  0.00  0.00    +0.145 C 
ATOM      3  C   UNL     1     -35.094  23.884   4.024  0.00  0.00    +0.166 C 
ATOM      4  C   UNL     1     -35.219  24.937   5.987  0.00  0.00    +0.041 C 
ATOM      5  C   UNL     1     -35.738  23.853   5.239  0.00  0.00    +0.042 C 
ENDROOT
BRANCH   2   6
ATOM      6  C   UNL     1     -33.431  26.690   5.330  0.00  0.00    +0.035 C 
ATOM      7  C   UNL     1     -33.114  27.479   4.225  0.00  0.00    +0.005 C 
ATOM      8  C   UNL     1     -32.911  27.005   6.585  0.00  0.00    +0.005 C 
ATOM      9  C   UNL     1     -31.755  28.899   5.630  0.00  0.00    +0.143 C 
ATOM     10  C   UNL     1     -32.276  28.584   4.374  0.00  0.00    +0.024 C 
ATOM     11  C   UNL     1     -32.072  28.110   6.735  0.00  0.00    +0.024 C 
BRANCH   9  14
ATOM     12  O   UNL     1     -31.277  31.136   5.343  0.00  0.00    -0.126 OA
ATOM     13  O   UNL     1     -29.793  29.873   6.353  0.00  0.00    -0.126 OA
ATOM     14  N   UNL     1     -30.901  30.023   5.782  0.00  0.00    +0.058 N 
ENDBRANCH   9  14
ENDBRANCH   2   6
BRANCH   3  16
ATOM     15  N   UNL     1     -36.027  23.283   1.871  0.00  0.00    -0.161 NA
ATOM     16  C   UNL     1     -35.204  23.049   2.877  0.00  0.00    +0.156 C 
BRANCH  15  19
ATOM     17  O   UNL     1     -37.503  27.737   1.534  0.00  0.00    -0.212 OA
ATOM     18  O   UNL     1     -38.515  23.569   3.089  0.00  0.00    -0.191 OA
ATOM     19  N   UNL     1     -36.785  24.392   1.989  0.00  0.00    -0.108 N 
ATOM     20  N   UNL     1     -38.438  25.829   2.491  0.00  0.00    -0.247 NA
ATOM     21  C   UNL     1     -36.301  25.633   1.432  0.00  0.00    +0.264 C 
ATOM     22  C   UNL     1     -37.462  26.545   1.808  0.00  0.00    +0.216 C 
ATOM     23  C   UNL     1     -38.018  24.586   2.580  0.00  0.00    +0.299 C 
ENDBRANCH  15  19
ENDBRANCH   3  16
TORSDOF 4
ENDMDL
