MODEL 1
REMARK VINA RESULT:      -5.6      0.000      0.000
REMARK  Name = 54692980
REMARK  8 active torsions:
REMARK  status: ('A' for Active; 'I' for Inactive)
REMARK    1  A    between atoms: N_4  and  C_20
REMARK    2  A    between atoms: C_7  and  C_16
REMARK    3  A    between atoms: C_8  and  O_13
REMARK    4  A    between atoms: C_16  and  O_17
REMARK    5  A    between atoms: O_17  and  C_18
REMARK    6  A    between atoms: C_20  and  C_22
REMARK    7  A    between atoms: C_22  and  O_23
REMARK    8  A    between atoms: O_23  and  C_24
REMARK                            x       y       z     vdW  Elec       q    Type
REMARK                         _______ _______ _______ _____ _____    ______ ____
ROOT
ATOM      1  S   UNL     1     -37.444  23.772   2.378  0.00  0.00    +0.077 S 
ATOM      2  O   UNL     1     -37.542  24.913   1.490  0.00  0.00    -0.150 OA
ATOM      3  O   UNL     1     -38.631  23.096   2.865  0.00  0.00    -0.150 OA
ATOM      4  N   UNL     1     -36.345  22.619   1.708  0.00  0.00    -0.170 N 
ATOM      5  C   UNL     1     -36.542  24.266   3.803  0.00  0.00    +0.128 C 
ATOM      6  C   UNL     1     -35.745  23.300   4.430  0.00  0.00    +0.054 C 
ATOM      7  C   UNL     1     -35.963  21.585   2.638  0.00  0.00    +0.178 C 
ATOM      8  C   UNL     1     -35.680  21.912   3.915  0.00  0.00    +0.156 C 
ATOM      9  C   UNL     1     -36.624  25.583   4.252  0.00  0.00    +0.020 C 
ATOM     10  C   UNL     1     -35.023  23.702   5.564  0.00  0.00    +0.004 C 
ATOM     11  C   UNL     1     -35.896  25.955   5.377  0.00  0.00    +0.001 C 
ATOM     12  C   UNL     1     -35.098  25.017   6.032  0.00  0.00    +0.000 C 
ENDROOT
BRANCH   8  13
ATOM     13  O   UNL     1     -35.286  20.992   4.870  0.00  0.00    -0.504 OA
ATOM     14  H   UNL     1     -35.607  20.113   4.834  0.00  0.00    +0.292 HD
ENDBRANCH   8  13
BRANCH   7  16
ATOM     15  O   UNL     1     -36.765  19.687   1.479  0.00  0.00    -0.243 OA
ATOM     16  C   UNL     1     -35.854  20.240   2.065  0.00  0.00    +0.359 C 
BRANCH  16  17
ATOM     17  O   UNL     1     -34.606  19.773   2.307  0.00  0.00    -0.444 OA
BRANCH  17  18
ATOM     18  C   UNL     1     -33.834  19.468   1.141  0.00  0.00    +0.209 C 
ATOM     19  C   UNL     1     -32.847  18.369   1.476  0.00  0.00    +0.051 C 
ENDBRANCH  17  18
ENDBRANCH  16  17
ENDBRANCH   7  16
BRANCH   4  20
ATOM     20  C   UNL     1     -35.225  23.162   0.884  0.00  0.00    +0.225 C 
BRANCH  20  22
ATOM     21  O   UNL     1     -36.482  22.698  -1.138  0.00  0.00    -0.248 OA
ATOM     22  C   UNL     1     -35.415  22.722  -0.539  0.00  0.00    +0.339 C 
BRANCH  22  23
ATOM     23  O   UNL     1     -34.202  22.355  -1.049  0.00  0.00    -0.447 OA
BRANCH  23  24
ATOM     24  C   UNL     1     -33.060  22.836  -0.331  0.00  0.00    +0.209 C 
ATOM     25  C   UNL     1     -31.857  21.992  -0.698  0.00  0.00    +0.051 C 
ENDBRANCH  23  24
ENDBRANCH  22  23
ENDBRANCH  20  22
ENDBRANCH   4  20
TORSDOF 8
ENDMDL
MODEL 2
REMARK VINA RESULT:      -5.5      2.650      6.210
REMARK  Name = 54692980
REMARK  8 active torsions:
REMARK  status: ('A' for Active; 'I' for Inactive)
REMARK    1  A    between atoms: N_4  and  C_20
REMARK    2  A    between atoms: C_7  and  C_16
REMARK    3  A    between atoms: C_8  and  O_13
REMARK    4  A    between atoms: C_16  and  O_17
REMARK    5  A    between atoms: O_17  and  C_18
REMARK    6  A    between atoms: C_20  and  C_22
REMARK    7  A    between atoms: C_22  and  O_23
REMARK    8  A    between atoms: O_23  and  C_24
REMARK                            x       y       z     vdW  Elec       q    Type
REMARK                         _______ _______ _______ _____ _____    ______ ____
ROOT
ATOM      1  S   UNL     1     -36.309  22.988   3.773  0.00  0.00    +0.077 S 
ATOM      2  O   UNL     1     -36.032  22.467   5.097  0.00  0.00    -0.150 OA
ATOM      3  O   UNL     1     -37.668  23.089   3.276  0.00  0.00    -0.150 OA
ATOM      4  N   UNL     1     -35.495  24.498   3.569  0.00  0.00    -0.170 N 
ATOM      5  C   UNL     1     -35.433  22.006   2.608  0.00  0.00    +0.128 C 
ATOM      6  C   UNL     1     -34.970  22.638   1.447  0.00  0.00    +0.054 C 
ATOM      7  C   UNL     1     -35.475  24.957   2.202  0.00  0.00    +0.178 C 
ATOM      8  C   UNL     1     -35.226  24.079   1.209  0.00  0.00    +0.156 C 
ATOM      9  C   UNL     1     -35.208  20.655   2.870  0.00  0.00    +0.020 C 
ATOM     10  C   UNL     1     -34.268  21.851   0.523  0.00  0.00    +0.004 C 
ATOM     11  C   UNL     1     -34.506  19.898   1.939  0.00  0.00    +0.001 C 
ATOM     12  C   UNL     1     -34.038  20.493   0.768  0.00  0.00    +0.000 C 
ENDROOT
BRANCH   8  13
ATOM     13  O   UNL     1     -35.167  24.432  -0.127  0.00  0.00    -0.504 OA
ATOM     14  H   UNL     1     -35.649  25.172  -0.437  0.00  0.00    +0.292 HD
ENDBRANCH   8  13
BRANCH   7  16
ATOM     15  O   UNL     1     -34.857  27.124   1.486  0.00  0.00    -0.243 OA
ATOM     16  C   UNL     1     -35.671  26.399   2.026  0.00  0.00    +0.359 C 
BRANCH  16  17
ATOM     17  O   UNL     1     -36.871  26.735   2.557  0.00  0.00    -0.444 OA
BRANCH  17  18
ATOM     18  C   UNL     1     -37.994  26.538   1.692  0.00  0.00    +0.209 C 
ATOM     19  C   UNL     1     -39.171  26.055   2.514  0.00  0.00    +0.051 C 
ENDBRANCH  17  18
ENDBRANCH  16  17
ENDBRANCH   7  16
BRANCH   4  20
ATOM     20  C   UNL     1     -34.207  24.668   4.303  0.00  0.00    +0.225 C 
BRANCH  20  22
ATOM     21  O   UNL     1     -35.369  26.327   5.638  0.00  0.00    -0.248 OA
ATOM     22  C   UNL     1     -34.322  25.860   5.209  0.00  0.00    +0.339 C 
BRANCH  22  23
ATOM     23  O   UNL     1     -33.068  26.333   5.473  0.00  0.00    -0.447 OA
BRANCH  23  24
ATOM     24  C   UNL     1     -32.909  26.987   6.737  0.00  0.00    +0.209 C 
ATOM     25  C   UNL     1     -32.022  28.200   6.556  0.00  0.00    +0.051 C 
ENDBRANCH  23  24
ENDBRANCH  22  23
ENDBRANCH  20  22
ENDBRANCH   4  20
TORSDOF 8
ENDMDL
MODEL 3
REMARK VINA RESULT:      -5.5      3.068      5.792
REMARK  Name = 54692980
REMARK  8 active torsions:
REMARK  status: ('A' for Active; 'I' for Inactive)
REMARK    1  A    between atoms: N_4  and  C_20
REMARK    2  A    between atoms: C_7  and  C_16
REMARK    3  A    between atoms: C_8  and  O_13
REMARK    4  A    between atoms: C_16  and  O_17
REMARK    5  A    between atoms: O_17  and  C_18
REMARK    6  A    between atoms: C_20  and  C_22
REMARK    7  A    between atoms: C_22  and  O_23
REMARK    8  A    between atoms: O_23  and  C_24
REMARK                            x       y       z     vdW  Elec       q    Type
REMARK                         _______ _______ _______ _____ _____    ______ ____
ROOT
ATOM      1  S   UNL     1     -36.552  22.620   1.817  0.00  0.00    +0.077 S 
ATOM      2  O   UNL     1     -36.831  21.251   1.429  0.00  0.00    -0.150 OA
ATOM      3  O   UNL     1     -35.580  23.420   1.098  0.00  0.00    -0.150 OA
ATOM      4  N   UNL     1     -38.038  23.489   1.960  0.00  0.00    -0.170 N 
ATOM      5  C   UNL     1     -36.035  22.615   3.497  0.00  0.00    +0.128 C 
ATOM      6  C   UNL     1     -36.364  23.730   4.278  0.00  0.00    +0.054 C 
ATOM      7  C   UNL     1     -37.893  24.768   2.609  0.00  0.00    +0.178 C 
ATOM      8  C   UNL     1     -37.106  24.875   3.699  0.00  0.00    +0.156 C 
ATOM      9  C   UNL     1     -35.344  21.517   4.006  0.00  0.00    +0.020 C 
ATOM     10  C   UNL     1     -35.953  23.719   5.619  0.00  0.00    +0.004 C 
ATOM     11  C   UNL     1     -34.952  21.529   5.340  0.00  0.00    +0.001 C 
ATOM     12  C   UNL     1     -35.254  22.628   6.144  0.00  0.00    +0.000 C 
ENDROOT
BRANCH   8  13
ATOM     13  O   UNL     1     -36.924  26.055   4.397  0.00  0.00    -0.504 OA
ATOM     14  H   UNL     1     -37.317  26.847   4.089  0.00  0.00    +0.292 HD
ENDBRANCH   8  13
BRANCH   7  16
ATOM     15  O   UNL     1     -38.649  26.172   0.863  0.00  0.00    -0.243 OA
ATOM     16  C   UNL     1     -38.696  25.853   2.036  0.00  0.00    +0.359 C 
BRANCH  16  17
ATOM     17  O   UNL     1     -39.453  26.391   3.022  0.00  0.00    -0.444 OA
BRANCH  17  18
ATOM     18  C   UNL     1     -40.792  25.891   3.101  0.00  0.00    +0.209 C 
ATOM     19  C   UNL     1     -41.668  26.931   3.767  0.00  0.00    +0.051 C 
ENDBRANCH  17  18
ENDBRANCH  16  17
ENDBRANCH   7  16
BRANCH   4  20
ATOM     20  C   UNL     1     -39.234  22.704   2.388  0.00  0.00    +0.225 C 
BRANCH  20  22
ATOM     21  O   UNL     1     -40.489  21.083   1.093  0.00  0.00    -0.248 OA
ATOM     22  C   UNL     1     -39.918  22.163   1.166  0.00  0.00    +0.339 C 
BRANCH  22  23
ATOM     23  O   UNL     1     -39.798  23.074   0.156  0.00  0.00    -0.447 OA
BRANCH  23  24
ATOM     24  C   UNL     1     -40.962  23.245  -0.661  0.00  0.00    +0.209 C 
ATOM     25  C   UNL     1     -41.836  24.322  -0.054  0.00  0.00    +0.051 C 
ENDBRANCH  23  24
ENDBRANCH  22  23
ENDBRANCH  20  22
ENDBRANCH   4  20
TORSDOF 8
ENDMDL
MODEL 4
REMARK VINA RESULT:      -5.4      0.892      1.831
REMARK  Name = 54692980
REMARK  8 active torsions:
REMARK  status: ('A' for Active; 'I' for Inactive)
REMARK    1  A    between atoms: N_4  and  C_20
REMARK    2  A    between atoms: C_7  and  C_16
REMARK    3  A    between atoms: C_8  and  O_13
REMARK    4  A    between atoms: C_16  and  O_17
REMARK    5  A    between atoms: O_17  and  C_18
REMARK    6  A    between atoms: C_20  and  C_22
REMARK    7  A    between atoms: C_22  and  O_23
REMARK    8  A    between atoms: O_23  and  C_24
REMARK                            x       y       z     vdW  Elec       q    Type
REMARK                         _______ _______ _______ _____ _____    ______ ____
ROOT
ATOM      1  S   UNL     1     -37.519  23.739   2.370  0.00  0.00    +0.077 S 
ATOM      2  O   UNL     1     -37.654  24.884   1.491  0.00  0.00    -0.150 OA
ATOM      3  O   UNL     1     -38.685  23.035   2.869  0.00  0.00    -0.150 OA
ATOM      4  N   UNL     1     -36.406  22.614   1.678  0.00  0.00    -0.170 N 
ATOM      5  C   UNL     1     -36.608  24.243   3.786  0.00  0.00    +0.128 C 
ATOM      6  C   UNL     1     -35.782  23.291   4.395  0.00  0.00    +0.054 C 
ATOM      7  C   UNL     1     -35.989  21.583   2.596  0.00  0.00    +0.178 C 
ATOM      8  C   UNL     1     -35.696  21.907   3.871  0.00  0.00    +0.156 C 
ATOM      9  C   UNL     1     -36.712  25.555   4.245  0.00  0.00    +0.020 C 
ATOM     10  C   UNL     1     -35.053  23.701   5.522  0.00  0.00    +0.004 C 
ATOM     11  C   UNL     1     -35.976  25.936   5.361  0.00  0.00    +0.001 C 
ATOM     12  C   UNL     1     -35.150  25.012   6.000  0.00  0.00    +0.000 C 
ENDROOT
BRANCH   8  13
ATOM     13  O   UNL     1     -35.269  20.990   4.815  0.00  0.00    -0.504 OA
ATOM     14  H   UNL     1     -35.283  20.075   4.618  0.00  0.00    +0.292 HD
ENDBRANCH   8  13
BRANCH   7  16
ATOM     15  O   UNL     1     -36.743  19.704   1.375  0.00  0.00    -0.243 OA
ATOM     16  C   UNL     1     -35.859  20.244   2.013  0.00  0.00    +0.359 C 
BRANCH  16  17
ATOM     17  O   UNL     1     -34.629  19.765   2.313  0.00  0.00    -0.444 OA
BRANCH  17  18
ATOM     18  C   UNL     1     -33.755  19.590   1.193  0.00  0.00    +0.209 C 
ATOM     19  C   UNL     1     -32.886  18.372   1.430  0.00  0.00    +0.051 C 
ENDBRANCH  17  18
ENDBRANCH  16  17
ENDBRANCH   7  16
BRANCH   4  20
ATOM     20  C   UNL     1     -35.309  23.186   0.842  0.00  0.00    +0.225 C 
BRANCH  20  22
ATOM     21  O   UNL     1     -34.547  22.081  -1.179  0.00  0.00    -0.248 OA
ATOM     22  C   UNL     1     -35.435  22.647  -0.554  0.00  0.00    +0.339 C 
BRANCH  22  23
ATOM     23  O   UNL     1     -36.701  22.891  -1.005  0.00  0.00    -0.447 OA
BRANCH  23  24
ATOM     24  C   UNL     1     -37.400  21.754  -1.525  0.00  0.00    +0.209 C 
ATOM     25  C   UNL     1     -38.797  21.728  -0.944  0.00  0.00    +0.051 C 
ENDBRANCH  23  24
ENDBRANCH  22  23
ENDBRANCH  20  22
ENDBRANCH   4  20
TORSDOF 8
ENDMDL
MODEL 5
REMARK VINA RESULT:      -5.3      3.939      6.629
REMARK  Name = 54692980
REMARK  8 active torsions:
REMARK  status: ('A' for Active; 'I' for Inactive)
REMARK    1  A    between atoms: N_4  and  C_20
REMARK    2  A    between atoms: C_7  and  C_16
REMARK    3  A    between atoms: C_8  and  O_13
REMARK    4  A    between atoms: C_16  and  O_17
REMARK    5  A    between atoms: O_17  and  C_18
REMARK    6  A    between atoms: C_20  and  C_22
REMARK    7  A    between atoms: C_22  and  O_23
REMARK    8  A    between atoms: O_23  and  C_24
REMARK                            x       y       z     vdW  Elec       q    Type
REMARK                         _______ _______ _______ _____ _____    ______ ____
ROOT
ATOM      1  S   UNL     1     -33.746  26.759   2.943  0.00  0.00    +0.077 S 
ATOM      2  O   UNL     1     -33.002  26.247   4.077  0.00  0.00    -0.150 OA
ATOM      3  O   UNL     1     -33.311  26.504   1.583  0.00  0.00    -0.150 OA
ATOM      4  N   UNL     1     -35.413  26.337   3.116  0.00  0.00    -0.170 N 
ATOM      5  C   UNL     1     -33.851  28.505   3.105  0.00  0.00    +0.128 C 
ATOM      6  C   UNL     1     -35.002  29.132   2.611  0.00  0.00    +0.054 C 
ATOM      7  C   UNL     1     -36.277  27.034   2.195  0.00  0.00    +0.178 C 
ATOM      8  C   UNL     1     -36.080  28.348   1.963  0.00  0.00    +0.156 C 
ATOM      9  C   UNL     1     -32.819  29.207   3.725  0.00  0.00    +0.020 C 
ATOM     10  C   UNL     1     -35.083  30.526   2.747  0.00  0.00    +0.004 C 
ATOM     11  C   UNL     1     -32.926  30.588   3.850  0.00  0.00    +0.001 C 
ATOM     12  C   UNL     1     -34.053  31.246   3.361  0.00  0.00    +0.000 C 
ENDROOT
BRANCH   8  13
ATOM     13  O   UNL     1     -36.871  29.101   1.114  0.00  0.00    -0.504 OA
ATOM     14  H   UNL     1     -36.787  29.003   0.187  0.00  0.00    +0.292 HD
ENDBRANCH   8  13
BRANCH   7  16
ATOM     15  O   UNL     1     -37.188  25.164   1.071  0.00  0.00    -0.243 OA
ATOM     16  C   UNL     1     -37.365  26.229   1.631  0.00  0.00    +0.359 C 
BRANCH  16  17
ATOM     17  O   UNL     1     -38.534  26.878   1.849  0.00  0.00    -0.444 OA
BRANCH  17  18
ATOM     18  C   UNL     1     -39.711  26.085   1.667  0.00  0.00    +0.209 C 
ATOM     19  C   UNL     1     -40.233  25.658   3.023  0.00  0.00    +0.051 C 
ENDBRANCH  17  18
ENDBRANCH  16  17
ENDBRANCH   7  16
BRANCH   4  20
ATOM     20  C   UNL     1     -35.937  26.237   4.510  0.00  0.00    +0.225 C 
BRANCH  20  22
ATOM     21  O   UNL     1     -37.314  24.242   4.422  0.00  0.00    -0.248 OA
ATOM     22  C   UNL     1     -36.292  24.805   4.790  0.00  0.00    +0.339 C 
BRANCH  22  23
ATOM     23  O   UNL     1     -35.285  24.239   5.520  0.00  0.00    -0.447 OA
BRANCH  23  24
ATOM     24  C   UNL     1     -35.031  22.856   5.249  0.00  0.00    +0.209 C 
ATOM     25  C   UNL     1     -35.394  22.040   6.472  0.00  0.00    +0.051 C 
ENDBRANCH  23  24
ENDBRANCH  22  23
ENDBRANCH  20  22
ENDBRANCH   4  20
TORSDOF 8
ENDMDL
MODEL 6
REMARK VINA RESULT:      -5.3      2.953      5.554
REMARK  Name = 54692980
REMARK  8 active torsions:
REMARK  status: ('A' for Active; 'I' for Inactive)
REMARK    1  A    between atoms: N_4  and  C_20
REMARK    2  A    between atoms: C_7  and  C_16
REMARK    3  A    between atoms: C_8  and  O_13
REMARK    4  A    between atoms: C_16  and  O_17
REMARK    5  A    between atoms: O_17  and  C_18
REMARK    6  A    between atoms: C_20  and  C_22
REMARK    7  A    between atoms: C_22  and  O_23
REMARK    8  A    between atoms: O_23  and  C_24
REMARK                            x       y       z     vdW  Elec       q    Type
REMARK                         _______ _______ _______ _____ _____    ______ ____
ROOT
ATOM      1  S   UNL     1     -36.571  22.650   1.874  0.00  0.00    +0.077 S 
ATOM      2  O   UNL     1     -36.883  21.297   1.462  0.00  0.00    -0.150 OA
ATOM      3  O   UNL     1     -35.595  23.447   1.155  0.00  0.00    -0.150 OA
ATOM      4  N   UNL     1     -38.037  23.545   2.060  0.00  0.00    -0.170 N 
ATOM      5  C   UNL     1     -36.026  22.599   3.544  0.00  0.00    +0.128 C 
ATOM      6  C   UNL     1     -36.320  23.703   4.354  0.00  0.00    +0.054 C 
ATOM      7  C   UNL     1     -37.856  24.807   2.734  0.00  0.00    +0.178 C 
ATOM      8  C   UNL     1     -37.049  24.875   3.812  0.00  0.00    +0.156 C 
ATOM      9  C   UNL     1     -35.348  21.477   4.018  0.00  0.00    +0.020 C 
ATOM     10  C   UNL     1     -35.888  23.655   5.687  0.00  0.00    +0.004 C 
ATOM     11  C   UNL     1     -34.934  21.454   5.345  0.00  0.00    +0.001 C 
ATOM     12  C   UNL     1     -35.201  22.540   6.178  0.00  0.00    +0.000 C 
ENDROOT
BRANCH   8  13
ATOM     13  O   UNL     1     -36.833  26.036   4.533  0.00  0.00    -0.504 OA
ATOM     14  H   UNL     1     -37.555  26.587   4.761  0.00  0.00    +0.292 HD
ENDBRANCH   8  13
BRANCH   7  16
ATOM     15  O   UNL     1     -39.473  26.528   2.851  0.00  0.00    -0.243 OA
ATOM     16  C   UNL     1     -38.647  25.919   2.198  0.00  0.00    +0.359 C 
BRANCH  16  17
ATOM     17  O   UNL     1     -38.289  26.113   0.906  0.00  0.00    -0.444 OA
BRANCH  17  18
ATOM     18  C   UNL     1     -37.812  27.428   0.600  0.00  0.00    +0.209 C 
ATOM     19  C   UNL     1     -36.318  27.479   0.847  0.00  0.00    +0.051 C 
ENDBRANCH  17  18
ENDBRANCH  16  17
ENDBRANCH   7  16
BRANCH   4  20
ATOM     20  C   UNL     1     -39.241  22.774   2.492  0.00  0.00    +0.225 C 
BRANCH  20  22
ATOM     21  O   UNL     1     -40.460  21.164   1.148  0.00  0.00    -0.248 OA
ATOM     22  C   UNL     1     -39.956  22.273   1.271  0.00  0.00    +0.339 C 
BRANCH  22  23
ATOM     23  O   UNL     1     -39.952  23.258   0.325  0.00  0.00    -0.447 OA
BRANCH  23  24
ATOM     24  C   UNL     1     -41.237  23.623  -0.191  0.00  0.00    +0.209 C 
ATOM     25  C   UNL     1     -41.863  24.650   0.729  0.00  0.00    +0.051 C 
ENDBRANCH  23  24
ENDBRANCH  22  23
ENDBRANCH  20  22
ENDBRANCH   4  20
TORSDOF 8
ENDMDL
MODEL 7
REMARK VINA RESULT:      -5.2      3.862      6.540
REMARK  Name = 54692980
REMARK  8 active torsions:
REMARK  status: ('A' for Active; 'I' for Inactive)
REMARK    1  A    between atoms: N_4  and  C_20
REMARK    2  A    between atoms: C_7  and  C_16
REMARK    3  A    between atoms: C_8  and  O_13
REMARK    4  A    between atoms: C_16  and  O_17
REMARK    5  A    between atoms: O_17  and  C_18
REMARK    6  A    between atoms: C_20  and  C_22
REMARK    7  A    between atoms: C_22  and  O_23
REMARK    8  A    between atoms: O_23  and  C_24
REMARK                            x       y       z     vdW  Elec       q    Type
REMARK                         _______ _______ _______ _____ _____    ______ ____
ROOT
ATOM      1  S   UNL     1     -35.181  25.825   5.279  0.00  0.00    +0.077 S 
ATOM      2  O   UNL     1     -34.166  26.003   6.298  0.00  0.00    -0.150 OA
ATOM      3  O   UNL     1     -36.547  26.260   5.498  0.00  0.00    -0.150 OA
ATOM      4  N   UNL     1     -34.600  26.448   3.777  0.00  0.00    -0.170 N 
ATOM      5  C   UNL     1     -35.269  24.113   4.890  0.00  0.00    +0.128 C 
ATOM      6  C   UNL     1     -35.598  23.766   3.574  0.00  0.00    +0.054 C 
ATOM      7  C   UNL     1     -35.412  26.069   2.647  0.00  0.00    +0.178 C 
ATOM      8  C   UNL     1     -35.877  24.807   2.557  0.00  0.00    +0.156 C 
ATOM      9  C   UNL     1     -34.994  23.165   5.874  0.00  0.00    +0.020 C 
ATOM     10  C   UNL     1     -35.662  22.399   3.268  0.00  0.00    +0.004 C 
ATOM     11  C   UNL     1     -35.061  21.815   5.543  0.00  0.00    +0.001 C 
ATOM     12  C   UNL     1     -35.395  21.433   4.244  0.00  0.00    +0.000 C 
ENDROOT
BRANCH   8  13
ATOM     13  O   UNL     1     -36.645  24.349   1.501  0.00  0.00    -0.504 OA
ATOM     14  H   UNL     1     -37.035  23.498   1.540  0.00  0.00    +0.292 HD
ENDBRANCH   8  13
BRANCH   7  16
ATOM     15  O   UNL     1     -35.421  26.942   0.449  0.00  0.00    -0.243 OA
ATOM     16  C   UNL     1     -35.605  27.116   1.639  0.00  0.00    +0.359 C 
BRANCH  16  17
ATOM     17  O   UNL     1     -36.006  28.247   2.269  0.00  0.00    -0.444 OA
BRANCH  17  18
ATOM     18  C   UNL     1     -35.492  29.463   1.718  0.00  0.00    +0.209 C 
ATOM     19  C   UNL     1     -35.282  30.461   2.838  0.00  0.00    +0.051 C 
ENDBRANCH  17  18
ENDBRANCH  16  17
ENDBRANCH   7  16
BRANCH   4  20
ATOM     20  C   UNL     1     -33.127  26.365   3.542  0.00  0.00    +0.225 C 
BRANCH  20  22
ATOM     21  O   UNL     1     -31.945  28.181   2.453  0.00  0.00    -0.248 OA
ATOM     22  C   UNL     1     -32.581  27.757   3.409  0.00  0.00    +0.339 C 
BRANCH  22  23
ATOM     23  O   UNL     1     -32.912  28.467   4.528  0.00  0.00    -0.447 OA
BRANCH  23  24
ATOM     24  C   UNL     1     -31.834  28.725   5.435  0.00  0.00    +0.209 C 
ATOM     25  C   UNL     1     -31.947  30.148   5.941  0.00  0.00    +0.051 C 
ENDBRANCH  23  24
ENDBRANCH  22  23
ENDBRANCH  20  22
ENDBRANCH   4  20
TORSDOF 8
ENDMDL
MODEL 8
REMARK VINA RESULT:      -5.2      2.681      4.929
REMARK  Name = 54692980
REMARK  8 active torsions:
REMARK  status: ('A' for Active; 'I' for Inactive)
REMARK    1  A    between atoms: N_4  and  C_20
REMARK    2  A    between atoms: C_7  and  C_16
REMARK    3  A    between atoms: C_8  and  O_13
REMARK    4  A    between atoms: C_16  and  O_17
REMARK    5  A    between atoms: O_17  and  C_18
REMARK    6  A    between atoms: C_20  and  C_22
REMARK    7  A    between atoms: C_22  and  O_23
REMARK    8  A    between atoms: O_23  and  C_24
REMARK                            x       y       z     vdW  Elec       q    Type
REMARK                         _______ _______ _______ _____ _____    ______ ____
ROOT
ATOM      1  S   UNL     1     -35.951  21.442   2.119  0.00  0.00    +0.077 S 
ATOM      2  O   UNL     1     -36.281  20.045   2.322  0.00  0.00    -0.150 OA
ATOM      3  O   UNL     1     -34.817  21.834   1.303  0.00  0.00    -0.150 OA
ATOM      4  N   UNL     1     -37.364  22.296   1.610  0.00  0.00    -0.170 N 
ATOM      5  C   UNL     1     -35.697  22.177   3.695  0.00  0.00    +0.128 C 
ATOM      6  C   UNL     1     -36.047  23.524   3.843  0.00  0.00    +0.054 C 
ATOM      7  C   UNL     1     -37.212  23.730   1.653  0.00  0.00    +0.178 C 
ATOM      8  C   UNL     1     -36.594  24.301   2.706  0.00  0.00    +0.156 C 
ATOM      9  C   UNL     1     -35.185  21.411   4.741  0.00  0.00    +0.020 C 
ATOM     10  C   UNL     1     -35.847  24.104   5.105  0.00  0.00    +0.004 C 
ATOM     11  C   UNL     1     -35.001  22.010   5.983  0.00  0.00    +0.001 C 
ATOM     12  C   UNL     1     -35.329  23.353   6.165  0.00  0.00    +0.000 C 
ENDROOT
BRANCH   8  13
ATOM     13  O   UNL     1     -36.422  25.667   2.842  0.00  0.00    -0.504 OA
ATOM     14  H   UNL     1     -35.642  26.075   2.522  0.00  0.00    +0.292 HD
ENDBRANCH   8  13
BRANCH   7  16
ATOM     15  O   UNL     1     -37.677  24.139  -0.629  0.00  0.00    -0.243 OA
ATOM     16  C   UNL     1     -37.826  24.455   0.536  0.00  0.00    +0.359 C 
BRANCH  16  17
ATOM     17  O   UNL     1     -38.547  25.484   1.040  0.00  0.00    -0.444 OA
BRANCH  17  18
ATOM     18  C   UNL     1     -39.917  25.182   1.328  0.00  0.00    +0.209 C 
ATOM     19  C   UNL     1     -40.332  25.922   2.582  0.00  0.00    +0.051 C 
ENDBRANCH  17  18
ENDBRANCH  16  17
ENDBRANCH   7  16
BRANCH   4  20
ATOM     20  C   UNL     1     -38.672  21.791   2.122  0.00  0.00    +0.225 C 
BRANCH  20  22
ATOM     21  O   UNL     1     -40.670  21.053   0.962  0.00  0.00    -0.248 OA
ATOM     22  C   UNL     1     -39.460  21.239   0.970  0.00  0.00    +0.339 C 
BRANCH  22  23
ATOM     23  O   UNL     1     -38.605  20.982  -0.064  0.00  0.00    -0.447 OA
BRANCH  23  24
ATOM     24  C   UNL     1     -38.510  19.608  -0.458  0.00  0.00    +0.209 C 
ATOM     25  C   UNL     1     -37.169  19.378  -1.121  0.00  0.00    +0.051 C 
ENDBRANCH  23  24
ENDBRANCH  22  23
ENDBRANCH  20  22
ENDBRANCH   4  20
TORSDOF 8
ENDMDL
MODEL 9
REMARK VINA RESULT:      -5.2     10.524     13.034
REMARK  Name = 54692980
REMARK  8 active torsions:
REMARK  status: ('A' for Active; 'I' for Inactive)
REMARK    1  A    between atoms: N_4  and  C_20
REMARK    2  A    between atoms: C_7  and  C_16
REMARK    3  A    between atoms: C_8  and  O_13
REMARK    4  A    between atoms: C_16  and  O_17
REMARK    5  A    between atoms: O_17  and  C_18
REMARK    6  A    between atoms: C_20  and  C_22
REMARK    7  A    between atoms: C_22  and  O_23
REMARK    8  A    between atoms: O_23  and  C_24
REMARK                            x       y       z     vdW  Elec       q    Type
REMARK                         _______ _______ _______ _____ _____    ______ ____
ROOT
ATOM      1  S   UNL     1     -45.055  29.932   7.858  0.00  0.00    +0.077 S 
ATOM      2  O   UNL     1     -45.941  29.078   8.624  0.00  0.00    -0.150 OA
ATOM      3  O   UNL     1     -43.805  30.408   8.417  0.00  0.00    -0.150 OA
ATOM      4  N   UNL     1     -44.773  29.221   6.309  0.00  0.00    -0.170 N 
ATOM      5  C   UNL     1     -45.956  31.363   7.382  0.00  0.00    +0.128 C 
ATOM      6  C   UNL     1     -45.626  31.957   6.157  0.00  0.00    +0.054 C 
ATOM      7  C   UNL     1     -44.139  30.119   5.375  0.00  0.00    +0.178 C 
ATOM      8  C   UNL     1     -44.545  31.403   5.307  0.00  0.00    +0.156 C 
ATOM      9  C   UNL     1     -46.969  31.851   8.207  0.00  0.00    +0.020 C 
ATOM     10  C   UNL     1     -46.351  33.097   5.780  0.00  0.00    +0.004 C 
ATOM     11  C   UNL     1     -47.675  32.980   7.807  0.00  0.00    +0.001 C 
ATOM     12  C   UNL     1     -47.367  33.603   6.598  0.00  0.00    +0.000 C 
ENDROOT
BRANCH   8  13
ATOM     13  O   UNL     1     -44.011  32.329   4.429  0.00  0.00    -0.504 OA
ATOM     14  H   UNL     1     -43.104  32.557   4.484  0.00  0.00    +0.292 HD
ENDBRANCH   8  13
BRANCH   7  16
ATOM     15  O   UNL     1     -42.101  29.003   4.941  0.00  0.00    -0.243 OA
ATOM     16  C   UNL     1     -43.122  29.507   4.514  0.00  0.00    +0.359 C 
BRANCH  16  17
ATOM     17  O   UNL     1     -43.531  29.613   3.228  0.00  0.00    -0.444 OA
BRANCH  17  18
ATOM     18  C   UNL     1     -43.003  28.623   2.339  0.00  0.00    +0.209 C 
ATOM     19  C   UNL     1     -43.762  28.680   1.030  0.00  0.00    +0.051 C 
ENDBRANCH  17  18
ENDBRANCH  16  17
ENDBRANCH   7  16
BRANCH   4  20
ATOM     20  C   UNL     1     -45.884  28.405   5.734  0.00  0.00    +0.225 C 
BRANCH  20  22
ATOM     21  O   UNL     1     -45.849  26.268   6.881  0.00  0.00    -0.248 OA
ATOM     22  C   UNL     1     -45.553  26.951   5.909  0.00  0.00    +0.339 C 
BRANCH  22  23
ATOM     23  O   UNL     1     -44.873  26.520   4.806  0.00  0.00    -0.447 OA
BRANCH  23  24
ATOM     24  C   UNL     1     -45.650  26.408   3.608  0.00  0.00    +0.209 C 
ATOM     25  C   UNL     1     -46.134  24.980   3.467  0.00  0.00    +0.051 C 
ENDBRANCH  23  24
ENDBRANCH  22  23
ENDBRANCH  20  22
ENDBRANCH   4  20
TORSDOF 8
ENDMDL
