MODEL 1
REMARK VINA RESULT:      -5.5      0.000      0.000
REMARK  Name = 513058
REMARK  5 active torsions:
REMARK  status: ('A' for Active; 'I' for Inactive)
REMARK    1  A    between atoms: N_2  and  C1*_13
REMARK    2  A    between atoms: C_7  and  C_21
REMARK    3  A    between atoms: C3*_12  and  O3*_16
REMARK    4  A    between atoms: C4*_15  and  C5*_18
REMARK    5  A    between atoms: C5*_18  and  O5*_19
REMARK                            x       y       z     vdW  Elec       q    Type
REMARK                         _______ _______ _______ _____ _____    ______ ____
ROOT
ATOM      1  O   UNL     1     -39.253  23.135   2.452  0.00  0.00    -0.193 OA
ATOM      2  N   UNL     1     -37.012  22.967   2.959  0.00  0.00    -0.181 N 
ATOM      3  N   UNL     1     -38.188  21.244   1.799  0.00  0.00    -0.306 NA
ATOM      4  N   UNL     1     -37.138  19.302   1.117  0.00  0.00    -0.332 N 
ATOM      5  C   UNL     1     -35.855  22.225   2.899  0.00  0.00    +0.079 C 
ATOM      6  C   UNL     1     -38.208  22.485   2.406  0.00  0.00    +0.275 C 
ATOM      7  C   UNL     1     -35.802  21.023   2.320  0.00  0.00    +0.038 C 
ATOM      8  C   UNL     1     -37.091  20.531   1.736  0.00  0.00    +0.188 C 
ATOM      9  H   UNL     1     -37.983  18.976   0.732  0.00  0.00    +0.145 HD
ATOM     10  H   UNL     1     -36.325  18.749   1.058  0.00  0.00    +0.145 HD
ENDROOT
BRANCH   2  13
ATOM     11  O4* UNL     1     -36.334  25.194   2.726  0.00  0.00    -0.334 OA
ATOM     12  C3* UNL     1     -35.539  25.605   4.921  0.00  0.00    +0.144 C 
ATOM     13  C1* UNL     1     -36.956  24.246   3.605  0.00  0.00    +0.209 C 
ATOM     14  C2* UNL     1     -36.146  24.222   4.891  0.00  0.00    +0.084 C 
ATOM     15  C4* UNL     1     -35.319  25.918   3.447  0.00  0.00    +0.173 C 
BRANCH  12  16
ATOM     16  O3* UNL     1     -36.473  26.529   5.477  0.00  0.00    -0.382 OA
ATOM     17  H3* UNL     1     -37.375  26.242   5.264  0.00  0.00    +0.210 HD
ENDBRANCH  12  16
BRANCH  15  18
ATOM     18  C5* UNL     1     -33.960  25.451   2.939  0.00  0.00    +0.169 C 
BRANCH  18  19
ATOM     19  O5* UNL     1     -33.017  25.550   3.994  0.00  0.00    -0.379 OA
ATOM     20  H5* UNL     1     -32.120  25.564   3.625  0.00  0.00    +0.211 HD
ENDBRANCH  18  19
ENDBRANCH  15  18
ENDBRANCH   2  13
BRANCH   7  21
ATOM     21  C   UNL     1     -34.564  20.194   2.238  0.00  0.00    +0.032 C 
ATOM     22  C   UNL     1     -33.821  20.410   0.932  0.00  0.00    +0.005 C 
ENDBRANCH   7  21
TORSDOF 5
ENDMDL
MODEL 2
REMARK VINA RESULT:      -5.5      2.151      2.859
REMARK  Name = 513058
REMARK  5 active torsions:
REMARK  status: ('A' for Active; 'I' for Inactive)
REMARK    1  A    between atoms: N_2  and  C1*_13
REMARK    2  A    between atoms: C_7  and  C_21
REMARK    3  A    between atoms: C3*_12  and  O3*_16
REMARK    4  A    between atoms: C4*_15  and  C5*_18
REMARK    5  A    between atoms: C5*_18  and  O5*_19
REMARK                            x       y       z     vdW  Elec       q    Type
REMARK                         _______ _______ _______ _____ _____    ______ ____
ROOT
ATOM      1  O   UNL     1     -35.226  21.107   5.393  0.00  0.00    -0.193 OA
ATOM      2  N   UNL     1     -35.261  22.628   3.662  0.00  0.00    -0.181 N 
ATOM      3  N   UNL     1     -35.256  20.271   3.286  0.00  0.00    -0.306 NA
ATOM      4  N   UNL     1     -35.288  19.379   1.154  0.00  0.00    -0.332 N 
ATOM      5  C   UNL     1     -35.283  22.850   2.305  0.00  0.00    +0.079 C 
ATOM      6  C   UNL     1     -35.247  21.324   4.180  0.00  0.00    +0.275 C 
ATOM      7  C   UNL     1     -35.293  21.855   1.414  0.00  0.00    +0.038 C 
ATOM      8  C   UNL     1     -35.278  20.473   1.992  0.00  0.00    +0.188 C 
ATOM      9  H   UNL     1     -35.278  18.470   1.531  0.00  0.00    +0.145 HD
ATOM     10  H   UNL     1     -35.304  19.507   0.178  0.00  0.00    +0.145 HD
ENDROOT
BRANCH   2  13
ATOM     11  O4* UNL     1     -36.593  24.254   4.689  0.00  0.00    -0.334 OA
ATOM     12  C3* UNL     1     -35.161  26.133   4.492  0.00  0.00    +0.144 C 
ATOM     13  C1* UNL     1     -35.252  23.771   4.528  0.00  0.00    +0.209 C 
ATOM     14  C2* UNL     1     -34.420  24.919   3.981  0.00  0.00    +0.084 C 
ATOM     15  C4* UNL     1     -36.614  25.679   4.482  0.00  0.00    +0.173 C 
BRANCH  12  16
ATOM     16  O3* UNL     1     -34.752  26.418   5.829  0.00  0.00    -0.382 OA
ATOM     17  H3* UNL     1     -34.938  25.652   6.394  0.00  0.00    +0.210 HD
ENDBRANCH  12  16
BRANCH  15  18
ATOM     18  C5* UNL     1     -37.310  25.949   3.153  0.00  0.00    +0.169 C 
BRANCH  18  19
ATOM     19  O5* UNL     1     -38.642  26.361   3.409  0.00  0.00    -0.379 OA
ATOM     20  H5* UNL     1     -38.864  27.111   2.836  0.00  0.00    +0.211 HD
ENDBRANCH  18  19
ENDBRANCH  15  18
ENDBRANCH   2  13
BRANCH   7  21
ATOM     21  C   UNL     1     -35.317  22.062  -0.064  0.00  0.00    +0.032 C 
ATOM     22  C   UNL     1     -33.966  22.505  -0.596  0.00  0.00    +0.005 C 
ENDBRANCH   7  21
TORSDOF 5
ENDMDL
MODEL 3
REMARK VINA RESULT:      -5.5      2.608      5.229
REMARK  Name = 513058
REMARK  5 active torsions:
REMARK  status: ('A' for Active; 'I' for Inactive)
REMARK    1  A    between atoms: N_2  and  C1*_13
REMARK    2  A    between atoms: C_7  and  C_21
REMARK    3  A    between atoms: C3*_12  and  O3*_16
REMARK    4  A    between atoms: C4*_15  and  C5*_18
REMARK    5  A    between atoms: C5*_18  and  O5*_19
REMARK                            x       y       z     vdW  Elec       q    Type
REMARK                         _______ _______ _______ _____ _____    ______ ____
ROOT
ATOM      1  O   UNL     1     -38.337  26.278   2.583  0.00  0.00    -0.193 OA
ATOM      2  N   UNL     1     -37.475  24.198   3.074  0.00  0.00    -0.181 N 
ATOM      3  N   UNL     1     -36.706  26.183   4.155  0.00  0.00    -0.306 NA
ATOM      4  N   UNL     1     -35.047  26.128   5.762  0.00  0.00    -0.332 N 
ATOM      5  C   UNL     1     -36.588  23.447   3.809  0.00  0.00    +0.079 C 
ATOM      6  C   UNL     1     -37.549  25.590   3.235  0.00  0.00    +0.275 C 
ATOM      7  C   UNL     1     -35.760  23.989   4.707  0.00  0.00    +0.038 C 
ATOM      8  C   UNL     1     -35.859  25.476   4.861  0.00  0.00    +0.188 C 
ATOM      9  H   UNL     1     -35.110  27.105   5.865  0.00  0.00    +0.145 HD
ATOM     10  H   UNL     1     -34.402  25.617   6.303  0.00  0.00    +0.145 HD
ENDROOT
BRANCH   2  13
ATOM     11  O4* UNL     1     -38.428  22.135   2.520  0.00  0.00    -0.334 OA
ATOM     12  C3* UNL     1     -38.237  22.223   0.159  0.00  0.00    +0.144 C 
ATOM     13  C1* UNL     1     -38.318  23.513   2.138  0.00  0.00    +0.209 C 
ATOM     14  C2* UNL     1     -37.774  23.548   0.719  0.00  0.00    +0.084 C 
ATOM     15  C4* UNL     1     -38.192  21.301   1.369  0.00  0.00    +0.173 C 
BRANCH  12  16
ATOM     16  O3* UNL     1     -39.580  22.343  -0.308  0.00  0.00    -0.382 OA
ATOM     17  H3* UNL     1     -39.575  22.557  -1.254  0.00  0.00    +0.210 HD
ENDBRANCH  12  16
BRANCH  15  18
ATOM     18  C5* UNL     1     -36.837  20.627   1.550  0.00  0.00    +0.169 C 
BRANCH  18  19
ATOM     19  O5* UNL     1     -36.877  19.825   2.719  0.00  0.00    -0.379 OA
ATOM     20  H5* UNL     1     -37.002  20.393   3.495  0.00  0.00    +0.211 HD
ENDBRANCH  18  19
ENDBRANCH  15  18
ENDBRANCH   2  13
BRANCH   7  21
ATOM     21  C   UNL     1     -34.786  23.203   5.521  0.00  0.00    +0.032 C 
ATOM     22  C   UNL     1     -35.457  22.057   6.257  0.00  0.00    +0.005 C 
ENDBRANCH   7  21
TORSDOF 5
ENDMDL
MODEL 4
REMARK VINA RESULT:      -5.4      2.393      4.078
REMARK  Name = 513058
REMARK  5 active torsions:
REMARK  status: ('A' for Active; 'I' for Inactive)
REMARK    1  A    between atoms: N_2  and  C1*_13
REMARK    2  A    between atoms: C_7  and  C_21
REMARK    3  A    between atoms: C3*_12  and  O3*_16
REMARK    4  A    between atoms: C4*_15  and  C5*_18
REMARK    5  A    between atoms: C5*_18  and  O5*_19
REMARK                            x       y       z     vdW  Elec       q    Type
REMARK                         _______ _______ _______ _____ _____    ______ ____
ROOT
ATOM      1  O   UNL     1     -36.038  25.746   5.886  0.00  0.00    -0.193 OA
ATOM      2  N   UNL     1     -36.300  24.629   3.887  0.00  0.00    -0.181 N 
ATOM      3  N   UNL     1     -35.458  23.554   5.846  0.00  0.00    -0.306 NA
ATOM      4  N   UNL     1     -34.856  21.323   5.846  0.00  0.00    -0.332 N 
ATOM      5  C   UNL     1     -36.179  23.453   3.184  0.00  0.00    +0.079 C 
ATOM      6  C   UNL     1     -35.938  24.700   5.241  0.00  0.00    +0.275 C 
ATOM      7  C   UNL     1     -35.720  22.328   3.739  0.00  0.00    +0.038 C 
ATOM      8  C   UNL     1     -35.341  22.430   5.185  0.00  0.00    +0.188 C 
ATOM      9  H   UNL     1     -34.607  21.388   6.796  0.00  0.00    +0.145 HD
ATOM     10  H   UNL     1     -34.760  20.468   5.369  0.00  0.00    +0.145 HD
ENDROOT
BRANCH   2  13
ATOM     11  O4* UNL     1     -38.230  25.837   3.351  0.00  0.00    -0.334 OA
ATOM     12  C3* UNL     1     -37.719  26.442   1.116  0.00  0.00    +0.144 C 
ATOM     13  C1* UNL     1     -36.805  25.777   3.193  0.00  0.00    +0.209 C 
ATOM     14  C2* UNL     1     -36.517  25.737   1.701  0.00  0.00    +0.084 C 
ATOM     15  C4* UNL     1     -38.843  26.050   2.065  0.00  0.00    +0.173 C 
BRANCH  12  16
ATOM     16  O3* UNL     1     -37.517  27.854   1.161  0.00  0.00    -0.382 OA
ATOM     17  H3* UNL     1     -38.365  28.305   1.029  0.00  0.00    +0.210 HD
ENDBRANCH  12  16
BRANCH  15  18
ATOM     18  C5* UNL     1     -39.539  24.757   1.657  0.00  0.00    +0.169 C 
BRANCH  18  19
ATOM     19  O5* UNL     1     -39.817  23.999   2.822  0.00  0.00    -0.379 OA
ATOM     20  H5* UNL     1     -38.984  23.774   3.267  0.00  0.00    +0.211 HD
ENDBRANCH  18  19
ENDBRANCH  15  18
ENDBRANCH   2  13
BRANCH   7  21
ATOM     21  C   UNL     1     -35.577  21.037   3.004  0.00  0.00    +0.032 C 
ATOM     22  C   UNL     1     -34.993  21.235   1.616  0.00  0.00    +0.005 C 
ENDBRANCH   7  21
TORSDOF 5
ENDMDL
MODEL 5
REMARK VINA RESULT:      -5.3      2.674      5.289
REMARK  Name = 513058
REMARK  5 active torsions:
REMARK  status: ('A' for Active; 'I' for Inactive)
REMARK    1  A    between atoms: N_2  and  C1*_13
REMARK    2  A    between atoms: C_7  and  C_21
REMARK    3  A    between atoms: C3*_12  and  O3*_16
REMARK    4  A    between atoms: C4*_15  and  C5*_18
REMARK    5  A    between atoms: C5*_18  and  O5*_19
REMARK                            x       y       z     vdW  Elec       q    Type
REMARK                         _______ _______ _______ _____ _____    ______ ____
ROOT
ATOM      1  O   UNL     1     -36.796  25.861   0.959  0.00  0.00    -0.193 OA
ATOM      2  N   UNL     1     -35.957  24.057   2.122  0.00  0.00    -0.181 N 
ATOM      3  N   UNL     1     -36.599  26.085   3.206  0.00  0.00    -0.306 NA
ATOM      4  N   UNL     1     -36.415  26.352   5.494  0.00  0.00    -0.332 N 
ATOM      5  C   UNL     1     -35.596  23.517   3.334  0.00  0.00    +0.079 C 
ATOM      6  C   UNL     1     -36.469  25.361   2.036  0.00  0.00    +0.275 C 
ATOM      7  C   UNL     1     -35.710  24.189   4.483  0.00  0.00    +0.038 C 
ATOM      8  C   UNL     1     -36.259  25.578   4.365  0.00  0.00    +0.188 C 
ATOM      9  H   UNL     1     -36.776  27.265   5.419  0.00  0.00    +0.145 HD
ATOM     10  H   UNL     1     -36.166  25.992   6.376  0.00  0.00    +0.145 HD
ENDROOT
BRANCH   2  13
ATOM     11  O4* UNL     1     -36.592  22.062   1.079  0.00  0.00    -0.334 OA
ATOM     12  C3* UNL     1     -34.524  21.443   0.100  0.00  0.00    +0.144 C 
ATOM     13  C1* UNL     1     -35.793  23.246   0.951  0.00  0.00    +0.209 C 
ATOM     14  C2* UNL     1     -34.355  22.801   0.739  0.00  0.00    +0.084 C 
ATOM     15  C4* UNL     1     -35.792  20.910   0.752  0.00  0.00    +0.173 C 
BRANCH  12  16
ATOM     16  O3* UNL     1     -34.728  21.594  -1.304  0.00  0.00    -0.382 OA
ATOM     17  H3* UNL     1     -33.870  21.680  -1.748  0.00  0.00    +0.210 HD
ENDBRANCH  12  16
BRANCH  15  18
ATOM     18  C5* UNL     1     -35.519  20.148   2.043  0.00  0.00    +0.169 C 
BRANCH  18  19
ATOM     19  O5* UNL     1     -36.757  19.793   2.636  0.00  0.00    -0.379 OA
ATOM     20  H5* UNL     1     -36.798  20.150   3.537  0.00  0.00    +0.211 HD
ENDBRANCH  18  19
ENDBRANCH  15  18
ENDBRANCH   2  13
BRANCH   7  21
ATOM     21  C   UNL     1     -35.327  23.632   5.814  0.00  0.00    +0.032 C 
ATOM     22  C   UNL     1     -35.293  22.115   5.805  0.00  0.00    +0.005 C 
ENDBRANCH   7  21
TORSDOF 5
ENDMDL
MODEL 6
REMARK VINA RESULT:      -5.3      2.561      5.151
REMARK  Name = 513058
REMARK  5 active torsions:
REMARK  status: ('A' for Active; 'I' for Inactive)
REMARK    1  A    between atoms: N_2  and  C1*_13
REMARK    2  A    between atoms: C_7  and  C_21
REMARK    3  A    between atoms: C3*_12  and  O3*_16
REMARK    4  A    between atoms: C4*_15  and  C5*_18
REMARK    5  A    between atoms: C5*_18  and  O5*_19
REMARK                            x       y       z     vdW  Elec       q    Type
REMARK                         _______ _______ _______ _____ _____    ______ ____
ROOT
ATOM      1  O   UNL     1     -38.830  24.882   1.731  0.00  0.00    -0.193 OA
ATOM      2  N   UNL     1     -37.410  23.337   2.683  0.00  0.00    -0.181 N 
ATOM      3  N   UNL     1     -37.634  25.556   3.535  0.00  0.00    -0.306 NA
ATOM      4  N   UNL     1     -36.433  26.281   5.371  0.00  0.00    -0.332 N 
ATOM      5  C   UNL     1     -36.488  23.049   3.661  0.00  0.00    +0.079 C 
ATOM      6  C   UNL     1     -38.003  24.606   2.602  0.00  0.00    +0.275 C 
ATOM      7  C   UNL     1     -36.110  23.943   4.578  0.00  0.00    +0.038 C 
ATOM      8  C   UNL     1     -36.757  25.290   4.471  0.00  0.00    +0.188 C 
ATOM      9  H   UNL     1     -36.857  27.166   5.303  0.00  0.00    +0.145 HD
ATOM     10  H   UNL     1     -35.777  26.103   6.083  0.00  0.00    +0.145 HD
ENDROOT
BRANCH   2  13
ATOM     11  O4* UNL     1     -37.304  21.037   2.267  0.00  0.00    -0.334 OA
ATOM     12  C3* UNL     1     -36.851  21.069  -0.060  0.00  0.00    +0.144 C 
ATOM     13  C1* UNL     1     -37.744  22.301   1.750  0.00  0.00    +0.209 C 
ATOM     14  C2* UNL     1     -37.080  22.491   0.396  0.00  0.00    +0.084 C 
ATOM     15  C4* UNL     1     -36.580  20.329   1.243  0.00  0.00    +0.173 C 
BRANCH  12  16
ATOM     16  O3* UNL     1     -38.039  20.562  -0.666  0.00  0.00    -0.382 OA
ATOM     17  H3* UNL     1     -37.996  19.593  -0.699  0.00  0.00    +0.210 HD
ENDBRANCH  12  16
BRANCH  15  18
ATOM     18  C5* UNL     1     -35.105  20.328   1.627  0.00  0.00    +0.169 C 
BRANCH  18  19
ATOM     19  O5* UNL     1     -34.989  19.981   2.997  0.00  0.00    -0.379 OA
ATOM     20  H5* UNL     1     -35.858  19.718   3.338  0.00  0.00    +0.211 HD
ENDBRANCH  18  19
ENDBRANCH  15  18
ENDBRANCH   2  13
BRANCH   7  21
ATOM     21  C   UNL     1     -35.112  23.662   5.652  0.00  0.00    +0.032 C 
ATOM     22  C   UNL     1     -35.291  22.276   6.245  0.00  0.00    +0.005 C 
ENDBRANCH   7  21
TORSDOF 5
ENDMDL
MODEL 7
REMARK VINA RESULT:      -5.2      3.149      5.935
REMARK  Name = 513058
REMARK  5 active torsions:
REMARK  status: ('A' for Active; 'I' for Inactive)
REMARK    1  A    between atoms: N_2  and  C1*_13
REMARK    2  A    between atoms: C_7  and  C_21
REMARK    3  A    between atoms: C3*_12  and  O3*_16
REMARK    4  A    between atoms: C4*_15  and  C5*_18
REMARK    5  A    between atoms: C5*_18  and  O5*_19
REMARK                            x       y       z     vdW  Elec       q    Type
REMARK                         _______ _______ _______ _____ _____    ______ ____
ROOT
ATOM      1  O   UNL     1     -33.016  26.338   5.540  0.00  0.00    -0.193 OA
ATOM      2  N   UNL     1     -34.616  25.542   4.084  0.00  0.00    -0.181 N 
ATOM      3  N   UNL     1     -34.059  27.859   4.221  0.00  0.00    -0.306 NA
ATOM      4  N   UNL     1     -35.097  29.441   2.894  0.00  0.00    -0.332 N 
ATOM      5  C   UNL     1     -35.544  25.818   3.107  0.00  0.00    +0.079 C 
ATOM      6  C   UNL     1     -33.851  26.567   4.663  0.00  0.00    +0.275 C 
ATOM      7  C   UNL     1     -35.768  27.055   2.658  0.00  0.00    +0.038 C 
ATOM      8  C   UNL     1     -34.939  28.131   3.291  0.00  0.00    +0.188 C 
ATOM      9  H   UNL     1     -34.553  30.149   3.309  0.00  0.00    +0.145 HD
ATOM     10  H   UNL     1     -35.753  29.668   2.197  0.00  0.00    +0.145 HD
ENDROOT
BRANCH   2  13
ATOM     11  O4* UNL     1     -34.750  23.314   3.383  0.00  0.00    -0.334 OA
ATOM     12  C3* UNL     1     -35.671  22.332   5.334  0.00  0.00    +0.144 C 
ATOM     13  C1* UNL     1     -34.456  24.177   4.491  0.00  0.00    +0.209 C 
ATOM     14  C2* UNL     1     -35.388  23.788   5.627  0.00  0.00    +0.084 C 
ATOM     15  C4* UNL     1     -35.652  22.277   3.813  0.00  0.00    +0.173 C 
BRANCH  12  16
ATOM     16  O3* UNL     1     -34.621  21.523   5.862  0.00  0.00    -0.382 OA
ATOM     17  H3* UNL     1     -34.565  20.698   5.356  0.00  0.00    +0.210 HD
ENDBRANCH  12  16
BRANCH  15  18
ATOM     18  C5* UNL     1     -37.016  22.554   3.192  0.00  0.00    +0.169 C 
BRANCH  18  19
ATOM     19  O5* UNL     1     -37.513  21.353   2.625  0.00  0.00    -0.379 OA
ATOM     20  H5* UNL     1     -38.480  21.333   2.708  0.00  0.00    +0.211 HD
ENDBRANCH  18  19
ENDBRANCH  15  18
ENDBRANCH   2  13
BRANCH   7  21
ATOM     21  C   UNL     1     -36.767  27.388   1.600  0.00  0.00    +0.032 C 
ATOM     22  C   UNL     1     -37.589  26.177   1.195  0.00  0.00    +0.005 C 
ENDBRANCH   7  21
TORSDOF 5
ENDMDL
MODEL 8
REMARK VINA RESULT:      -5.2      2.730      5.460
REMARK  Name = 513058
REMARK  5 active torsions:
REMARK  status: ('A' for Active; 'I' for Inactive)
REMARK    1  A    between atoms: N_2  and  C1*_13
REMARK    2  A    between atoms: C_7  and  C_21
REMARK    3  A    between atoms: C3*_12  and  O3*_16
REMARK    4  A    between atoms: C4*_15  and  C5*_18
REMARK    5  A    between atoms: C5*_18  and  O5*_19
REMARK                            x       y       z     vdW  Elec       q    Type
REMARK                         _______ _______ _______ _____ _____    ______ ____
ROOT
ATOM      1  O   UNL     1     -35.269  21.763   5.382  0.00  0.00    -0.193 OA
ATOM      2  N   UNL     1     -36.340  22.542   3.496  0.00  0.00    -0.181 N 
ATOM      3  N   UNL     1     -35.910  23.938   5.384  0.00  0.00    -0.306 NA
ATOM      4  N   UNL     1     -36.546  26.159   5.425  0.00  0.00    -0.332 N 
ATOM      5  C   UNL     1     -36.941  23.595   2.848  0.00  0.00    +0.079 C 
ATOM      6  C   UNL     1     -35.810  22.696   4.786  0.00  0.00    +0.275 C 
ATOM      7  C   UNL     1     -37.053  24.807   3.397  0.00  0.00    +0.038 C 
ATOM      8  C   UNL     1     -36.480  24.947   4.774  0.00  0.00    +0.188 C 
ATOM      9  H   UNL     1     -36.169  26.253   6.330  0.00  0.00    +0.145 HD
ATOM     10  H   UNL     1     -36.970  26.931   4.986  0.00  0.00    +0.145 HD
ENDROOT
BRANCH   2  13
ATOM     11  O4* UNL     1     -35.026  21.191   2.110  0.00  0.00    -0.334 OA
ATOM     12  C3* UNL     1     -36.715  20.277   0.720  0.00  0.00    +0.144 C 
ATOM     13  C1* UNL     1     -36.274  21.283   2.813  0.00  0.00    +0.209 C 
ATOM     14  C2* UNL     1     -37.384  21.109   1.790  0.00  0.00    +0.084 C 
ATOM     15  C4* UNL     1     -35.273  20.761   0.757  0.00  0.00    +0.173 C 
BRANCH  12  16
ATOM     16  O3* UNL     1     -36.772  18.897   1.079  0.00  0.00    -0.382 OA
ATOM     17  H3* UNL     1     -37.153  18.388   0.346  0.00  0.00    +0.210 HD
ENDBRANCH  12  16
BRANCH  15  18
ATOM     18  C5* UNL     1     -35.024  21.950  -0.164  0.00  0.00    +0.169 C 
BRANCH  18  19
ATOM     19  O5* UNL     1     -34.167  22.868   0.495  0.00  0.00    -0.379 OA
ATOM     20  H5* UNL     1     -33.416  23.080  -0.082  0.00  0.00    +0.211 HD
ENDBRANCH  18  19
ENDBRANCH  15  18
ENDBRANCH   2  13
BRANCH   7  21
ATOM     21  C   UNL     1     -37.700  25.970   2.721  0.00  0.00    +0.032 C 
ATOM     22  C   UNL     1     -39.215  25.883   2.768  0.00  0.00    +0.005 C 
ENDBRANCH   7  21
TORSDOF 5
ENDMDL
MODEL 9
REMARK VINA RESULT:      -5.2      2.521      3.479
REMARK  Name = 513058
REMARK  5 active torsions:
REMARK  status: ('A' for Active; 'I' for Inactive)
REMARK    1  A    between atoms: N_2  and  C1*_13
REMARK    2  A    between atoms: C_7  and  C_21
REMARK    3  A    between atoms: C3*_12  and  O3*_16
REMARK    4  A    between atoms: C4*_15  and  C5*_18
REMARK    5  A    between atoms: C5*_18  and  O5*_19
REMARK                            x       y       z     vdW  Elec       q    Type
REMARK                         _______ _______ _______ _____ _____    ______ ____
ROOT
ATOM      1  O   UNL     1     -37.156  26.687   2.262  0.00  0.00    -0.193 OA
ATOM      2  N   UNL     1     -35.594  25.618   3.576  0.00  0.00    -0.181 N 
ATOM      3  N   UNL     1     -37.488  24.482   2.672  0.00  0.00    -0.306 NA
ATOM      4  N   UNL     1     -37.861  22.236   3.066  0.00  0.00    -0.332 N 
ATOM      5  C   UNL     1     -35.176  24.455   4.178  0.00  0.00    +0.079 C 
ATOM      6  C   UNL     1     -36.767  25.652   2.807  0.00  0.00    +0.275 C 
ATOM      7  C   UNL     1     -35.849  23.307   4.067  0.00  0.00    +0.038 C 
ATOM      8  C   UNL     1     -37.097  23.368   3.241  0.00  0.00    +0.188 C 
ATOM      9  H   UNL     1     -38.681  22.274   2.523  0.00  0.00    +0.145 HD
ATOM     10  H   UNL     1     -37.586  21.388   3.484  0.00  0.00    +0.145 HD
ENDROOT
BRANCH   2  13
ATOM     11  O4* UNL     1     -34.116  27.104   2.535  0.00  0.00    -0.334 OA
ATOM     12  C3* UNL     1     -32.603  27.485   4.319  0.00  0.00    +0.144 C 
ATOM     13  C1* UNL     1     -34.793  26.794   3.761  0.00  0.00    +0.209 C 
ATOM     14  C2* UNL     1     -33.731  26.621   4.834  0.00  0.00    +0.084 C 
ATOM     15  C4* UNL     1     -32.722  27.344   2.808  0.00  0.00    +0.173 C 
BRANCH  12  16
ATOM     16  O3* UNL     1     -32.825  28.842   4.699  0.00  0.00    -0.382 OA
ATOM     17  H3* UNL     1     -33.725  29.104   4.448  0.00  0.00    +0.210 HD
ENDBRANCH  12  16
BRANCH  15  18
ATOM     18  C5* UNL     1     -31.927  26.167   2.258  0.00  0.00    +0.169 C 
BRANCH  18  19
ATOM     19  O5* UNL     1     -30.588  26.266   2.714  0.00  0.00    -0.379 OA
ATOM     20  H5* UNL     1     -30.569  26.178   3.680  0.00  0.00    +0.211 HD
ENDBRANCH  18  19
ENDBRANCH  15  18
ENDBRANCH   2  13
BRANCH   7  21
ATOM     21  C   UNL     1     -35.423  22.027   4.707  0.00  0.00    +0.032 C 
ATOM     22  C   UNL     1     -35.287  22.165   6.213  0.00  0.00    +0.005 C 
ENDBRANCH   7  21
TORSDOF 5
ENDMDL
