MODEL 1
REMARK VINA RESULT:      -5.7      0.000      0.000
REMARK  Name = 5359551
REMARK  10 active torsions:
REMARK  status: ('A' for Active; 'I' for Inactive)
REMARK    1  A    between atoms: C_3  and  C_17
REMARK    2  A    between atoms: C_6  and  O_13
REMARK    3  A    between atoms: C_9  and  O_15
REMARK    4  A    between atoms: C_17  and  N_18
REMARK    5  A    between atoms: N_18  and  C_20
REMARK    6  A    between atoms: N_18  and  C_24
REMARK    7  A    between atoms: C_20  and  C_21
REMARK    8  A    between atoms: C_21  and  O_22
REMARK    9  A    between atoms: C_24  and  C_25
REMARK   10  A    between atoms: C_25  and  O_26
REMARK                            x       y       z     vdW  Elec       q    Type
REMARK                         _______ _______ _______ _____ _____    ______ ____
ROOT
ATOM      1  O   UNL     1     -34.802  24.758   1.919  0.00  0.00    -0.421 OA
ATOM      2  O   UNL     1     -34.275  26.884   1.262  0.00  0.00    -0.244 OA
ATOM      3  C   UNL     1     -35.353  22.538   2.602  0.00  0.00    +0.028 C 
ATOM      4  C   UNL     1     -34.974  23.832   2.968  0.00  0.00    +0.145 C 
ATOM      5  C   UNL     1     -34.776  24.202   4.298  0.00  0.00    +0.034 C 
ATOM      6  C   UNL     1     -35.540  21.579   3.592  0.00  0.00    +0.164 C 
ATOM      7  C   UNL     1     -34.379  25.586   4.592  0.00  0.00    -0.012 C 
ATOM      8  C   UNL     1     -34.969  23.222   5.281  0.00  0.00    +0.042 C 
ATOM      9  C   UNL     1     -35.347  21.921   4.930  0.00  0.00    +0.167 C 
ATOM     10  C   UNL     1     -34.222  26.445   3.575  0.00  0.00    +0.078 C 
ATOM     11  C   UNL     1     -34.429  26.069   2.166  0.00  0.00    +0.346 C 
ATOM     12  C   UNL     1     -34.157  26.015   6.012  0.00  0.00    +0.031 C 
ENDROOT
BRANCH   6  13
ATOM     13  O   UNL     1     -35.907  20.310   3.262  0.00  0.00    -0.503 OA
ATOM     14  H   UNL     1     -35.612  19.930   2.458  0.00  0.00    +0.292 HD
ENDBRANCH   6  13
BRANCH   9  15
ATOM     15  O   UNL     1     -35.525  20.993   5.912  0.00  0.00    -0.503 OA
ATOM     16  H   UNL     1     -34.787  20.536   6.264  0.00  0.00    +0.292 HD
ENDBRANCH   9  15
BRANCH   3  17
ATOM     17  C   UNL     1     -35.554  22.181   1.164  0.00  0.00    -0.043 C 
BRANCH  17  18
ATOM     18  N   UNL     1     -36.859  21.565   0.925  0.00  0.00    +0.393 N 
ATOM     19  H   UNL     1     -37.048  20.903   1.677  0.00  0.00    -0.079 HD
BRANCH  18  20
ATOM     20  C   UNL     1     -36.854  20.836  -0.343  0.00  0.00    -0.044 C 
BRANCH  20  21
ATOM     21  C   UNL     1     -36.400  19.400  -0.135  0.00  0.00    +0.115 C 
BRANCH  21  22
ATOM     22  O   UNL     1     -36.996  18.899   1.054  0.00  0.00    -0.384 OA
ATOM     23  H   UNL     1     -36.303  18.650   1.684  0.00  0.00    +0.210 HD
ENDBRANCH  21  22
ENDBRANCH  20  21
ENDBRANCH  18  20
BRANCH  18  24
ATOM     24  C   UNL     1     -37.912  22.579   0.926  0.00  0.00    -0.044 C 
BRANCH  24  25
ATOM     25  C   UNL     1     -39.005  22.218   1.918  0.00  0.00    +0.115 C 
BRANCH  25  26
ATOM     26  O   UNL     1     -38.771  20.901   2.399  0.00  0.00    -0.384 OA
ATOM     27  H   UNL     1     -38.143  20.450   1.813  0.00  0.00    +0.210 HD
ENDBRANCH  25  26
ENDBRANCH  24  25
ENDBRANCH  18  24
ENDBRANCH  17  18
ENDBRANCH   3  17
TORSDOF 10
ENDMDL
MODEL 2
REMARK VINA RESULT:      -5.4      2.492      4.229
REMARK  Name = 5359551
REMARK  10 active torsions:
REMARK  status: ('A' for Active; 'I' for Inactive)
REMARK    1  A    between atoms: C_3  and  C_17
REMARK    2  A    between atoms: C_6  and  O_13
REMARK    3  A    between atoms: C_9  and  O_15
REMARK    4  A    between atoms: C_17  and  N_18
REMARK    5  A    between atoms: N_18  and  C_20
REMARK    6  A    between atoms: N_18  and  C_24
REMARK    7  A    between atoms: C_20  and  C_21
REMARK    8  A    between atoms: C_21  and  O_22
REMARK    9  A    between atoms: C_24  and  C_25
REMARK   10  A    between atoms: C_25  and  O_26
REMARK                            x       y       z     vdW  Elec       q    Type
REMARK                         _______ _______ _______ _____ _____    ______ ____
ROOT
ATOM      1  O   UNL     1     -35.914  25.144   3.348  0.00  0.00    -0.421 OA
ATOM      2  O   UNL     1     -35.328  26.732   4.885  0.00  0.00    -0.244 OA
ATOM      3  C   UNL     1     -36.527  23.488   1.742  0.00  0.00    +0.028 C 
ATOM      4  C   UNL     1     -36.082  23.780   3.032  0.00  0.00    +0.145 C 
ATOM      5  C   UNL     1     -35.815  22.783   3.972  0.00  0.00    +0.034 C 
ATOM      6  C   UNL     1     -36.712  22.160   1.371  0.00  0.00    +0.164 C 
ATOM      7  C   UNL     1     -35.350  23.182   5.307  0.00  0.00    -0.012 C 
ATOM      8  C   UNL     1     -36.007  21.452   3.580  0.00  0.00    +0.042 C 
ATOM      9  C   UNL     1     -36.453  21.144   2.288  0.00  0.00    +0.167 C 
ATOM     10  C   UNL     1     -35.200  24.486   5.580  0.00  0.00    +0.078 C 
ATOM     11  C   UNL     1     -35.478  25.549   4.599  0.00  0.00    +0.346 C 
ATOM     12  C   UNL     1     -35.053  22.134   6.340  0.00  0.00    +0.031 C 
ENDROOT
BRANCH   6  13
ATOM     13  O   UNL     1     -37.145  21.848   0.117  0.00  0.00    -0.503 OA
ATOM     14  H   UNL     1     -38.062  21.766  -0.055  0.00  0.00    +0.292 HD
ENDBRANCH   6  13
BRANCH   9  15
ATOM     15  O   UNL     1     -36.628  19.837   1.941  0.00  0.00    -0.503 OA
ATOM     16  H   UNL     1     -35.943  19.216   2.092  0.00  0.00    +0.292 HD
ENDBRANCH   9  15
BRANCH   3  17
ATOM     17  C   UNL     1     -36.801  24.585   0.764  0.00  0.00    -0.043 C 
BRANCH  17  18
ATOM     18  N   UNL     1     -37.729  25.582   1.297  0.00  0.00    +0.393 N 
ATOM     19  H   UNL     1     -37.388  25.888   2.208  0.00  0.00    -0.079 HD
BRANCH  18  20
ATOM     20  C   UNL     1     -39.059  24.999   1.472  0.00  0.00    -0.044 C 
BRANCH  20  21
ATOM     21  C   UNL     1     -39.621  25.343   2.842  0.00  0.00    +0.115 C 
BRANCH  21  22
ATOM     22  O   UNL     1     -38.750  26.271   3.474  0.00  0.00    -0.384 OA
ATOM     23  H   UNL     1     -38.783  27.118   3.005  0.00  0.00    +0.210 HD
ENDBRANCH  21  22
ENDBRANCH  20  21
ENDBRANCH  18  20
BRANCH  18  24
ATOM     24  C   UNL     1     -37.794  26.745   0.413  0.00  0.00    -0.044 C 
BRANCH  24  25
ATOM     25  C   UNL     1     -36.813  27.816   0.861  0.00  0.00    +0.115 C 
BRANCH  25  26
ATOM     26  O   UNL     1     -36.716  27.783   2.279  0.00  0.00    -0.384 OA
ATOM     27  H   UNL     1     -37.372  27.164   2.634  0.00  0.00    +0.210 HD
ENDBRANCH  25  26
ENDBRANCH  24  25
ENDBRANCH  18  24
ENDBRANCH  17  18
ENDBRANCH   3  17
TORSDOF 10
ENDMDL
MODEL 3
REMARK VINA RESULT:      -5.4      1.131      1.765
REMARK  Name = 5359551
REMARK  10 active torsions:
REMARK  status: ('A' for Active; 'I' for Inactive)
REMARK    1  A    between atoms: C_3  and  C_17
REMARK    2  A    between atoms: C_6  and  O_13
REMARK    3  A    between atoms: C_9  and  O_15
REMARK    4  A    between atoms: C_17  and  N_18
REMARK    5  A    between atoms: N_18  and  C_20
REMARK    6  A    between atoms: N_18  and  C_24
REMARK    7  A    between atoms: C_20  and  C_21
REMARK    8  A    between atoms: C_21  and  O_22
REMARK    9  A    between atoms: C_24  and  C_25
REMARK   10  A    between atoms: C_25  and  O_26
REMARK                            x       y       z     vdW  Elec       q    Type
REMARK                         _______ _______ _______ _____ _____    ______ ____
ROOT
ATOM      1  O   UNL     1     -35.261  24.866   2.018  0.00  0.00    -0.421 OA
ATOM      2  O   UNL     1     -34.942  27.031   1.355  0.00  0.00    -0.244 OA
ATOM      3  C   UNL     1     -35.596  22.606   2.707  0.00  0.00    +0.028 C 
ATOM      4  C   UNL     1     -35.229  23.908   3.052  0.00  0.00    +0.145 C 
ATOM      5  C   UNL     1     -34.848  24.256   4.348  0.00  0.00    +0.034 C 
ATOM      6  C   UNL     1     -35.585  21.615   3.685  0.00  0.00    +0.164 C 
ATOM      7  C   UNL     1     -34.477  25.652   4.621  0.00  0.00    -0.012 C 
ATOM      8  C   UNL     1     -34.842  23.246   5.318  0.00  0.00    +0.042 C 
ATOM      9  C   UNL     1     -35.208  21.935   4.988  0.00  0.00    +0.167 C 
ATOM     10  C   UNL     1     -34.518  26.542   3.619  0.00  0.00    +0.078 C 
ATOM     11  C   UNL     1     -34.918  26.189   2.246  0.00  0.00    +0.346 C 
ATOM     12  C   UNL     1     -34.062  26.059   6.004  0.00  0.00    +0.031 C 
ENDROOT
BRANCH   6  13
ATOM     13  O   UNL     1     -35.938  20.336   3.375  0.00  0.00    -0.503 OA
ATOM     14  H   UNL     1     -36.009  20.074   2.478  0.00  0.00    +0.292 HD
ENDBRANCH   6  13
BRANCH   9  15
ATOM     15  O   UNL     1     -35.190  20.976   5.957  0.00  0.00    -0.503 OA
ATOM     16  H   UNL     1     -35.444  20.098   5.751  0.00  0.00    +0.292 HD
ENDBRANCH   9  15
BRANCH   3  17
ATOM     17  C   UNL     1     -35.997  22.272   1.306  0.00  0.00    -0.043 C 
BRANCH  17  18
ATOM     18  N   UNL     1     -35.406  21.016   0.845  0.00  0.00    +0.393 N 
ATOM     19  H   UNL     1     -35.507  20.320   1.584  0.00  0.00    -0.079 HD
BRANCH  18  20
ATOM     20  C   UNL     1     -33.981  21.194   0.569  0.00  0.00    -0.044 C 
BRANCH  20  21
ATOM     21  C   UNL     1     -33.231  19.884   0.750  0.00  0.00    +0.115 C 
BRANCH  21  22
ATOM     22  O   UNL     1     -33.840  19.150   1.803  0.00  0.00    -0.384 OA
ATOM     23  H   UNL     1     -33.157  18.830   2.412  0.00  0.00    +0.210 HD
ENDBRANCH  21  22
ENDBRANCH  20  21
ENDBRANCH  18  20
BRANCH  18  24
ATOM     24  C   UNL     1     -36.101  20.531  -0.345  0.00  0.00    -0.044 C 
BRANCH  24  25
ATOM     25  C   UNL     1     -37.186  19.536   0.033  0.00  0.00    +0.115 C 
BRANCH  25  26
ATOM     26  O   UNL     1     -36.725  18.750   1.125  0.00  0.00    -0.384 OA
ATOM     27  H   UNL     1     -36.454  17.876   0.803  0.00  0.00    +0.210 HD
ENDBRANCH  25  26
ENDBRANCH  24  25
ENDBRANCH  18  24
ENDBRANCH  17  18
ENDBRANCH   3  17
TORSDOF 10
ENDMDL
MODEL 4
REMARK VINA RESULT:      -5.4      2.075      4.007
REMARK  Name = 5359551
REMARK  10 active torsions:
REMARK  status: ('A' for Active; 'I' for Inactive)
REMARK    1  A    between atoms: C_3  and  C_17
REMARK    2  A    between atoms: C_6  and  O_13
REMARK    3  A    between atoms: C_9  and  O_15
REMARK    4  A    between atoms: C_17  and  N_18
REMARK    5  A    between atoms: N_18  and  C_20
REMARK    6  A    between atoms: N_18  and  C_24
REMARK    7  A    between atoms: C_20  and  C_21
REMARK    8  A    between atoms: C_21  and  O_22
REMARK    9  A    between atoms: C_24  and  C_25
REMARK   10  A    between atoms: C_25  and  O_26
REMARK                            x       y       z     vdW  Elec       q    Type
REMARK                         _______ _______ _______ _____ _____    ______ ____
ROOT
ATOM      1  O   UNL     1     -36.438  22.308   4.169  0.00  0.00    -0.421 OA
ATOM      2  O   UNL     1     -35.212  21.027   5.612  0.00  0.00    -0.244 OA
ATOM      3  C   UNL     1     -37.718  23.642   2.660  0.00  0.00    +0.028 C 
ATOM      4  C   UNL     1     -36.752  23.587   3.666  0.00  0.00    +0.145 C 
ATOM      5  C   UNL     1     -36.120  24.731   4.156  0.00  0.00    +0.034 C 
ATOM      6  C   UNL     1     -38.070  24.877   2.123  0.00  0.00    +0.164 C 
ATOM      7  C   UNL     1     -35.114  24.578   5.216  0.00  0.00    -0.012 C 
ATOM      8  C   UNL     1     -36.488  25.964   3.603  0.00  0.00    +0.042 C 
ATOM      9  C   UNL     1     -37.456  26.036   2.594  0.00  0.00    +0.167 C 
ATOM     10  C   UNL     1     -34.835  23.350   5.675  0.00  0.00    +0.078 C 
ATOM     11  C   UNL     1     -35.493  22.134   5.167  0.00  0.00    +0.346 C 
ATOM     12  C   UNL     1     -34.417  25.789   5.766  0.00  0.00    +0.031 C 
ENDROOT
BRANCH   6  13
ATOM     13  O   UNL     1     -39.011  24.959   1.141  0.00  0.00    -0.503 OA
ATOM     14  H   UNL     1     -39.243  24.196   0.649  0.00  0.00    +0.292 HD
ENDBRANCH   6  13
BRANCH   9  15
ATOM     15  O   UNL     1     -37.790  27.253   2.080  0.00  0.00    -0.503 OA
ATOM     16  H   UNL     1     -37.693  27.416   1.162  0.00  0.00    +0.292 HD
ENDBRANCH   9  15
BRANCH   3  17
ATOM     17  C   UNL     1     -38.372  22.394   2.162  0.00  0.00    -0.043 C 
BRANCH  17  18
ATOM     18  N   UNL     1     -37.903  22.016   0.829  0.00  0.00    +0.393 N 
ATOM     19  H   UNL     1     -37.821  22.861   0.263  0.00  0.00    -0.079 HD
BRANCH  18  20
ATOM     20  C   UNL     1     -38.862  21.120   0.186  0.00  0.00    -0.044 C 
BRANCH  20  21
ATOM     21  C   UNL     1     -40.248  21.744   0.160  0.00  0.00    +0.115 C 
BRANCH  21  22
ATOM     22  O   UNL     1     -41.208  20.740   0.457  0.00  0.00    -0.384 OA
ATOM     23  H   UNL     1     -40.754  19.921   0.704  0.00  0.00    +0.210 HD
ENDBRANCH  21  22
ENDBRANCH  20  21
ENDBRANCH  18  20
BRANCH  18  24
ATOM     24  C   UNL     1     -36.588  21.384   0.911  0.00  0.00    -0.044 C 
BRANCH  24  25
ATOM     25  C   UNL     1     -36.715  19.930   1.336  0.00  0.00    +0.115 C 
BRANCH  25  26
ATOM     26  O   UNL     1     -36.495  19.842   2.738  0.00  0.00    -0.384 OA
ATOM     27  H   UNL     1     -35.881  19.114   2.924  0.00  0.00    +0.210 HD
ENDBRANCH  25  26
ENDBRANCH  24  25
ENDBRANCH  18  24
ENDBRANCH  17  18
ENDBRANCH   3  17
TORSDOF 10
ENDMDL
MODEL 5
REMARK VINA RESULT:      -5.3      2.416      3.610
REMARK  Name = 5359551
REMARK  10 active torsions:
REMARK  status: ('A' for Active; 'I' for Inactive)
REMARK    1  A    between atoms: C_3  and  C_17
REMARK    2  A    between atoms: C_6  and  O_13
REMARK    3  A    between atoms: C_9  and  O_15
REMARK    4  A    between atoms: C_17  and  N_18
REMARK    5  A    between atoms: N_18  and  C_20
REMARK    6  A    between atoms: N_18  and  C_24
REMARK    7  A    between atoms: C_20  and  C_21
REMARK    8  A    between atoms: C_21  and  O_22
REMARK    9  A    between atoms: C_24  and  C_25
REMARK   10  A    between atoms: C_25  and  O_26
REMARK                            x       y       z     vdW  Elec       q    Type
REMARK                         _______ _______ _______ _____ _____    ______ ____
ROOT
ATOM      1  O   UNL     1     -36.418  24.788   3.643  0.00  0.00    -0.421 OA
ATOM      2  O   UNL     1     -36.126  26.291   5.341  0.00  0.00    -0.244 OA
ATOM      3  C   UNL     1     -36.725  23.220   1.870  0.00  0.00    +0.028 C 
ATOM      4  C   UNL     1     -36.289  23.465   3.174  0.00  0.00    +0.145 C 
ATOM      5  C   UNL     1     -35.754  22.460   3.981  0.00  0.00    +0.034 C 
ATOM      6  C   UNL     1     -36.624  21.934   1.350  0.00  0.00    +0.164 C 
ATOM      7  C   UNL     1     -35.322  22.808   5.342  0.00  0.00    -0.012 C 
ATOM      8  C   UNL     1     -35.661  21.172   3.440  0.00  0.00    +0.042 C 
ATOM      9  C   UNL     1     -36.093  20.911   2.134  0.00  0.00    +0.167 C 
ATOM     10  C   UNL     1     -35.456  24.074   5.762  0.00  0.00    +0.078 C 
ATOM     11  C   UNL     1     -36.020  25.144   4.921  0.00  0.00    +0.346 C 
ATOM     12  C   UNL     1     -34.741  21.751   6.235  0.00  0.00    +0.031 C 
ENDROOT
BRANCH   6  13
ATOM     13  O   UNL     1     -37.040  21.668   0.080  0.00  0.00    -0.503 OA
ATOM     14  H   UNL     1     -37.761  22.142  -0.286  0.00  0.00    +0.292 HD
ENDBRANCH   6  13
BRANCH   9  15
ATOM     15  O   UNL     1     -35.986  19.645   1.639  0.00  0.00    -0.503 OA
ATOM     16  H   UNL     1     -35.181  19.359   1.255  0.00  0.00    +0.292 HD
ENDBRANCH   9  15
BRANCH   3  17
ATOM     17  C   UNL     1     -37.292  24.324   1.036  0.00  0.00    -0.043 C 
BRANCH  17  18
ATOM     18  N   UNL     1     -38.711  24.550   1.308  0.00  0.00    +0.393 N 
ATOM     19  H   UNL     1     -38.998  23.932   2.067  0.00  0.00    -0.079 HD
BRANCH  18  20
ATOM     20  C   UNL     1     -39.513  24.233   0.126  0.00  0.00    -0.044 C 
BRANCH  20  21
ATOM     21  C   UNL     1     -40.579  23.203   0.461  0.00  0.00    +0.115 C 
BRANCH  21  22
ATOM     22  O   UNL     1     -40.321  22.680   1.756  0.00  0.00    -0.384 OA
ATOM     23  H   UNL     1     -39.364  22.637   1.903  0.00  0.00    +0.210 HD
ENDBRANCH  21  22
ENDBRANCH  20  21
ENDBRANCH  18  20
BRANCH  18  24
ATOM     24  C   UNL     1     -38.938  25.932   1.724  0.00  0.00    -0.044 C 
BRANCH  24  25
ATOM     25  C   UNL     1     -39.757  25.981   3.004  0.00  0.00    +0.115 C 
BRANCH  25  26
ATOM     26  O   UNL     1     -39.447  24.837   3.789  0.00  0.00    -0.384 OA
ATOM     27  H   UNL     1     -39.316  25.104   4.712  0.00  0.00    +0.210 HD
ENDBRANCH  25  26
ENDBRANCH  24  25
ENDBRANCH  18  24
ENDBRANCH  17  18
ENDBRANCH   3  17
TORSDOF 10
ENDMDL
MODEL 6
REMARK VINA RESULT:      -5.2      2.681      4.459
REMARK  Name = 5359551
REMARK  10 active torsions:
REMARK  status: ('A' for Active; 'I' for Inactive)
REMARK    1  A    between atoms: C_3  and  C_17
REMARK    2  A    between atoms: C_6  and  O_13
REMARK    3  A    between atoms: C_9  and  O_15
REMARK    4  A    between atoms: C_17  and  N_18
REMARK    5  A    between atoms: N_18  and  C_20
REMARK    6  A    between atoms: N_18  and  C_24
REMARK    7  A    between atoms: C_20  and  C_21
REMARK    8  A    between atoms: C_21  and  O_22
REMARK    9  A    between atoms: C_24  and  C_25
REMARK   10  A    between atoms: C_25  and  O_26
REMARK                            x       y       z     vdW  Elec       q    Type
REMARK                         _______ _______ _______ _____ _____    ______ ____
ROOT
ATOM      1  O   UNL     1     -36.567  22.099   2.353  0.00  0.00    -0.421 OA
ATOM      2  O   UNL     1     -35.954  19.919   2.044  0.00  0.00    -0.244 OA
ATOM      3  C   UNL     1     -37.208  24.376   2.672  0.00  0.00    +0.028 C 
ATOM      4  C   UNL     1     -36.562  23.245   3.175  0.00  0.00    +0.145 C 
ATOM      5  C   UNL     1     -35.940  23.235   4.424  0.00  0.00    +0.034 C 
ATOM      6  C   UNL     1     -37.236  25.538   3.438  0.00  0.00    +0.164 C 
ATOM      7  C   UNL     1     -35.284  21.999   4.873  0.00  0.00    -0.012 C 
ATOM      8  C   UNL     1     -35.979  24.414   5.179  0.00  0.00    +0.042 C 
ATOM      9  C   UNL     1     -36.623  25.556   4.689  0.00  0.00    +0.167 C 
ATOM     10  C   UNL     1     -35.303  20.925   4.070  0.00  0.00    +0.078 C 
ATOM     11  C   UNL     1     -35.956  20.921   2.750  0.00  0.00    +0.346 C 
ATOM     12  C   UNL     1     -34.606  21.955   6.211  0.00  0.00    +0.031 C 
ENDROOT
BRANCH   6  13
ATOM     13  O   UNL     1     -37.860  26.656   2.971  0.00  0.00    -0.503 OA
ATOM     14  H   UNL     1     -38.793  26.670   2.885  0.00  0.00    +0.292 HD
ENDBRANCH   6  13
BRANCH   9  15
ATOM     15  O   UNL     1     -36.643  26.686   5.452  0.00  0.00    -0.503 OA
ATOM     16  H   UNL     1     -37.045  26.673   6.298  0.00  0.00    +0.292 HD
ENDBRANCH   9  15
BRANCH   3  17
ATOM     17  C   UNL     1     -37.864  24.346   1.330  0.00  0.00    -0.043 C 
BRANCH  17  18
ATOM     18  N   UNL     1     -39.287  24.678   1.401  0.00  0.00    +0.393 N 
ATOM     19  H   UNL     1     -39.401  25.482   2.018  0.00  0.00    -0.079 HD
BRANCH  18  20
ATOM     20  C   UNL     1     -40.045  23.557   1.956  0.00  0.00    -0.044 C 
BRANCH  20  21
ATOM     21  C   UNL     1     -39.695  22.263   1.238  0.00  0.00    +0.115 C 
BRANCH  21  22
ATOM     22  O   UNL     1     -39.417  21.263   2.208  0.00  0.00    -0.384 OA
ATOM     23  H   UNL     1     -39.965  20.482   2.034  0.00  0.00    +0.210 HD
ENDBRANCH  21  22
ENDBRANCH  20  21
ENDBRANCH  18  20
BRANCH  18  24
ATOM     24  C   UNL     1     -39.795  25.033   0.078  0.00  0.00    -0.044 C 
BRANCH  24  25
ATOM     25  C   UNL     1     -39.984  26.537  -0.040  0.00  0.00    +0.115 C 
BRANCH  25  26
ATOM     26  O   UNL     1     -40.167  27.079   1.262  0.00  0.00    -0.384 OA
ATOM     27  H   UNL     1     -40.388  26.366   1.881  0.00  0.00    +0.210 HD
ENDBRANCH  25  26
ENDBRANCH  24  25
ENDBRANCH  18  24
ENDBRANCH  17  18
ENDBRANCH   3  17
TORSDOF 10
ENDMDL
MODEL 7
REMARK VINA RESULT:      -5.1      2.124      3.807
REMARK  Name = 5359551
REMARK  10 active torsions:
REMARK  status: ('A' for Active; 'I' for Inactive)
REMARK    1  A    between atoms: C_3  and  C_17
REMARK    2  A    between atoms: C_6  and  O_13
REMARK    3  A    between atoms: C_9  and  O_15
REMARK    4  A    between atoms: C_17  and  N_18
REMARK    5  A    between atoms: N_18  and  C_20
REMARK    6  A    between atoms: N_18  and  C_24
REMARK    7  A    between atoms: C_20  and  C_21
REMARK    8  A    between atoms: C_21  and  O_22
REMARK    9  A    between atoms: C_24  and  C_25
REMARK   10  A    between atoms: C_25  and  O_26
REMARK                            x       y       z     vdW  Elec       q    Type
REMARK                         _______ _______ _______ _____ _____    ______ ____
ROOT
ATOM      1  O   UNL     1     -36.048  22.307   2.180  0.00  0.00    -0.421 OA
ATOM      2  O   UNL     1     -35.490  20.109   1.886  0.00  0.00    -0.244 OA
ATOM      3  C   UNL     1     -36.631  24.601   2.483  0.00  0.00    +0.028 C 
ATOM      4  C   UNL     1     -36.166  23.412   3.047  0.00  0.00    +0.145 C 
ATOM      5  C   UNL     1     -35.831  23.309   4.397  0.00  0.00    +0.034 C 
ATOM      6  C   UNL     1     -36.768  25.728   3.288  0.00  0.00    +0.164 C 
ATOM      7  C   UNL     1     -35.349  22.017   4.906  0.00  0.00    -0.012 C 
ATOM      8  C   UNL     1     -35.975  24.453   5.193  0.00  0.00    +0.042 C 
ATOM      9  C   UNL     1     -36.441  25.653   4.641  0.00  0.00    +0.167 C 
ATOM     10  C   UNL     1     -35.247  20.984   4.059  0.00  0.00    +0.078 C 
ATOM     11  C   UNL     1     -35.596  21.078   2.631  0.00  0.00    +0.346 C 
ATOM     12  C   UNL     1     -34.981  21.873   6.354  0.00  0.00    +0.031 C 
ENDROOT
BRANCH   6  13
ATOM     13  O   UNL     1     -37.220  26.901   2.763  0.00  0.00    -0.503 OA
ATOM     14  H   UNL     1     -37.145  27.062   1.843  0.00  0.00    +0.292 HD
ENDBRANCH   6  13
BRANCH   9  15
ATOM     15  O   UNL     1     -36.570  26.747   5.444  0.00  0.00    -0.503 OA
ATOM     16  H   UNL     1     -35.809  27.222   5.715  0.00  0.00    +0.292 HD
ENDBRANCH   9  15
BRANCH   3  17
ATOM     17  C   UNL     1     -36.980  24.671   1.031  0.00  0.00    -0.043 C 
BRANCH  17  18
ATOM     18  N   UNL     1     -37.959  23.653   0.648  0.00  0.00    +0.393 N 
ATOM     19  H   UNL     1     -37.743  22.791   1.149  0.00  0.00    -0.079 HD
BRANCH  18  20
ATOM     20  C   UNL     1     -37.881  23.386  -0.788  0.00  0.00    -0.044 C 
BRANCH  20  21
ATOM     21  C   UNL     1     -37.665  21.903  -1.048  0.00  0.00    +0.115 C 
BRANCH  21  22
ATOM     22  O   UNL     1     -36.332  21.566  -0.691  0.00  0.00    -0.384 OA
ATOM     23  H   UNL     1     -36.003  20.874  -1.285  0.00  0.00    +0.210 HD
ENDBRANCH  21  22
ENDBRANCH  20  21
ENDBRANCH  18  20
BRANCH  18  24
ATOM     24  C   UNL     1     -39.308  24.077   1.016  0.00  0.00    -0.044 C 
BRANCH  24  25
ATOM     25  C   UNL     1     -39.863  23.201   2.128  0.00  0.00    +0.115 C 
BRANCH  25  26
ATOM     26  O   UNL     1     -39.163  21.964   2.128  0.00  0.00    -0.384 OA
ATOM     27  H   UNL     1     -38.543  21.943   1.382  0.00  0.00    +0.210 HD
ENDBRANCH  25  26
ENDBRANCH  24  25
ENDBRANCH  18  24
ENDBRANCH  17  18
ENDBRANCH   3  17
TORSDOF 10
ENDMDL
MODEL 8
REMARK VINA RESULT:      -5.0      1.861      3.922
REMARK  Name = 5359551
REMARK  10 active torsions:
REMARK  status: ('A' for Active; 'I' for Inactive)
REMARK    1  A    between atoms: C_3  and  C_17
REMARK    2  A    between atoms: C_6  and  O_13
REMARK    3  A    between atoms: C_9  and  O_15
REMARK    4  A    between atoms: C_17  and  N_18
REMARK    5  A    between atoms: N_18  and  C_20
REMARK    6  A    between atoms: N_18  and  C_24
REMARK    7  A    between atoms: C_20  and  C_21
REMARK    8  A    between atoms: C_21  and  O_22
REMARK    9  A    between atoms: C_24  and  C_25
REMARK   10  A    between atoms: C_25  and  O_26
REMARK                            x       y       z     vdW  Elec       q    Type
REMARK                         _______ _______ _______ _____ _____    ______ ____
ROOT
ATOM      1  O   UNL     1     -36.254  22.541   3.648  0.00  0.00    -0.421 OA
ATOM      2  O   UNL     1     -35.271  21.063   5.090  0.00  0.00    -0.244 OA
ATOM      3  C   UNL     1     -37.281  24.081   2.142  0.00  0.00    +0.028 C 
ATOM      4  C   UNL     1     -36.456  23.878   3.250  0.00  0.00    +0.145 C 
ATOM      5  C   UNL     1     -35.855  24.934   3.935  0.00  0.00    +0.034 C 
ATOM      6  C   UNL     1     -37.517  25.379   1.700  0.00  0.00    +0.164 C 
ATOM      7  C   UNL     1     -35.001  24.627   5.091  0.00  0.00    -0.012 C 
ATOM      8  C   UNL     1     -36.105  26.234   3.475  0.00  0.00    +0.042 C 
ATOM      9  C   UNL     1     -36.930  26.453   2.366  0.00  0.00    +0.167 C 
ATOM     10  C   UNL     1     -34.826  23.347   5.447  0.00  0.00    +0.078 C 
ATOM     11  C   UNL     1     -35.454  22.222   4.733  0.00  0.00    +0.346 C 
ATOM     12  C   UNL     1     -34.341  25.741   5.850  0.00  0.00    +0.031 C 
ENDROOT
BRANCH   6  13
ATOM     13  O   UNL     1     -38.319  25.605   0.622  0.00  0.00    -0.503 OA
ATOM     14  H   UNL     1     -39.225  25.808   0.746  0.00  0.00    +0.292 HD
ENDBRANCH   6  13
BRANCH   9  15
ATOM     15  O   UNL     1     -37.153  27.731   1.946  0.00  0.00    -0.503 OA
ATOM     16  H   UNL     1     -37.697  27.891   1.200  0.00  0.00    +0.292 HD
ENDBRANCH   9  15
BRANCH   3  17
ATOM     17  C   UNL     1     -37.906  22.922   1.435  0.00  0.00    -0.043 C 
BRANCH  17  18
ATOM     18  N   UNL     1     -36.910  21.976   0.932  0.00  0.00    +0.393 N 
ATOM     19  H   UNL     1     -36.243  21.782   1.678  0.00  0.00    -0.079 HD
BRANCH  18  20
ATOM     20  C   UNL     1     -36.185  22.553  -0.199  0.00  0.00    -0.044 C 
BRANCH  20  21
ATOM     21  C   UNL     1     -34.689  22.564   0.072  0.00  0.00    +0.115 C 
BRANCH  21  22
ATOM     22  O   UNL     1     -34.442  21.912   1.310  0.00  0.00    -0.384 OA
ATOM     23  H   UNL     1     -34.400  22.571   2.020  0.00  0.00    +0.210 HD
ENDBRANCH  21  22
ENDBRANCH  20  21
ENDBRANCH  18  20
BRANCH  18  24
ATOM     24  C   UNL     1     -37.549  20.720   0.543  0.00  0.00    -0.044 C 
BRANCH  24  25
ATOM     25  C   UNL     1     -36.806  19.533   1.135  0.00  0.00    +0.115 C 
BRANCH  25  26
ATOM     26  O   UNL     1     -36.530  19.803   2.503  0.00  0.00    -0.384 OA
ATOM     27  H   UNL     1     -36.016  20.622   2.574  0.00  0.00    +0.210 HD
ENDBRANCH  25  26
ENDBRANCH  24  25
ENDBRANCH  18  24
ENDBRANCH  17  18
ENDBRANCH   3  17
TORSDOF 10
ENDMDL
MODEL 9
REMARK VINA RESULT:      -5.0      2.033      3.880
REMARK  Name = 5359551
REMARK  10 active torsions:
REMARK  status: ('A' for Active; 'I' for Inactive)
REMARK    1  A    between atoms: C_3  and  C_17
REMARK    2  A    between atoms: C_6  and  O_13
REMARK    3  A    between atoms: C_9  and  O_15
REMARK    4  A    between atoms: C_17  and  N_18
REMARK    5  A    between atoms: N_18  and  C_20
REMARK    6  A    between atoms: N_18  and  C_24
REMARK    7  A    between atoms: C_20  and  C_21
REMARK    8  A    between atoms: C_21  and  O_22
REMARK    9  A    between atoms: C_24  and  C_25
REMARK   10  A    between atoms: C_25  and  O_26
REMARK                            x       y       z     vdW  Elec       q    Type
REMARK                         _______ _______ _______ _____ _____    ______ ____
ROOT
ATOM      1  O   UNL     1     -36.082  22.740   3.585  0.00  0.00    -0.421 OA
ATOM      2  O   UNL     1     -35.253  21.215   5.073  0.00  0.00    -0.244 OA
ATOM      3  C   UNL     1     -36.949  24.329   2.030  0.00  0.00    +0.028 C 
ATOM      4  C   UNL     1     -36.233  24.089   3.204  0.00  0.00    +0.145 C 
ATOM      5  C   UNL     1     -35.688  25.121   3.969  0.00  0.00    +0.034 C 
ATOM      6  C   UNL     1     -37.131  25.641   1.601  0.00  0.00    +0.164 C 
ATOM      7  C   UNL     1     -34.949  24.775   5.191  0.00  0.00    -0.012 C 
ATOM      8  C   UNL     1     -35.882  26.434   3.522  0.00  0.00    +0.042 C 
ATOM      9  C   UNL     1     -36.598  26.691   2.346  0.00  0.00    +0.167 C 
ATOM     10  C   UNL     1     -34.821  23.485   5.529  0.00  0.00    +0.078 C 
ATOM     11  C   UNL     1     -35.390  22.385   4.731  0.00  0.00    +0.346 C 
ATOM     12  C   UNL     1     -34.352  25.862   6.037  0.00  0.00    +0.031 C 
ENDROOT
BRANCH   6  13
ATOM     13  O   UNL     1     -37.827  25.903   0.460  0.00  0.00    -0.503 OA
ATOM     14  H   UNL     1     -38.158  26.765   0.300  0.00  0.00    +0.292 HD
ENDBRANCH   6  13
BRANCH   9  15
ATOM     15  O   UNL     1     -36.768  27.982   1.941  0.00  0.00    -0.503 OA
ATOM     16  H   UNL     1     -37.234  28.166   1.149  0.00  0.00    +0.292 HD
ENDBRANCH   9  15
BRANCH   3  17
ATOM     17  C   UNL     1     -37.518  23.196   1.239  0.00  0.00    -0.043 C 
BRANCH  17  18
ATOM     18  N   UNL     1     -38.444  22.381   2.025  0.00  0.00    +0.393 N 
ATOM     19  H   UNL     1     -38.113  22.353   2.989  0.00  0.00    -0.079 HD
BRANCH  18  20
ATOM     20  C   UNL     1     -38.484  21.014   1.509  0.00  0.00    -0.044 C 
BRANCH  20  21
ATOM     21  C   UNL     1     -37.080  20.446   1.380  0.00  0.00    +0.115 C 
BRANCH  21  22
ATOM     22  O   UNL     1     -36.698  19.882   2.626  0.00  0.00    -0.384 OA
ATOM     23  H   UNL     1     -37.139  19.026   2.743  0.00  0.00    +0.210 HD
ENDBRANCH  21  22
ENDBRANCH  20  21
ENDBRANCH  18  20
BRANCH  18  24
ATOM     24  C   UNL     1     -39.781  22.972   2.012  0.00  0.00    -0.044 C 
BRANCH  24  25
ATOM     25  C   UNL     1     -40.225  23.267   0.588  0.00  0.00    +0.115 C 
BRANCH  25  26
ATOM     26  O   UNL     1     -40.627  24.629   0.507  0.00  0.00    -0.384 OA
ATOM     27  H   UNL     1     -40.049  25.100  -0.114  0.00  0.00    +0.210 HD
ENDBRANCH  25  26
ENDBRANCH  24  25
ENDBRANCH  18  24
ENDBRANCH  17  18
ENDBRANCH   3  17
TORSDOF 10
ENDMDL
