MODEL 1
REMARK VINA RESULT:      -7.2      0.000      0.000
REMARK  Name = 503737
REMARK  9 active torsions:
REMARK  status: ('A' for Active; 'I' for Inactive)
REMARK    1  A    between atoms: C_1  and  O_20
REMARK    2  A    between atoms: C_2  and  C_9
REMARK    3  A    between atoms: C_16  and  O_18
REMARK    4  A    between atoms: O_20  and  C_26
REMARK    5  A    between atoms: C_22  and  O_27
REMARK    6  A    between atoms: C_23  and  O_29
REMARK    7  A    between atoms: C_24  and  O_31
REMARK    8  A    between atoms: C_25  and  C_33
REMARK    9  A    between atoms: C_33  and  O_34
REMARK                            x       y       z     vdW  Elec       q    Type
REMARK                         _______ _______ _______ _____ _____    ______ ____
ROOT
ATOM      1  C   UNL     1     -35.257  24.535   4.348  0.00  0.00    +0.141 C 
ATOM      2  C   UNL     1     -33.479  26.668   4.536  0.00  0.00    +0.018 C 
ATOM      3  C   UNL     1     -34.608  24.996   3.207  0.00  0.00    +0.037 C 
ATOM      4  C   UNL     1     -35.023  25.133   5.583  0.00  0.00    +0.037 C 
ATOM      5  C   UNL     1     -33.717  26.065   3.300  0.00  0.00    +0.002 C 
ATOM      6  C   UNL     1     -34.132  26.202   5.676  0.00  0.00    +0.002 C 
ENDROOT
BRANCH   2   9
ATOM      7  O   UNL     1     -33.127  28.985   4.048  0.00  0.00    -0.474 OA
ATOM      8  O   UNL     1     -30.330  29.388   7.022  0.00  0.00    -0.291 OA
ATOM      9  C   UNL     1     -32.512  27.829   4.638  0.00  0.00    +0.196 C 
ATOM     10  C   UNL     1     -32.125  28.096   6.092  0.00  0.00    +0.117 C 
ATOM     11  C   UNL     1     -31.172  29.262   6.140  0.00  0.00    +0.180 C 
ATOM     12  C   UNL     1     -31.356  30.292   5.097  0.00  0.00    +0.069 C 
ATOM     13  C   UNL     1     -32.340  30.104   4.122  0.00  0.00    +0.145 C 
ATOM     14  C   UNL     1     -30.587  31.459   5.110  0.00  0.00    +0.009 C 
ATOM     15  C   UNL     1     -32.579  31.103   3.176  0.00  0.00    +0.074 C 
ATOM     16  C   UNL     1     -31.813  32.271   3.188  0.00  0.00    +0.137 C 
ATOM     17  C   UNL     1     -30.817  32.445   4.149  0.00  0.00    +0.037 C 
BRANCH  16  18
ATOM     18  O   UNL     1     -32.037  33.239   2.259  0.00  0.00    -0.505 OA
ATOM     19  H   UNL     1     -32.881  33.320   1.860  0.00  0.00    +0.292 HD
ENDBRANCH  16  18
ENDBRANCH   2   9
BRANCH   1  20
ATOM     20  O   UNL     1     -36.130  23.486   4.254  0.00  0.00    -0.451 OA
BRANCH  20  26
ATOM     21  O   UNL     1     -38.245  24.291   3.685  0.00  0.00    -0.316 OA
ATOM     22  C   UNL     1     -38.665  22.127   1.844  0.00  0.00    +0.173 C 
ATOM     23  C   UNL     1     -39.799  23.045   2.302  0.00  0.00    +0.169 C 
ATOM     24  C   UNL     1     -37.508  22.136   2.842  0.00  0.00    +0.210 C 
ATOM     25  C   UNL     1     -39.258  24.425   2.686  0.00  0.00    +0.177 C 
ATOM     26  C   UNL     1     -37.111  23.562   3.221  0.00  0.00    +0.318 C 
BRANCH  22  27
ATOM     27  O   UNL     1     -39.188  20.802   1.734  0.00  0.00    -0.379 OA
ATOM     28  H   UNL     1     -39.422  20.623   0.809  0.00  0.00    +0.211 HD
ENDBRANCH  22  27
BRANCH  23  29
ATOM     29  O   UNL     1     -40.745  23.187   1.246  0.00  0.00    -0.379 OA
ATOM     30  H   UNL     1     -40.352  23.705   0.527  0.00  0.00    +0.211 HD
ENDBRANCH  23  29
BRANCH  24  31
ATOM     31  O   UNL     1     -36.374  21.496   2.258  0.00  0.00    -0.377 OA
ATOM     32  H   UNL     1     -35.568  21.978   2.501  0.00  0.00    +0.211 HD
ENDBRANCH  24  31
BRANCH  25  33
ATOM     33  C   UNL     1     -40.351  25.321   3.257  0.00  0.00    +0.169 C 
BRANCH  33  34
ATOM     34  O   UNL     1     -39.797  26.599   3.517  0.00  0.00    -0.379 OA
ATOM     35  H   UNL     1     -40.393  27.285   3.177  0.00  0.00    +0.211 HD
ENDBRANCH  33  34
ENDBRANCH  25  33
ENDBRANCH  20  26
ENDBRANCH   1  20
TORSDOF 9
ENDMDL
MODEL 2
REMARK VINA RESULT:      -7.1      1.644      2.715
REMARK  Name = 503737
REMARK  9 active torsions:
REMARK  status: ('A' for Active; 'I' for Inactive)
REMARK    1  A    between atoms: C_1  and  O_20
REMARK    2  A    between atoms: C_2  and  C_9
REMARK    3  A    between atoms: C_16  and  O_18
REMARK    4  A    between atoms: O_20  and  C_26
REMARK    5  A    between atoms: C_22  and  O_27
REMARK    6  A    between atoms: C_23  and  O_29
REMARK    7  A    between atoms: C_24  and  O_31
REMARK    8  A    between atoms: C_25  and  C_33
REMARK    9  A    between atoms: C_33  and  O_34
REMARK                            x       y       z     vdW  Elec       q    Type
REMARK                         _______ _______ _______ _____ _____    ______ ____
ROOT
ATOM      1  C   UNL     1     -34.841  25.010   4.781  0.00  0.00    +0.141 C 
ATOM      2  C   UNL     1     -32.970  27.071   4.784  0.00  0.00    +0.018 C 
ATOM      3  C   UNL     1     -34.252  25.410   3.586  0.00  0.00    +0.037 C 
ATOM      4  C   UNL     1     -34.502  25.633   5.978  0.00  0.00    +0.037 C 
ATOM      5  C   UNL     1     -33.314  26.443   3.587  0.00  0.00    +0.002 C 
ATOM      6  C   UNL     1     -33.565  26.666   5.979  0.00  0.00    +0.002 C 
ENDROOT
BRANCH   2   9
ATOM      7  O   UNL     1     -30.994  27.934   5.824  0.00  0.00    -0.474 OA
ATOM      8  O   UNL     1     -29.948  30.090   2.494  0.00  0.00    -0.291 OA
ATOM      9  C   UNL     1     -31.953  28.193   4.786  0.00  0.00    +0.196 C 
ATOM     10  C   UNL     1     -31.269  28.317   3.426  0.00  0.00    +0.117 C 
ATOM     11  C   UNL     1     -30.264  29.438   3.483  0.00  0.00    +0.180 C 
ATOM     12  C   UNL     1     -29.619  29.663   4.793  0.00  0.00    +0.069 C 
ATOM     13  C   UNL     1     -30.006  28.882   5.885  0.00  0.00    +0.145 C 
ATOM     14  C   UNL     1     -28.603  30.614   4.928  0.00  0.00    +0.009 C 
ATOM     15  C   UNL     1     -29.352  29.028   7.109  0.00  0.00    +0.074 C 
ATOM     16  C   UNL     1     -28.337  29.976   7.247  0.00  0.00    +0.137 C 
ATOM     17  C   UNL     1     -27.967  30.770   6.161  0.00  0.00    +0.037 C 
BRANCH  16  18
ATOM     18  O   UNL     1     -27.708  30.128   8.445  0.00  0.00    -0.505 OA
ATOM     19  H   UNL     1     -28.024  30.755   9.064  0.00  0.00    +0.292 HD
ENDBRANCH  16  18
ENDBRANCH   2   9
BRANCH   1  20
ATOM     20  O   UNL     1     -35.760  23.997   4.778  0.00  0.00    -0.451 OA
BRANCH  20  26
ATOM     21  O   UNL     1     -37.855  24.501   3.883  0.00  0.00    -0.316 OA
ATOM     22  C   UNL     1     -37.768  22.200   2.165  0.00  0.00    +0.173 C 
ATOM     23  C   UNL     1     -39.051  22.996   2.405  0.00  0.00    +0.169 C 
ATOM     24  C   UNL     1     -36.767  22.409   3.302  0.00  0.00    +0.210 C 
ATOM     25  C   UNL     1     -38.730  24.451   2.754  0.00  0.00    +0.177 C 
ATOM     26  C   UNL     1     -36.591  23.892   3.624  0.00  0.00    +0.318 C 
BRANCH  22  27
ATOM     27  O   UNL     1     -38.115  20.817   2.086  0.00  0.00    -0.379 OA
ATOM     28  H   UNL     1     -37.575  20.387   1.404  0.00  0.00    +0.211 HD
ENDBRANCH  22  27
BRANCH  23  29
ATOM     29  O   UNL     1     -39.854  22.960   1.228  0.00  0.00    -0.379 OA
ATOM     30  H   UNL     1     -40.034  23.865   0.932  0.00  0.00    +0.211 HD
ENDBRANCH  23  29
BRANCH  24  31
ATOM     31  O   UNL     1     -35.497  21.881   2.917  0.00  0.00    -0.377 OA
ATOM     32  H   UNL     1     -35.497  21.702   1.964  0.00  0.00    +0.211 HD
ENDBRANCH  24  31
BRANCH  25  33
ATOM     33  C   UNL     1     -39.986  25.238   3.112  0.00  0.00    +0.169 C 
BRANCH  33  34
ATOM     34  O   UNL     1     -39.601  26.521   3.570  0.00  0.00    -0.379 OA
ATOM     35  H   UNL     1     -38.633  26.595   3.549  0.00  0.00    +0.211 HD
ENDBRANCH  33  34
ENDBRANCH  25  33
ENDBRANCH  20  26
ENDBRANCH   1  20
TORSDOF 9
ENDMDL
MODEL 3
REMARK VINA RESULT:      -7.0      1.322      2.067
REMARK  Name = 503737
REMARK  9 active torsions:
REMARK  status: ('A' for Active; 'I' for Inactive)
REMARK    1  A    between atoms: C_1  and  O_20
REMARK    2  A    between atoms: C_2  and  C_9
REMARK    3  A    between atoms: C_16  and  O_18
REMARK    4  A    between atoms: O_20  and  C_26
REMARK    5  A    between atoms: C_22  and  O_27
REMARK    6  A    between atoms: C_23  and  O_29
REMARK    7  A    between atoms: C_24  and  O_31
REMARK    8  A    between atoms: C_25  and  C_33
REMARK    9  A    between atoms: C_33  and  O_34
REMARK                            x       y       z     vdW  Elec       q    Type
REMARK                         _______ _______ _______ _____ _____    ______ ____
ROOT
ATOM      1  C   UNL     1     -35.853  25.162   4.531  0.00  0.00    +0.141 C 
ATOM      2  C   UNL     1     -33.771  27.007   4.614  0.00  0.00    +0.018 C 
ATOM      3  C   UNL     1     -35.065  25.263   5.673  0.00  0.00    +0.037 C 
ATOM      4  C   UNL     1     -35.608  25.977   3.430  0.00  0.00    +0.037 C 
ATOM      5  C   UNL     1     -34.021  26.188   5.715  0.00  0.00    +0.002 C 
ATOM      6  C   UNL     1     -34.564  26.901   3.472  0.00  0.00    +0.002 C 
ENDROOT
BRANCH   2   9
ATOM      7  O   UNL     1     -33.134  29.277   4.197  0.00  0.00    -0.474 OA
ATOM      8  O   UNL     1     -30.007  29.091   6.846  0.00  0.00    -0.291 OA
ATOM      9  C   UNL     1     -32.637  28.010   4.659  0.00  0.00    +0.196 C 
ATOM     10  C   UNL     1     -32.062  28.128   6.069  0.00  0.00    +0.117 C 
ATOM     11  C   UNL     1     -30.948  29.141   6.061  0.00  0.00    +0.180 C 
ATOM     12  C   UNL     1     -31.087  30.250   5.095  0.00  0.00    +0.069 C 
ATOM     13  C   UNL     1     -32.187  30.266   4.232  0.00  0.00    +0.145 C 
ATOM     14  C   UNL     1     -30.158  31.293   5.074  0.00  0.00    +0.009 C 
ATOM     15  C   UNL     1     -32.375  31.346   3.368  0.00  0.00    +0.074 C 
ATOM     16  C   UNL     1     -31.448  32.390   3.346  0.00  0.00    +0.137 C 
ATOM     17  C   UNL     1     -30.340  32.361   4.193  0.00  0.00    +0.037 C 
BRANCH  16  18
ATOM     18  O   UNL     1     -31.625  33.436   2.494  0.00  0.00    -0.505 OA
ATOM     19  H   UNL     1     -30.908  34.004   2.294  0.00  0.00    +0.292 HD
ENDBRANCH  16  18
ENDBRANCH   2   9
BRANCH   1  20
ATOM     20  O   UNL     1     -36.877  24.255   4.492  0.00  0.00    -0.451 OA
BRANCH  20  26
ATOM     21  O   UNL     1     -38.367  23.216   3.028  0.00  0.00    -0.316 OA
ATOM     22  C   UNL     1     -36.433  21.202   2.354  0.00  0.00    +0.173 C 
ATOM     23  C   UNL     1     -37.912  21.074   1.987  0.00  0.00    +0.169 C 
ATOM     24  C   UNL     1     -36.235  22.165   3.526  0.00  0.00    +0.210 C 
ATOM     25  C   UNL     1     -38.554  22.455   1.834  0.00  0.00    +0.177 C 
ATOM     26  C   UNL     1     -36.992  23.473   3.304  0.00  0.00    +0.318 C 
BRANCH  22  27
ATOM     27  O   UNL     1     -35.955  19.906   2.719  0.00  0.00    -0.379 OA
ATOM     28  H   UNL     1     -35.311  19.603   2.059  0.00  0.00    +0.211 HD
ENDBRANCH  22  27
BRANCH  23  29
ATOM     29  O   UNL     1     -38.031  20.359   0.760  0.00  0.00    -0.379 OA
ATOM     30  H   UNL     1     -38.906  20.523   0.375  0.00  0.00    +0.211 HD
ENDBRANCH  23  29
BRANCH  24  31
ATOM     31  O   UNL     1     -34.847  22.468   3.660  0.00  0.00    -0.377 OA
ATOM     32  H   UNL     1     -34.728  23.146   4.343  0.00  0.00    +0.211 HD
ENDBRANCH  24  31
BRANCH  25  33
ATOM     33  C   UNL     1     -40.055  22.355   1.582  0.00  0.00    +0.169 C 
BRANCH  33  34
ATOM     34  O   UNL     1     -40.489  21.057   1.945  0.00  0.00    -0.379 OA
ATOM     35  H   UNL     1     -41.433  21.082   2.164  0.00  0.00    +0.211 HD
ENDBRANCH  33  34
ENDBRANCH  25  33
ENDBRANCH  20  26
ENDBRANCH   1  20
TORSDOF 9
ENDMDL
MODEL 4
REMARK VINA RESULT:      -6.9      1.982      3.261
REMARK  Name = 503737
REMARK  9 active torsions:
REMARK  status: ('A' for Active; 'I' for Inactive)
REMARK    1  A    between atoms: C_1  and  O_20
REMARK    2  A    between atoms: C_2  and  C_9
REMARK    3  A    between atoms: C_16  and  O_18
REMARK    4  A    between atoms: O_20  and  C_26
REMARK    5  A    between atoms: C_22  and  O_27
REMARK    6  A    between atoms: C_23  and  O_29
REMARK    7  A    between atoms: C_24  and  O_31
REMARK    8  A    between atoms: C_25  and  C_33
REMARK    9  A    between atoms: C_33  and  O_34
REMARK                            x       y       z     vdW  Elec       q    Type
REMARK                         _______ _______ _______ _____ _____    ______ ____
ROOT
ATOM      1  C   UNL     1     -35.611  23.323   3.926  0.00  0.00    +0.141 C 
ATOM      2  C   UNL     1     -34.474  25.834   4.315  0.00  0.00    +0.018 C 
ATOM      3  C   UNL     1     -35.035  23.995   2.852  0.00  0.00    +0.037 C 
ATOM      4  C   UNL     1     -35.623  23.898   5.193  0.00  0.00    +0.037 C 
ATOM      5  C   UNL     1     -34.465  25.253   3.047  0.00  0.00    +0.002 C 
ATOM      6  C   UNL     1     -35.054  25.156   5.387  0.00  0.00    +0.002 C 
ENDROOT
BRANCH   2   9
ATOM      7  O   UNL     1     -32.577  27.026   5.156  0.00  0.00    -0.474 OA
ATOM      8  O   UNL     1     -33.312  30.275   2.761  0.00  0.00    -0.291 OA
ATOM      9  C   UNL     1     -33.856  27.200   4.527  0.00  0.00    +0.196 C 
ATOM     10  C   UNL     1     -33.720  27.953   3.205  0.00  0.00    +0.117 C 
ATOM     11  C   UNL     1     -33.095  29.298   3.468  0.00  0.00    +0.180 C 
ATOM     12  C   UNL     1     -32.140  29.358   4.594  0.00  0.00    +0.069 C 
ATOM     13  C   UNL     1     -31.919  28.211   5.361  0.00  0.00    +0.145 C 
ATOM     14  C   UNL     1     -31.433  30.534   4.861  0.00  0.00    +0.009 C 
ATOM     15  C   UNL     1     -30.962  28.230   6.378  0.00  0.00    +0.074 C 
ATOM     16  C   UNL     1     -30.254  29.402   6.646  0.00  0.00    +0.137 C 
ATOM     17  C   UNL     1     -30.493  30.552   5.893  0.00  0.00    +0.037 C 
BRANCH  16  18
ATOM     18  O   UNL     1     -29.331  29.424   7.646  0.00  0.00    -0.505 OA
ATOM     19  H   UNL     1     -28.902  30.225   7.870  0.00  0.00    +0.292 HD
ENDBRANCH  16  18
ENDBRANCH   2   9
BRANCH   1  20
ATOM     20  O   UNL     1     -36.169  22.089   3.733  0.00  0.00    -0.451 OA
BRANCH  20  26
ATOM     21  O   UNL     1     -37.952  22.037   2.229  0.00  0.00    -0.316 OA
ATOM     22  C   UNL     1     -36.801  19.820   0.811  0.00  0.00    +0.173 C 
ATOM     23  C   UNL     1     -38.248  20.266   0.600  0.00  0.00    +0.169 C 
ATOM     24  C   UNL     1     -36.271  20.285   2.167  0.00  0.00    +0.210 C 
ATOM     25  C   UNL     1     -38.406  21.758   0.903  0.00  0.00    +0.177 C 
ATOM     26  C   UNL     1     -36.562  21.767   2.400  0.00  0.00    +0.318 C 
BRANCH  22  27
ATOM     27  O   UNL     1     -36.766  18.393   0.751  0.00  0.00    -0.379 OA
ATOM     28  H   UNL     1     -35.849  18.097   0.634  0.00  0.00    +0.211 HD
ENDBRANCH  22  27
BRANCH  23  29
ATOM     29  O   UNL     1     -38.625  20.018  -0.752  0.00  0.00    -0.379 OA
ATOM     30  H   UNL     1     -37.956  20.390  -1.348  0.00  0.00    +0.211 HD
ENDBRANCH  23  29
BRANCH  24  31
ATOM     31  O   UNL     1     -34.857  20.094   2.214  0.00  0.00    -0.377 OA
ATOM     32  H   UNL     1     -34.609  19.727   3.076  0.00  0.00    +0.211 HD
ENDBRANCH  24  31
BRANCH  25  33
ATOM     33  C   UNL     1     -39.862  22.202   0.813  0.00  0.00    +0.169 C 
BRANCH  33  34
ATOM     34  O   UNL     1     -40.692  21.080   1.052  0.00  0.00    -0.379 OA
ATOM     35  H   UNL     1     -41.397  21.052   0.386  0.00  0.00    +0.211 HD
ENDBRANCH  33  34
ENDBRANCH  25  33
ENDBRANCH  20  26
ENDBRANCH   1  20
TORSDOF 9
ENDMDL
MODEL 5
REMARK VINA RESULT:      -6.9      2.079     10.124
REMARK  Name = 503737
REMARK  9 active torsions:
REMARK  status: ('A' for Active; 'I' for Inactive)
REMARK    1  A    between atoms: C_1  and  O_20
REMARK    2  A    between atoms: C_2  and  C_9
REMARK    3  A    between atoms: C_16  and  O_18
REMARK    4  A    between atoms: O_20  and  C_26
REMARK    5  A    between atoms: C_22  and  O_27
REMARK    6  A    between atoms: C_23  and  O_29
REMARK    7  A    between atoms: C_24  and  O_31
REMARK    8  A    between atoms: C_25  and  C_33
REMARK    9  A    between atoms: C_33  and  O_34
REMARK                            x       y       z     vdW  Elec       q    Type
REMARK                         _______ _______ _______ _____ _____    ______ ____
ROOT
ATOM      1  C   UNL     1     -33.666  26.666   5.272  0.00  0.00    +0.141 C 
ATOM      2  C   UNL     1     -34.995  24.797   3.696  0.00  0.00    +0.018 C 
ATOM      3  C   UNL     1     -34.663  25.875   5.833  0.00  0.00    +0.037 C 
ATOM      4  C   UNL     1     -33.328  26.531   3.929  0.00  0.00    +0.037 C 
ATOM      5  C   UNL     1     -35.329  24.937   5.043  0.00  0.00    +0.002 C 
ATOM      6  C   UNL     1     -33.995  25.594   3.139  0.00  0.00    +0.002 C 
ENDROOT
BRANCH   2   9
ATOM      7  O   UNL     1     -35.024  22.527   2.936  0.00  0.00    -0.474 OA
ATOM      8  O   UNL     1     -39.049  22.637   2.150  0.00  0.00    -0.291 OA
ATOM      9  C   UNL     1     -35.719  23.781   2.838  0.00  0.00    +0.196 C 
ATOM     10  C   UNL     1     -37.177  23.635   3.270  0.00  0.00    +0.117 C 
ATOM     11  C   UNL     1     -37.848  22.610   2.394  0.00  0.00    +0.180 C 
ATOM     12  C   UNL     1     -36.986  21.517   1.898  0.00  0.00    +0.069 C 
ATOM     13  C   UNL     1     -35.625  21.527   2.218  0.00  0.00    +0.145 C 
ATOM     14  C   UNL     1     -37.531  20.464   1.159  0.00  0.00    +0.009 C 
ATOM     15  C   UNL     1     -34.813  20.463   1.824  0.00  0.00    +0.074 C 
ATOM     16  C   UNL     1     -35.354  19.409   1.085  0.00  0.00    +0.137 C 
ATOM     17  C   UNL     1     -36.709  19.413   0.750  0.00  0.00    +0.037 C 
BRANCH  16  18
ATOM     18  O   UNL     1     -34.560  18.377   0.690  0.00  0.00    -0.505 OA
ATOM     19  H   UNL     1     -34.858  17.495   0.781  0.00  0.00    +0.292 HD
ENDBRANCH  16  18
ENDBRANCH   2   9
BRANCH   1  20
ATOM     20  O   UNL     1     -33.012  27.585   6.048  0.00  0.00    -0.451 OA
BRANCH  20  26
ATOM     21  O   UNL     1     -30.708  27.750   6.375  0.00  0.00    -0.316 OA
ATOM     22  C   UNL     1     -30.615  30.290   5.037  0.00  0.00    +0.173 C 
ATOM     23  C   UNL     1     -29.448  29.759   5.869  0.00  0.00    +0.169 C 
ATOM     24  C   UNL     1     -31.932  29.631   5.448  0.00  0.00    +0.210 C 
ATOM     25  C   UNL     1     -29.451  28.228   5.893  0.00  0.00    +0.177 C 
ATOM     26  C   UNL     1     -31.794  28.112   5.525  0.00  0.00    +0.318 C 
BRANCH  22  27
ATOM     27  O   UNL     1     -30.703  31.700   5.250  0.00  0.00    -0.379 OA
ATOM     28  H   UNL     1     -30.100  32.156   4.641  0.00  0.00    +0.211 HD
ENDBRANCH  22  27
BRANCH  23  29
ATOM     29  O   UNL     1     -28.221  30.219   5.307  0.00  0.00    -0.379 OA
ATOM     30  H   UNL     1     -28.032  29.724   4.495  0.00  0.00    +0.211 HD
ENDBRANCH  23  29
BRANCH  24  31
ATOM     31  O   UNL     1     -32.937  29.941   4.483  0.00  0.00    -0.377 OA
ATOM     32  H   UNL     1     -33.745  30.228   4.938  0.00  0.00    +0.211 HD
ENDBRANCH  24  31
BRANCH  25  33
ATOM     33  C   UNL     1     -28.366  27.675   6.811  0.00  0.00    +0.169 C 
BRANCH  33  34
ATOM     34  O   UNL     1     -28.264  28.514   7.947  0.00  0.00    -0.379 OA
ATOM     35  H   UNL     1     -28.700  28.089   8.702  0.00  0.00    +0.211 HD
ENDBRANCH  33  34
ENDBRANCH  25  33
ENDBRANCH  20  26
ENDBRANCH   1  20
TORSDOF 9
ENDMDL
MODEL 6
REMARK VINA RESULT:      -6.8      6.007     10.231
REMARK  Name = 503737
REMARK  9 active torsions:
REMARK  status: ('A' for Active; 'I' for Inactive)
REMARK    1  A    between atoms: C_1  and  O_20
REMARK    2  A    between atoms: C_2  and  C_9
REMARK    3  A    between atoms: C_16  and  O_18
REMARK    4  A    between atoms: O_20  and  C_26
REMARK    5  A    between atoms: C_22  and  O_27
REMARK    6  A    between atoms: C_23  and  O_29
REMARK    7  A    between atoms: C_24  and  O_31
REMARK    8  A    between atoms: C_25  and  C_33
REMARK    9  A    between atoms: C_33  and  O_34
REMARK                            x       y       z     vdW  Elec       q    Type
REMARK                         _______ _______ _______ _____ _____    ______ ____
ROOT
ATOM      1  C   UNL     1     -35.458  21.757   1.217  0.00  0.00    +0.141 C 
ATOM      2  C   UNL     1     -33.378  19.921   0.984  0.00  0.00    +0.018 C 
ATOM      3  C   UNL     1     -35.561  20.514   1.833  0.00  0.00    +0.037 C 
ATOM      4  C   UNL     1     -34.322  22.089   0.485  0.00  0.00    +0.037 C 
ATOM      5  C   UNL     1     -34.519  19.594   1.717  0.00  0.00    +0.002 C 
ATOM      6  C   UNL     1     -33.280  21.169   0.368  0.00  0.00    +0.002 C 
ENDROOT
BRANCH   2   9
ATOM      7  O   UNL     1     -32.752  17.746   0.206  0.00  0.00    -0.474 OA
ATOM      8  O   UNL     1     -28.797  18.787  -0.117  0.00  0.00    -0.291 OA
ATOM      9  C   UNL     1     -32.247  18.923   0.857  0.00  0.00    +0.196 C 
ATOM     10  C   UNL     1     -31.073  19.517   0.081  0.00  0.00    +0.117 C 
ATOM     11  C   UNL     1     -29.981  18.485  -0.025  0.00  0.00    +0.180 C 
ATOM     12  C   UNL     1     -30.425  17.077  -0.084  0.00  0.00    +0.069 C 
ATOM     13  C   UNL     1     -31.789  16.790   0.013  0.00  0.00    +0.145 C 
ATOM     14  C   UNL     1     -29.498  16.050  -0.279  0.00  0.00    +0.009 C 
ATOM     15  C   UNL     1     -32.232  15.472  -0.120  0.00  0.00    +0.074 C 
ATOM     16  C   UNL     1     -31.308  14.444  -0.316  0.00  0.00    +0.137 C 
ATOM     17  C   UNL     1     -29.945  14.732  -0.390  0.00  0.00    +0.037 C 
BRANCH  16  18
ATOM     18  O   UNL     1     -31.738  13.158  -0.432  0.00  0.00    -0.505 OA
ATOM     19  H   UNL     1     -32.024  12.833  -1.263  0.00  0.00    +0.292 HD
ENDBRANCH  16  18
ENDBRANCH   2   9
BRANCH   1  20
ATOM     20  O   UNL     1     -36.480  22.658   1.332  0.00  0.00    -0.451 OA
BRANCH  20  26
ATOM     21  O   UNL     1     -35.889  23.397   3.465  0.00  0.00    -0.316 OA
ATOM     22  C   UNL     1     -37.370  25.834   3.124  0.00  0.00    +0.173 C 
ATOM     23  C   UNL     1     -36.850  25.375   4.486  0.00  0.00    +0.169 C 
ATOM     24  C   UNL     1     -37.500  24.657   2.156  0.00  0.00    +0.210 C 
ATOM     25  C   UNL     1     -35.603  24.502   4.324  0.00  0.00    +0.177 C 
ATOM     26  C   UNL     1     -36.232  23.806   2.143  0.00  0.00    +0.318 C 
BRANCH  22  27
ATOM     27  O   UNL     1     -38.653  26.431   3.321  0.00  0.00    -0.379 OA
ATOM     28  H   UNL     1     -38.560  27.397   3.340  0.00  0.00    +0.211 HD
ENDBRANCH  22  27
BRANCH  23  29
ATOM     29  O   UNL     1     -36.526  26.517   5.275  0.00  0.00    -0.379 OA
ATOM     30  H   UNL     1     -37.090  27.261   5.014  0.00  0.00    +0.211 HD
ENDBRANCH  23  29
BRANCH  24  31
ATOM     31  O   UNL     1     -37.721  25.153   0.836  0.00  0.00    -0.377 OA
ATOM     32  H   UNL     1     -36.872  25.236   0.375  0.00  0.00    +0.211 HD
ENDBRANCH  24  31
BRANCH  25  33
ATOM     33  C   UNL     1     -35.132  23.936   5.660  0.00  0.00    +0.169 C 
BRANCH  33  34
ATOM     34  O   UNL     1     -35.927  22.808   5.978  0.00  0.00    -0.379 OA
ATOM     35  H   UNL     1     -35.575  22.380   6.774  0.00  0.00    +0.211 HD
ENDBRANCH  33  34
ENDBRANCH  25  33
ENDBRANCH  20  26
ENDBRANCH   1  20
TORSDOF 9
ENDMDL
MODEL 7
REMARK VINA RESULT:      -6.7      1.918      9.982
REMARK  Name = 503737
REMARK  9 active torsions:
REMARK  status: ('A' for Active; 'I' for Inactive)
REMARK    1  A    between atoms: C_1  and  O_20
REMARK    2  A    between atoms: C_2  and  C_9
REMARK    3  A    between atoms: C_16  and  O_18
REMARK    4  A    between atoms: O_20  and  C_26
REMARK    5  A    between atoms: C_22  and  O_27
REMARK    6  A    between atoms: C_23  and  O_29
REMARK    7  A    between atoms: C_24  and  O_31
REMARK    8  A    between atoms: C_25  and  C_33
REMARK    9  A    between atoms: C_33  and  O_34
REMARK                            x       y       z     vdW  Elec       q    Type
REMARK                         _______ _______ _______ _____ _____    ______ ____
ROOT
ATOM      1  C   UNL     1     -33.616  26.588   5.049  0.00  0.00    +0.141 C 
ATOM      2  C   UNL     1     -34.646  24.515   3.503  0.00  0.00    +0.018 C 
ATOM      3  C   UNL     1     -34.475  25.658   5.625  0.00  0.00    +0.037 C 
ATOM      4  C   UNL     1     -33.268  26.491   3.705  0.00  0.00    +0.037 C 
ATOM      5  C   UNL     1     -34.990  24.618   4.851  0.00  0.00    +0.002 C 
ATOM      6  C   UNL     1     -33.784  25.452   2.931  0.00  0.00    +0.002 C 
ENDROOT
BRANCH   2   9
ATOM      7  O   UNL     1     -36.638  23.504   2.643  0.00  0.00    -0.474 OA
ATOM      8  O   UNL     1     -34.635  21.759  -0.483  0.00  0.00    -0.291 OA
ATOM      9  C   UNL     1     -35.206  23.388   2.662  0.00  0.00    +0.196 C 
ATOM     10  C   UNL     1     -34.634  23.422   1.246  0.00  0.00    +0.117 C 
ATOM     11  C   UNL     1     -35.227  22.290   0.449  0.00  0.00    +0.180 C 
ATOM     12  C   UNL     1     -36.605  21.896   0.810  0.00  0.00    +0.069 C 
ATOM     13  C   UNL     1     -37.240  22.543   1.874  0.00  0.00    +0.145 C 
ATOM     14  C   UNL     1     -37.281  20.922   0.070  0.00  0.00    +0.009 C 
ATOM     15  C   UNL     1     -38.568  22.238   2.178  0.00  0.00    +0.074 C 
ATOM     16  C   UNL     1     -39.246  21.267   1.439  0.00  0.00    +0.137 C 
ATOM     17  C   UNL     1     -38.602  20.608   0.392  0.00  0.00    +0.037 C 
BRANCH  16  18
ATOM     18  O   UNL     1     -40.537  20.961   1.743  0.00  0.00    -0.505 OA
ATOM     19  H   UNL     1     -40.837  20.076   1.676  0.00  0.00    +0.292 HD
ENDBRANCH  16  18
ENDBRANCH   2   9
BRANCH   1  20
ATOM     20  O   UNL     1     -33.110  27.606   5.810  0.00  0.00    -0.451 OA
BRANCH  20  26
ATOM     21  O   UNL     1     -30.849  27.948   6.274  0.00  0.00    -0.316 OA
ATOM     22  C   UNL     1     -30.854  30.457   4.876  0.00  0.00    +0.173 C 
ATOM     23  C   UNL     1     -29.707  30.031   5.792  0.00  0.00    +0.169 C 
ATOM     24  C   UNL     1     -32.144  29.713   5.223  0.00  0.00    +0.210 C 
ATOM     25  C   UNL     1     -29.602  28.506   5.858  0.00  0.00    +0.177 C 
ATOM     26  C   UNL     1     -31.902  28.210   5.349  0.00  0.00    +0.318 C 
BRANCH  22  27
ATOM     27  O   UNL     1     -31.056  31.861   5.044  0.00  0.00    -0.379 OA
ATOM     28  H   UNL     1     -30.880  32.315   4.205  0.00  0.00    +0.211 HD
ENDBRANCH  22  27
BRANCH  23  29
ATOM     29  O   UNL     1     -28.484  30.567   5.294  0.00  0.00    -0.379 OA
ATOM     30  H   UNL     1     -28.641  30.987   4.435  0.00  0.00    +0.211 HD
ENDBRANCH  23  29
BRANCH  24  31
ATOM     31  O   UNL     1     -33.106  29.926   4.190  0.00  0.00    -0.377 OA
ATOM     32  H   UNL     1     -32.772  29.559   3.356  0.00  0.00    +0.211 HD
ENDBRANCH  24  31
BRANCH  25  33
ATOM     33  C   UNL     1     -28.540  28.054   6.855  0.00  0.00    +0.169 C 
BRANCH  33  34
ATOM     34  O   UNL     1     -28.766  26.692   7.170  0.00  0.00    -0.379 OA
ATOM     35  H   UNL     1     -28.605  26.548   8.116  0.00  0.00    +0.211 HD
ENDBRANCH  33  34
ENDBRANCH  25  33
ENDBRANCH  20  26
ENDBRANCH   1  20
TORSDOF 9
ENDMDL
MODEL 8
REMARK VINA RESULT:      -6.6      5.708     10.297
REMARK  Name = 503737
REMARK  9 active torsions:
REMARK  status: ('A' for Active; 'I' for Inactive)
REMARK    1  A    between atoms: C_1  and  O_20
REMARK    2  A    between atoms: C_2  and  C_9
REMARK    3  A    between atoms: C_16  and  O_18
REMARK    4  A    between atoms: O_20  and  C_26
REMARK    5  A    between atoms: C_22  and  O_27
REMARK    6  A    between atoms: C_23  and  O_29
REMARK    7  A    between atoms: C_24  and  O_31
REMARK    8  A    between atoms: C_25  and  C_33
REMARK    9  A    between atoms: C_33  and  O_34
REMARK                            x       y       z     vdW  Elec       q    Type
REMARK                         _______ _______ _______ _____ _____    ______ ____
ROOT
ATOM      1  C   UNL     1     -36.662  20.939   1.692  0.00  0.00    +0.141 C 
ATOM      2  C   UNL     1     -34.826  19.116   0.667  0.00  0.00    +0.018 C 
ATOM      3  C   UNL     1     -36.995  20.176   0.578  0.00  0.00    +0.037 C 
ATOM      4  C   UNL     1     -35.417  20.798   2.298  0.00  0.00    +0.037 C 
ATOM      5  C   UNL     1     -36.075  19.261   0.065  0.00  0.00    +0.002 C 
ATOM      6  C   UNL     1     -34.497  19.885   1.784  0.00  0.00    +0.002 C 
ENDROOT
BRANCH   2   9
ATOM      7  O   UNL     1     -32.642  18.168   0.922  0.00  0.00    -0.474 OA
ATOM      8  O   UNL     1     -33.680  14.746  -1.087  0.00  0.00    -0.291 OA
ATOM      9  C   UNL     1     -33.826  18.125   0.110  0.00  0.00    +0.196 C 
ATOM     10  C   UNL     1     -34.413  16.715   0.071  0.00  0.00    +0.117 C 
ATOM     11  C   UNL     1     -33.380  15.768  -0.481  0.00  0.00    +0.180 C 
ATOM     12  C   UNL     1     -31.971  16.104  -0.189  0.00  0.00    +0.069 C 
ATOM     13  C   UNL     1     -31.684  17.276   0.517  0.00  0.00    +0.145 C 
ATOM     14  C   UNL     1     -30.942  15.241  -0.574  0.00  0.00    +0.009 C 
ATOM     15  C   UNL     1     -30.365  17.569   0.868  0.00  0.00    +0.074 C 
ATOM     16  C   UNL     1     -29.335  16.707   0.487  0.00  0.00    +0.137 C 
ATOM     17  C   UNL     1     -29.623  15.549  -0.237  0.00  0.00    +0.037 C 
BRANCH  16  18
ATOM     18  O   UNL     1     -28.048  16.999   0.819  0.00  0.00    -0.505 OA
ATOM     19  H   UNL     1     -27.608  16.495   1.474  0.00  0.00    +0.292 HD
ENDBRANCH  16  18
ENDBRANCH   2   9
BRANCH   1  20
ATOM     20  O   UNL     1     -37.566  21.835   2.195  0.00  0.00    -0.451 OA
BRANCH  20  26
ATOM     21  O   UNL     1     -36.585  22.944   3.999  0.00  0.00    -0.316 OA
ATOM     22  C   UNL     1     -37.726  25.451   3.186  0.00  0.00    +0.173 C 
ATOM     23  C   UNL     1     -37.096  25.245   4.564  0.00  0.00    +0.169 C 
ATOM     24  C   UNL     1     -38.159  24.120   2.571  0.00  0.00    +0.210 C 
ATOM     25  C   UNL     1     -36.025  24.154   4.513  0.00  0.00    +0.177 C 
ATOM     26  C   UNL     1     -37.043  23.080   2.655  0.00  0.00    +0.318 C 
BRANCH  22  27
ATOM     27  O   UNL     1     -38.869  26.294   3.345  0.00  0.00    -0.379 OA
ATOM     28  H   UNL     1     -38.666  26.996   3.984  0.00  0.00    +0.211 HD
ENDBRANCH  22  27
BRANCH  23  29
ATOM     29  O   UNL     1     -36.504  26.467   4.997  0.00  0.00    -0.379 OA
ATOM     30  H   UNL     1     -35.840  26.281   5.679  0.00  0.00    +0.211 HD
ENDBRANCH  23  29
BRANCH  24  31
ATOM     31  O   UNL     1     -38.484  24.318   1.196  0.00  0.00    -0.377 OA
ATOM     32  H   UNL     1     -38.838  25.212   1.072  0.00  0.00    +0.211 HD
ENDBRANCH  24  31
BRANCH  25  33
ATOM     33  C   UNL     1     -35.463  23.848   5.897  0.00  0.00    +0.169 C 
BRANCH  33  34
ATOM     34  O   UNL     1     -35.876  22.548   6.275  0.00  0.00    -0.379 OA
ATOM     35  H   UNL     1     -35.660  22.399   7.210  0.00  0.00    +0.211 HD
ENDBRANCH  33  34
ENDBRANCH  25  33
ENDBRANCH  20  26
ENDBRANCH   1  20
TORSDOF 9
ENDMDL
MODEL 9
REMARK VINA RESULT:      -6.6      2.426      3.902
REMARK  Name = 503737
REMARK  9 active torsions:
REMARK  status: ('A' for Active; 'I' for Inactive)
REMARK    1  A    between atoms: C_1  and  O_20
REMARK    2  A    between atoms: C_2  and  C_9
REMARK    3  A    between atoms: C_16  and  O_18
REMARK    4  A    between atoms: O_20  and  C_26
REMARK    5  A    between atoms: C_22  and  O_27
REMARK    6  A    between atoms: C_23  and  O_29
REMARK    7  A    between atoms: C_24  and  O_31
REMARK    8  A    between atoms: C_25  and  C_33
REMARK    9  A    between atoms: C_33  and  O_34
REMARK                            x       y       z     vdW  Elec       q    Type
REMARK                         _______ _______ _______ _____ _____    ______ ____
ROOT
ATOM      1  C   UNL     1     -35.129  25.356   4.316  0.00  0.00    +0.141 C 
ATOM      2  C   UNL     1     -33.257  27.279   5.055  0.00  0.00    +0.018 C 
ATOM      3  C   UNL     1     -34.702  26.297   3.385  0.00  0.00    +0.037 C 
ATOM      4  C   UNL     1     -34.627  25.368   5.614  0.00  0.00    +0.037 C 
ATOM      5  C   UNL     1     -33.763  27.261   3.755  0.00  0.00    +0.002 C 
ATOM      6  C   UNL     1     -33.690  26.332   5.984  0.00  0.00    +0.002 C 
ENDROOT
BRANCH   2   9
ATOM      7  O   UNL     1     -31.009  27.660   5.783  0.00  0.00    -0.474 OA
ATOM      8  O   UNL     1     -30.999  31.513   4.375  0.00  0.00    -0.291 OA
ATOM      9  C   UNL     1     -32.240  28.325   5.457  0.00  0.00    +0.196 C 
ATOM     10  C   UNL     1     -32.031  29.347   4.341  0.00  0.00    +0.117 C 
ATOM     11  C   UNL     1     -31.007  30.358   4.786  0.00  0.00    +0.180 C 
ATOM     12  C   UNL     1     -29.959  29.859   5.701  0.00  0.00    +0.069 C 
ATOM     13  C   UNL     1     -30.008  28.529   6.129  0.00  0.00    +0.145 C 
ATOM     14  C   UNL     1     -28.908  30.691   6.096  0.00  0.00    +0.009 C 
ATOM     15  C   UNL     1     -28.984  28.020   6.930  0.00  0.00    +0.074 C 
ATOM     16  C   UNL     1     -27.932  28.849   7.325  0.00  0.00    +0.137 C 
ATOM     17  C   UNL     1     -27.897  30.182   6.913  0.00  0.00    +0.037 C 
BRANCH  16  18
ATOM     18  O   UNL     1     -26.940  28.356   8.116  0.00  0.00    -0.505 OA
ATOM     19  H   UNL     1     -26.494  27.570   7.873  0.00  0.00    +0.292 HD
ENDBRANCH  16  18
ENDBRANCH   2   9
BRANCH   1  20
ATOM     20  O   UNL     1     -36.048  24.411   3.952  0.00  0.00    -0.451 OA
BRANCH  20  26
ATOM     21  O   UNL     1     -35.923  23.710   1.729  0.00  0.00    -0.316 OA
ATOM     22  C   UNL     1     -35.953  20.946   2.510  0.00  0.00    +0.173 C 
ATOM     23  C   UNL     1     -36.171  21.392   1.064  0.00  0.00    +0.169 C 
ATOM     24  C   UNL     1     -36.271  22.075   3.491  0.00  0.00    +0.210 C 
ATOM     25  C   UNL     1     -35.471  22.727   0.796  0.00  0.00    +0.177 C 
ATOM     26  C   UNL     1     -35.592  23.380   3.076  0.00  0.00    +0.318 C 
BRANCH  22  27
ATOM     27  O   UNL     1     -36.817  19.838   2.765  0.00  0.00    -0.379 OA
ATOM     28  H   UNL     1     -36.618  19.122   2.140  0.00  0.00    +0.211 HD
ENDBRANCH  22  27
BRANCH  23  29
ATOM     29  O   UNL     1     -35.648  20.401   0.183  0.00  0.00    -0.379 OA
ATOM     30  H   UNL     1     -36.357  19.793  -0.077  0.00  0.00    +0.211 HD
ENDBRANCH  23  29
BRANCH  24  31
ATOM     31  O   UNL     1     -35.801  21.719   4.791  0.00  0.00    -0.377 OA
ATOM     32  H   UNL     1     -34.866  21.964   4.875  0.00  0.00    +0.211 HD
ENDBRANCH  24  31
BRANCH  25  33
ATOM     33  C   UNL     1     -35.770  23.251  -0.604  0.00  0.00    +0.169 C 
BRANCH  33  34
ATOM     34  O   UNL     1     -34.868  22.647  -1.514  0.00  0.00    -0.379 OA
ATOM     35  H   UNL     1     -35.241  21.810  -1.833  0.00  0.00    +0.211 HD
ENDBRANCH  33  34
ENDBRANCH  25  33
ENDBRANCH  20  26
ENDBRANCH   1  20
TORSDOF 9
ENDMDL
