MODEL 1
REMARK VINA RESULT:      -8.0      0.000      0.000
REMARK  Name = 52936850
REMARK  5 active torsions:
REMARK  status: ('A' for Active; 'I' for Inactive)
REMARK    1  A    between atoms: C_2  and  C_9
REMARK    2  A    between atoms: C_4  and  N_22
REMARK    3  A    between atoms: C_12  and  C_19
REMARK    4  A    between atoms: N_22  and  S_24
REMARK    5  A    between atoms: S_24  and  C_27
REMARK                            x       y       z     vdW  Elec       q    Type
REMARK                         _______ _______ _______ _____ _____    ______ ____
ROOT
ATOM      1  N   UNL     1     -40.765  23.743   1.521  0.00  0.00    -0.241 NA
ATOM      2  C   UNL     1     -41.362  26.031   2.025  0.00  0.00    +0.022 C 
ATOM      3  C   UNL     1     -40.337  26.099   2.963  0.00  0.00    +0.019 C 
ATOM      4  C   UNL     1     -39.525  24.991   3.181  0.00  0.00    +0.084 C 
ATOM      5  C   UNL     1     -41.532  24.840   1.337  0.00  0.00    +0.099 C 
ATOM      6  C   UNL     1     -39.779  23.847   2.440  0.00  0.00    +0.115 C 
ENDROOT
BRANCH   2   9
ATOM      7  N   UNL     1     -43.573  28.974   2.583  0.00  0.00    -0.240 N 
ATOM      8  N   UNL     1     -44.739  30.457   1.381  0.00  0.00    -0.226 NA
ATOM      9  C   UNL     1     -42.239  27.189   1.771  0.00  0.00    +0.017 C 
ATOM     10  C   UNL     1     -43.943  29.408   1.315  0.00  0.00    +0.140 C 
ATOM     11  C   UNL     1     -42.738  27.885   2.816  0.00  0.00    +0.072 C 
ATOM     12  C   UNL     1     -44.184  29.810   3.483  0.00  0.00    +0.154 C 
ATOM     13  C   UNL     1     -42.616  27.625   0.421  0.00  0.00    +0.004 C 
ATOM     14  C   UNL     1     -43.425  28.681   0.208  0.00  0.00    +0.035 C 
ATOM     15  C   UNL     1     -44.890  30.711   2.720  0.00  0.00    +0.127 C 
BRANCH  12  19
ATOM     16  O   UNL     1     -43.362  29.885   6.949  0.00  0.00    -0.316 OA
ATOM     17  N   UNL     1     -45.183  29.436   5.724  0.00  0.00    -0.311 NA
ATOM     18  N   UNL     1     -42.982  30.051   5.612  0.00  0.00    -0.006 NA
ATOM     19  C   UNL     1     -44.109  29.768   4.951  0.00  0.00    +0.143 C 
ATOM     20  C   UNL     1     -44.672  29.523   6.927  0.00  0.00    +0.294 C 
ATOM     21  C   UNL     1     -45.308  29.287   8.229  0.00  0.00    +0.114 C 
ENDBRANCH  12  19
ENDBRANCH   2   9
BRANCH   4  22
ATOM     22  N   UNL     1     -38.467  25.030   4.134  0.00  0.00    -0.213 N 
ATOM     23  H   UNL     1     -38.661  24.998   5.099  0.00  0.00    +0.174 HD
BRANCH  22  24
ATOM     24  S   UNL     1     -36.842  25.133   3.568  0.00  0.00    +0.074 S 
ATOM     25  O   UNL     1     -36.190  26.265   4.204  0.00  0.00    -0.150 OA
ATOM     26  O   UNL     1     -36.809  25.001   2.125  0.00  0.00    -0.150 OA
BRANCH  24  27
ATOM     27  C   UNL     1     -36.123  23.672   4.261  0.00  0.00    +0.125 C 
ATOM     28  C   UNL     1     -35.992  22.523   3.481  0.00  0.00    +0.020 C 
ATOM     29  C   UNL     1     -35.689  23.668   5.587  0.00  0.00    +0.020 C 
ATOM     30  C   UNL     1     -35.429  21.369   4.028  0.00  0.00    +0.001 C 
ATOM     31  C   UNL     1     -35.127  22.514   6.133  0.00  0.00    +0.001 C 
ATOM     32  C   UNL     1     -34.996  21.365   5.353  0.00  0.00    +0.000 C 
ENDBRANCH  24  27
ENDBRANCH  22  24
ENDBRANCH   4  22
TORSDOF 5
ENDMDL
MODEL 2
REMARK VINA RESULT:      -7.6      6.887      9.460
REMARK  Name = 52936850
REMARK  5 active torsions:
REMARK  status: ('A' for Active; 'I' for Inactive)
REMARK    1  A    between atoms: C_2  and  C_9
REMARK    2  A    between atoms: C_4  and  N_22
REMARK    3  A    between atoms: C_12  and  C_19
REMARK    4  A    between atoms: N_22  and  S_24
REMARK    5  A    between atoms: S_24  and  C_27
REMARK                            x       y       z     vdW  Elec       q    Type
REMARK                         _______ _______ _______ _____ _____    ______ ____
ROOT
ATOM      1  N   UNL     1     -37.580  24.159   3.764  0.00  0.00    -0.241 NA
ATOM      2  C   UNL     1     -35.317  24.984   3.968  0.00  0.00    +0.022 C 
ATOM      3  C   UNL     1     -34.885  24.048   3.034  0.00  0.00    +0.019 C 
ATOM      4  C   UNL     1     -35.798  23.168   2.465  0.00  0.00    +0.084 C 
ATOM      5  C   UNL     1     -36.663  24.998   4.295  0.00  0.00    +0.099 C 
ATOM      6  C   UNL     1     -37.123  23.264   2.860  0.00  0.00    +0.115 C 
ENDROOT
BRANCH   2   9
ATOM      7  N   UNL     1     -32.867  27.756   4.398  0.00  0.00    -0.240 N 
ATOM      8  N   UNL     1     -31.668  28.705   6.030  0.00  0.00    -0.226 NA
ATOM      9  C   UNL     1     -34.373  25.932   4.589  0.00  0.00    +0.017 C 
ATOM     10  C   UNL     1     -32.540  27.758   5.750  0.00  0.00    +0.140 C 
ATOM     11  C   UNL     1     -33.765  26.862   3.820  0.00  0.00    +0.072 C 
ATOM     12  C   UNL     1     -32.147  28.766   3.814  0.00  0.00    +0.154 C 
ATOM     13  C   UNL     1     -34.043  25.912   6.019  0.00  0.00    +0.004 C 
ATOM     14  C   UNL     1     -33.173  26.781   6.567  0.00  0.00    +0.035 C 
ATOM     15  C   UNL     1     -31.421  29.333   4.836  0.00  0.00    +0.127 C 
BRANCH  12  19
ATOM     16  O   UNL     1     -31.695  29.240   0.311  0.00  0.00    -0.316 OA
ATOM     17  N   UNL     1     -32.885  30.216   1.938  0.00  0.00    -0.311 NA
ATOM     18  N   UNL     1     -31.401  28.535   1.484  0.00  0.00    -0.006 NA
ATOM     19  C   UNL     1     -32.140  29.170   2.399  0.00  0.00    +0.143 C 
ATOM     20  C   UNL     1     -32.575  30.213   0.666  0.00  0.00    +0.294 C 
ATOM     21  C   UNL     1     -33.040  31.099  -0.408  0.00  0.00    +0.114 C 
ENDBRANCH  12  19
ENDBRANCH   2   9
BRANCH   4  22
ATOM     22  N   UNL     1     -35.385  22.199   1.506  0.00  0.00    -0.213 N 
ATOM     23  H   UNL     1     -35.129  22.472   0.595  0.00  0.00    +0.174 HD
BRANCH  22  24
ATOM     24  S   UNL     1     -35.342  20.538   1.967  0.00  0.00    +0.074 S 
ATOM     25  O   UNL     1     -36.399  19.825   1.272  0.00  0.00    -0.150 OA
ATOM     26  O   UNL     1     -35.226  20.426   3.408  0.00  0.00    -0.150 OA
BRANCH  24  27
ATOM     27  C   UNL     1     -33.811  20.004   1.258  0.00  0.00    +0.125 C 
ATOM     28  C   UNL     1     -33.301  18.744   1.572  0.00  0.00    +0.020 C 
ATOM     29  C   UNL     1     -33.114  20.842   0.389  0.00  0.00    +0.020 C 
ATOM     30  C   UNL     1     -32.091  18.324   1.016  0.00  0.00    +0.001 C 
ATOM     31  C   UNL     1     -31.905  20.422  -0.166  0.00  0.00    +0.001 C 
ATOM     32  C   UNL     1     -31.394  19.163   0.148  0.00  0.00    +0.000 C 
ENDBRANCH  24  27
ENDBRANCH  22  24
ENDBRANCH   4  22
TORSDOF 5
ENDMDL
MODEL 3
REMARK VINA RESULT:      -7.6      7.004     12.273
REMARK  Name = 52936850
REMARK  5 active torsions:
REMARK  status: ('A' for Active; 'I' for Inactive)
REMARK    1  A    between atoms: C_2  and  C_9
REMARK    2  A    between atoms: C_4  and  N_22
REMARK    3  A    between atoms: C_12  and  C_19
REMARK    4  A    between atoms: N_22  and  S_24
REMARK    5  A    between atoms: S_24  and  C_27
REMARK                            x       y       z     vdW  Elec       q    Type
REMARK                         _______ _______ _______ _____ _____    ______ ____
ROOT
ATOM      1  N   UNL     1     -36.909  19.386   0.393  0.00  0.00    -0.241 NA
ATOM      2  C   UNL     1     -34.600  19.679   1.048  0.00  0.00    +0.022 C 
ATOM      3  C   UNL     1     -34.990  20.561   2.050  0.00  0.00    +0.019 C 
ATOM      4  C   UNL     1     -36.337  20.857   2.225  0.00  0.00    +0.084 C 
ATOM      5  C   UNL     1     -35.591  19.123   0.254  0.00  0.00    +0.099 C 
ATOM      6  C   UNL     1     -37.249  20.248   1.378  0.00  0.00    +0.115 C 
ENDROOT
BRANCH   2   9
ATOM      7  N   UNL     1     -31.061  19.865  -0.095  0.00  0.00    -0.240 N 
ATOM      8  N   UNL     1     -29.177  18.668   0.055  0.00  0.00    -0.226 NA
ATOM      9  C   UNL     1     -33.180  19.344   0.838  0.00  0.00    +0.017 C 
ATOM     10  C   UNL     1     -30.449  18.719   0.399  0.00  0.00    +0.140 C 
ATOM     11  C   UNL     1     -32.401  20.179   0.114  0.00  0.00    +0.072 C 
ATOM     12  C   UNL     1     -30.103  20.560  -0.789  0.00  0.00    +0.154 C 
ATOM     13  C   UNL     1     -32.557  18.125   1.369  0.00  0.00    +0.004 C 
ATOM     14  C   UNL     1     -31.260  17.832   1.160  0.00  0.00    +0.035 C 
ATOM     15  C   UNL     1     -28.958  19.806  -0.680  0.00  0.00    +0.127 C 
BRANCH  12  19
ATOM     16  O   UNL     1     -30.088  23.905  -2.016  0.00  0.00    -0.316 OA
ATOM     17  N   UNL     1     -30.969  21.948  -2.656  0.00  0.00    -0.311 NA
ATOM     18  N   UNL     1     -29.693  22.968  -1.054  0.00  0.00    -0.006 NA
ATOM     19  C   UNL     1     -30.252  21.838  -1.501  0.00  0.00    +0.143 C 
ATOM     20  C   UNL     1     -30.835  23.223  -2.923  0.00  0.00    +0.294 C 
ATOM     21  C   UNL     1     -31.373  24.001  -4.047  0.00  0.00    +0.114 C 
ENDBRANCH  12  19
ENDBRANCH   2   9
BRANCH   4  22
ATOM     22  N   UNL     1     -36.766  21.756   3.243  0.00  0.00    -0.213 N 
ATOM     23  H   UNL     1     -36.837  21.457   4.178  0.00  0.00    +0.174 HD
BRANCH  22  24
ATOM     24  S   UNL     1     -37.159  23.378   2.808  0.00  0.00    +0.074 S 
ATOM     25  O   UNL     1     -38.529  23.655   3.199  0.00  0.00    -0.150 OA
ATOM     26  O   UNL     1     -36.729  23.645   1.449  0.00  0.00    -0.150 OA
BRANCH  24  27
ATOM     27  C   UNL     1     -36.118  24.308   3.896  0.00  0.00    +0.125 C 
ATOM     28  C   UNL     1     -34.736  24.111   3.875  0.00  0.00    +0.020 C 
ATOM     29  C   UNL     1     -36.677  25.233   4.777  0.00  0.00    +0.020 C 
ATOM     30  C   UNL     1     -33.916  24.841   4.736  0.00  0.00    +0.001 C 
ATOM     31  C   UNL     1     -35.856  25.962   5.637  0.00  0.00    +0.001 C 
ATOM     32  C   UNL     1     -34.476  25.766   5.616  0.00  0.00    +0.000 C 
ENDBRANCH  24  27
ENDBRANCH  22  24
ENDBRANCH   4  22
TORSDOF 5
ENDMDL
MODEL 4
REMARK VINA RESULT:      -7.5      1.922      2.393
REMARK  Name = 52936850
REMARK  5 active torsions:
REMARK  status: ('A' for Active; 'I' for Inactive)
REMARK    1  A    between atoms: C_2  and  C_9
REMARK    2  A    between atoms: C_4  and  N_22
REMARK    3  A    between atoms: C_12  and  C_19
REMARK    4  A    between atoms: N_22  and  S_24
REMARK    5  A    between atoms: S_24  and  C_27
REMARK                            x       y       z     vdW  Elec       q    Type
REMARK                         _______ _______ _______ _____ _____    ______ ____
ROOT
ATOM      1  N   UNL     1     -39.475  27.135   0.260  0.00  0.00    -0.241 NA
ATOM      2  C   UNL     1     -41.116  26.433   1.890  0.00  0.00    +0.022 C 
ATOM      3  C   UNL     1     -40.113  25.853   2.660  0.00  0.00    +0.019 C 
ATOM      4  C   UNL     1     -38.792  25.913   2.231  0.00  0.00    +0.084 C 
ATOM      5  C   UNL     1     -40.747  27.056   0.709  0.00  0.00    +0.099 C 
ATOM      6  C   UNL     1     -38.528  26.561   1.035  0.00  0.00    +0.115 C 
ENDROOT
BRANCH   2   9
ATOM      7  N   UNL     1     -44.271  27.146   3.736  0.00  0.00    -0.240 N 
ATOM      8  N   UNL     1     -46.403  26.468   3.752  0.00  0.00    -0.226 NA
ATOM      9  C   UNL     1     -42.527  26.387   2.317  0.00  0.00    +0.017 C 
ATOM     10  C   UNL     1     -45.229  26.308   3.174  0.00  0.00    +0.140 C 
ATOM     11  C   UNL     1     -42.942  27.189   3.322  0.00  0.00    +0.072 C 
ATOM     12  C   UNL     1     -44.899  27.862   4.723  0.00  0.00    +0.154 C 
ATOM     13  C   UNL     1     -43.519  25.492   1.709  0.00  0.00    +0.004 C 
ATOM     14  C   UNL     1     -44.801  25.458   2.117  0.00  0.00    +0.035 C 
ATOM     15  C   UNL     1     -46.204  27.429   4.710  0.00  0.00    +0.127 C 
BRANCH  12  19
ATOM     16  O   UNL     1     -43.057  30.429   6.371  0.00  0.00    -0.316 OA
ATOM     17  N   UNL     1     -44.812  29.125   6.858  0.00  0.00    -0.311 NA
ATOM     18  N   UNL     1     -43.265  29.621   5.247  0.00  0.00    -0.006 NA
ATOM     19  C   UNL     1     -44.316  28.879   5.611  0.00  0.00    +0.143 C 
ATOM     20  C   UNL     1     -44.009  30.073   7.273  0.00  0.00    +0.294 C 
ATOM     21  C   UNL     1     -43.998  30.791   8.554  0.00  0.00    +0.114 C 
ENDBRANCH  12  19
ENDBRANCH   2   9
BRANCH   4  22
ATOM     22  N   UNL     1     -37.743  25.328   2.998  0.00  0.00    -0.213 N 
ATOM     23  H   UNL     1     -37.544  25.655   3.905  0.00  0.00    +0.174 HD
BRANCH  22  24
ATOM     24  S   UNL     1     -36.828  24.039   2.309  0.00  0.00    +0.074 S 
ATOM     25  O   UNL     1     -35.731  24.595   1.537  0.00  0.00    -0.150 OA
ATOM     26  O   UNL     1     -37.719  23.070   1.700  0.00  0.00    -0.150 OA
BRANCH  24  27
ATOM     27  C   UNL     1     -36.117  23.291   3.746  0.00  0.00    +0.125 C 
ATOM     28  C   UNL     1     -35.963  24.036   4.915  0.00  0.00    +0.020 C 
ATOM     29  C   UNL     1     -35.707  21.958   3.710  0.00  0.00    +0.020 C 
ATOM     30  C   UNL     1     -35.398  23.448   6.048  0.00  0.00    +0.001 C 
ATOM     31  C   UNL     1     -35.142  21.371   4.841  0.00  0.00    +0.001 C 
ATOM     32  C   UNL     1     -34.988  22.115   6.010  0.00  0.00    +0.000 C 
ENDBRANCH  24  27
ENDBRANCH  22  24
ENDBRANCH   4  22
TORSDOF 5
ENDMDL
MODEL 5
REMARK VINA RESULT:      -7.5      4.484      8.815
REMARK  Name = 52936850
REMARK  5 active torsions:
REMARK  status: ('A' for Active; 'I' for Inactive)
REMARK    1  A    between atoms: C_2  and  C_9
REMARK    2  A    between atoms: C_4  and  N_22
REMARK    3  A    between atoms: C_12  and  C_19
REMARK    4  A    between atoms: N_22  and  S_24
REMARK    5  A    between atoms: S_24  and  C_27
REMARK                            x       y       z     vdW  Elec       q    Type
REMARK                         _______ _______ _______ _____ _____    ______ ____
ROOT
ATOM      1  N   UNL     1     -40.111  26.017   1.024  0.00  0.00    -0.241 NA
ATOM      2  C   UNL     1     -39.706  23.634   1.007  0.00  0.00    +0.022 C 
ATOM      3  C   UNL     1     -39.052  23.729   2.230  0.00  0.00    +0.019 C 
ATOM      4  C   UNL     1     -38.927  24.967   2.852  0.00  0.00    +0.084 C 
ATOM      5  C   UNL     1     -40.213  24.798   0.451  0.00  0.00    +0.099 C 
ATOM      6  C   UNL     1     -39.470  26.070   2.213  0.00  0.00    +0.115 C 
ENDROOT
BRANCH   2   9
ATOM      7  N   UNL     1     -38.902  20.331  -0.513  0.00  0.00    -0.240 N 
ATOM      8  N   UNL     1     -39.950  18.666  -1.577  0.00  0.00    -0.226 NA
ATOM      9  C   UNL     1     -39.856  22.336   0.322  0.00  0.00    +0.017 C 
ATOM     10  C   UNL     1     -40.107  19.844  -1.006  0.00  0.00    +0.140 C 
ATOM     11  C   UNL     1     -38.769  21.553   0.139  0.00  0.00    +0.072 C 
ATOM     12  C   UNL     1     -37.945  19.391  -0.803  0.00  0.00    +0.154 C 
ATOM     13  C   UNL     1     -41.140  21.845  -0.191  0.00  0.00    +0.004 C 
ATOM     14  C   UNL     1     -41.257  20.661  -0.821  0.00  0.00    +0.035 C 
ATOM     15  C   UNL     1     -38.615  18.381  -1.453  0.00  0.00    +0.127 C 
BRANCH  12  19
ATOM     16  O   UNL     1     -34.395  19.668  -0.694  0.00  0.00    -0.316 OA
ATOM     17  N   UNL     1     -36.026  19.168   0.756  0.00  0.00    -0.311 NA
ATOM     18  N   UNL     1     -35.593  19.746  -1.415  0.00  0.00    -0.006 NA
ATOM     19  C   UNL     1     -36.509  19.438  -0.491  0.00  0.00    +0.143 C 
ATOM     20  C   UNL     1     -34.739  19.322   0.574  0.00  0.00    +0.294 C 
ATOM     21  C   UNL     1     -33.637  19.175   1.535  0.00  0.00    +0.114 C 
ENDBRANCH  12  19
ENDBRANCH   2   9
BRANCH   4  22
ATOM     22  N   UNL     1     -38.263  25.096   4.106  0.00  0.00    -0.213 N 
ATOM     23  H   UNL     1     -38.770  25.053   4.948  0.00  0.00    +0.174 HD
BRANCH  22  24
ATOM     24  S   UNL     1     -36.554  25.329   4.122  0.00  0.00    +0.074 S 
ATOM     25  O   UNL     1     -36.204  26.196   5.233  0.00  0.00    -0.150 OA
ATOM     26  O   UNL     1     -36.084  25.645   2.786  0.00  0.00    -0.150 OA
BRANCH  24  27
ATOM     27  C   UNL     1     -35.971  23.709   4.531  0.00  0.00    +0.125 C 
ATOM     28  C   UNL     1     -35.539  23.432   5.829  0.00  0.00    +0.020 C 
ATOM     29  C   UNL     1     -35.939  22.711   3.558  0.00  0.00    +0.020 C 
ATOM     30  C   UNL     1     -35.075  22.156   6.151  0.00  0.00    +0.001 C 
ATOM     31  C   UNL     1     -35.475  21.436   3.880  0.00  0.00    +0.001 C 
ATOM     32  C   UNL     1     -35.043  21.159   5.177  0.00  0.00    +0.000 C 
ENDBRANCH  24  27
ENDBRANCH  22  24
ENDBRANCH   4  22
TORSDOF 5
ENDMDL
MODEL 6
REMARK VINA RESULT:      -7.5      6.666     12.673
REMARK  Name = 52936850
REMARK  5 active torsions:
REMARK  status: ('A' for Active; 'I' for Inactive)
REMARK    1  A    between atoms: C_2  and  C_9
REMARK    2  A    between atoms: C_4  and  N_22
REMARK    3  A    between atoms: C_12  and  C_19
REMARK    4  A    between atoms: N_22  and  S_24
REMARK    5  A    between atoms: S_24  and  C_27
REMARK                            x       y       z     vdW  Elec       q    Type
REMARK                         _______ _______ _______ _____ _____    ______ ____
ROOT
ATOM      1  N   UNL     1     -38.041  20.510  -0.227  0.00  0.00    -0.241 NA
ATOM      2  C   UNL     1     -36.001  19.711   0.797  0.00  0.00    +0.022 C 
ATOM      3  C   UNL     1     -36.236  20.514   1.908  0.00  0.00    +0.019 C 
ATOM      4  C   UNL     1     -37.372  21.314   1.953  0.00  0.00    +0.084 C 
ATOM      5  C   UNL     1     -36.926  19.746  -0.235  0.00  0.00    +0.099 C 
ATOM      6  C   UNL     1     -38.235  21.276   0.870  0.00  0.00    +0.115 C 
ENDROOT
BRANCH   2   9
ATOM      7  N   UNL     1     -33.734  16.892  -0.084  0.00  0.00    -0.240 N 
ATOM      8  N   UNL     1     -31.638  16.224   0.326  0.00  0.00    -0.226 NA
ATOM      9  C   UNL     1     -34.806  18.850   0.718  0.00  0.00    +0.017 C 
ATOM     10  C   UNL     1     -32.532  17.163   0.562  0.00  0.00    +0.140 C 
ATOM     11  C   UNL     1     -34.855  17.714  -0.012  0.00  0.00    +0.072 C 
ATOM     12  C   UNL     1     -33.564  15.709  -0.757  0.00  0.00    +0.154 C 
ATOM     13  C   UNL     1     -33.550  19.158   1.412  0.00  0.00    +0.004 C 
ATOM     14  C   UNL     1     -32.472  18.356   1.335  0.00  0.00    +0.035 C 
ATOM     15  C   UNL     1     -32.271  15.322  -0.491  0.00  0.00    +0.127 C 
BRANCH  12  19
ATOM     16  O   UNL     1     -35.614  14.265  -3.289  0.00  0.00    -0.316 OA
ATOM     17  N   UNL     1     -35.516  14.204  -1.053  0.00  0.00    -0.311 NA
ATOM     18  N   UNL     1     -34.536  15.081  -2.925  0.00  0.00    -0.006 NA
ATOM     19  C   UNL     1     -34.543  14.994  -1.591  0.00  0.00    +0.143 C 
ATOM     20  C   UNL     1     -36.136  13.788  -2.129  0.00  0.00    +0.294 C 
ATOM     21  C   UNL     1     -37.295  12.894  -2.250  0.00  0.00    +0.114 C 
ENDBRANCH  12  19
ENDBRANCH   2   9
BRANCH   4  22
ATOM     22  N   UNL     1     -37.640  22.147   3.078  0.00  0.00    -0.213 N 
ATOM     23  H   UNL     1     -37.771  21.755   3.971  0.00  0.00    +0.174 HD
BRANCH  22  24
ATOM     24  S   UNL     1     -37.730  23.854   2.847  0.00  0.00    +0.074 S 
ATOM     25  O   UNL     1     -38.982  24.341   3.397  0.00  0.00    -0.150 OA
ATOM     26  O   UNL     1     -37.363  24.190   1.484  0.00  0.00    -0.150 OA
BRANCH  24  27
ATOM     27  C   UNL     1     -36.441  24.433   3.912  0.00  0.00    +0.125 C 
ATOM     28  C   UNL     1     -36.658  25.545   4.726  0.00  0.00    +0.020 C 
ATOM     29  C   UNL     1     -35.209  23.780   3.937  0.00  0.00    +0.020 C 
ATOM     30  C   UNL     1     -35.641  26.005   5.563  0.00  0.00    +0.001 C 
ATOM     31  C   UNL     1     -34.193  24.240   4.774  0.00  0.00    +0.001 C 
ATOM     32  C   UNL     1     -34.409  25.352   5.587  0.00  0.00    +0.000 C 
ENDBRANCH  24  27
ENDBRANCH  22  24
ENDBRANCH   4  22
TORSDOF 5
ENDMDL
MODEL 7
REMARK VINA RESULT:      -7.4      2.732      8.913
REMARK  Name = 52936850
REMARK  5 active torsions:
REMARK  status: ('A' for Active; 'I' for Inactive)
REMARK    1  A    between atoms: C_2  and  C_9
REMARK    2  A    between atoms: C_4  and  N_22
REMARK    3  A    between atoms: C_12  and  C_19
REMARK    4  A    between atoms: N_22  and  S_24
REMARK    5  A    between atoms: S_24  and  C_27
REMARK                            x       y       z     vdW  Elec       q    Type
REMARK                         _______ _______ _______ _____ _____    ______ ____
ROOT
ATOM      1  N   UNL     1     -40.509  27.645   0.540  0.00  0.00    -0.241 NA
ATOM      2  C   UNL     1     -39.965  25.753   1.944  0.00  0.00    +0.022 C 
ATOM      3  C   UNL     1     -41.124  25.962   2.684  0.00  0.00    +0.019 C 
ATOM      4  C   UNL     1     -41.975  27.010   2.355  0.00  0.00    +0.084 C 
ATOM      5  C   UNL     1     -39.706  26.616   0.890  0.00  0.00    +0.099 C 
ATOM      6  C   UNL     1     -41.626  27.816   1.282  0.00  0.00    +0.115 C 
ENDROOT
BRANCH   2   9
ATOM      7  N   UNL     1     -37.015  23.882   3.232  0.00  0.00    -0.240 N 
ATOM      8  N   UNL     1     -36.248  21.781   3.294  0.00  0.00    -0.226 NA
ATOM      9  C   UNL     1     -39.042  24.650   2.267  0.00  0.00    +0.017 C 
ATOM     10  C   UNL     1     -37.237  22.553   2.889  0.00  0.00    +0.140 C 
ATOM     11  C   UNL     1     -37.895  24.917   2.930  0.00  0.00    +0.072 C 
ATOM     12  C   UNL     1     -35.811  23.927   3.888  0.00  0.00    +0.154 C 
ATOM     13  C   UNL     1     -39.299  23.254   1.891  0.00  0.00    +0.004 C 
ATOM     14  C   UNL     1     -38.441  22.261   2.189  0.00  0.00    +0.035 C 
ATOM     15  C   UNL     1     -35.364  22.626   3.914  0.00  0.00    +0.127 C 
BRANCH  12  19
ATOM     16  O   UNL     1     -34.450  27.107   4.740  0.00  0.00    -0.316 OA
ATOM     17  N   UNL     1     -34.348  25.027   5.565  0.00  0.00    -0.311 NA
ATOM     18  N   UNL     1     -35.242  26.317   3.899  0.00  0.00    -0.006 NA
ATOM     19  C   UNL     1     -35.132  25.103   4.450  0.00  0.00    +0.143 C 
ATOM     20  C   UNL     1     -33.961  26.272   5.694  0.00  0.00    +0.294 C 
ATOM     21  C   UNL     1     -33.087  26.875   6.708  0.00  0.00    +0.114 C 
ENDBRANCH  12  19
ENDBRANCH   2   9
BRANCH   4  22
ATOM     22  N   UNL     1     -43.169  27.249   3.094  0.00  0.00    -0.213 N 
ATOM     23  H   UNL     1     -43.913  26.605   3.066  0.00  0.00    +0.174 HD
BRANCH  22  24
ATOM     24  S   UNL     1     -43.288  28.685   4.041  0.00  0.00    +0.074 S 
ATOM     25  O   UNL     1     -43.886  29.735   3.237  0.00  0.00    -0.150 OA
ATOM     26  O   UNL     1     -42.036  28.930   4.730  0.00  0.00    -0.150 OA
BRANCH  24  27
ATOM     27  C   UNL     1     -44.491  28.221   5.254  0.00  0.00    +0.125 C 
ATOM     28  C   UNL     1     -45.065  26.951   5.215  0.00  0.00    +0.020 C 
ATOM     29  C   UNL     1     -44.866  29.126   6.247  0.00  0.00    +0.020 C 
ATOM     30  C   UNL     1     -46.017  26.586   6.168  0.00  0.00    +0.001 C 
ATOM     31  C   UNL     1     -45.817  28.761   7.200  0.00  0.00    +0.001 C 
ATOM     32  C   UNL     1     -46.392  27.491   7.161  0.00  0.00    +0.000 C 
ENDBRANCH  24  27
ENDBRANCH  22  24
ENDBRANCH   4  22
TORSDOF 5
ENDMDL
MODEL 8
REMARK VINA RESULT:      -7.4      6.915      9.458
REMARK  Name = 52936850
REMARK  5 active torsions:
REMARK  status: ('A' for Active; 'I' for Inactive)
REMARK    1  A    between atoms: C_2  and  C_9
REMARK    2  A    between atoms: C_4  and  N_22
REMARK    3  A    between atoms: C_12  and  C_19
REMARK    4  A    between atoms: N_22  and  S_24
REMARK    5  A    between atoms: S_24  and  C_27
REMARK                            x       y       z     vdW  Elec       q    Type
REMARK                         _______ _______ _______ _____ _____    ______ ____
ROOT
ATOM      1  N   UNL     1     -38.844  22.482   1.890  0.00  0.00    -0.241 NA
ATOM      2  C   UNL     1     -36.806  23.202   2.975  0.00  0.00    +0.022 C 
ATOM      3  C   UNL     1     -36.238  21.953   2.750  0.00  0.00    +0.019 C 
ATOM      4  C   UNL     1     -36.969  20.969   2.096  0.00  0.00    +0.084 C 
ATOM      5  C   UNL     1     -38.101  23.414   2.529  0.00  0.00    +0.099 C 
ATOM      6  C   UNL     1     -38.257  21.281   1.689  0.00  0.00    +0.115 C 
ENDROOT
BRANCH   2   9
ATOM      7  N   UNL     1     -34.220  25.768   3.745  0.00  0.00    -0.240 N 
ATOM      8  N   UNL     1     -33.730  27.234   5.362  0.00  0.00    -0.226 NA
ATOM      9  C   UNL     1     -36.056  24.268   3.665  0.00  0.00    +0.017 C 
ATOM     10  C   UNL     1     -34.581  26.304   4.976  0.00  0.00    +0.140 C 
ATOM     11  C   UNL     1     -34.938  24.767   3.095  0.00  0.00    +0.072 C 
ATOM     12  C   UNL     1     -33.073  26.410   3.353  0.00  0.00    +0.154 C 
ATOM     13  C   UNL     1     -36.458  24.815   4.967  0.00  0.00    +0.004 C 
ATOM     14  C   UNL     1     -35.756  25.783   5.586  0.00  0.00    +0.035 C 
ATOM     15  C   UNL     1     -32.795  27.304   4.361  0.00  0.00    +0.127 C 
BRANCH  12  19
ATOM     16  O   UNL     1     -30.673  25.801   0.791  0.00  0.00    -0.316 OA
ATOM     17  N   UNL     1     -32.856  26.291   0.883  0.00  0.00    -0.311 NA
ATOM     18  N   UNL     1     -30.990  25.909   2.150  0.00  0.00    -0.006 NA
ATOM     19  C   UNL     1     -32.294  26.200   2.123  0.00  0.00    +0.143 C 
ATOM     20  C   UNL     1     -31.826  26.041   0.114  0.00  0.00    +0.294 C 
ATOM     21  C   UNL     1     -31.749  25.984  -1.352  0.00  0.00    +0.114 C 
ENDBRANCH  12  19
ENDBRANCH   2   9
BRANCH   4  22
ATOM     22  N   UNL     1     -36.414  19.680   1.851  0.00  0.00    -0.213 N 
ATOM     23  H   UNL     1     -36.219  19.068   2.597  0.00  0.00    +0.174 HD
BRANCH  22  24
ATOM     24  S   UNL     1     -36.089  19.209   0.224  0.00  0.00    +0.074 S 
ATOM     25  O   UNL     1     -35.871  20.399  -0.579  0.00  0.00    -0.150 OA
ATOM     26  O   UNL     1     -37.053  18.215  -0.207  0.00  0.00    -0.150 OA
BRANCH  24  27
ATOM     27  C   UNL     1     -34.520  18.406   0.385  0.00  0.00    +0.125 C 
ATOM     28  C   UNL     1     -34.277  17.211  -0.292  0.00  0.00    +0.020 C 
ATOM     29  C   UNL     1     -33.528  18.965   1.190  0.00  0.00    +0.020 C 
ATOM     30  C   UNL     1     -33.042  16.575  -0.162  0.00  0.00    +0.001 C 
ATOM     31  C   UNL     1     -32.294  18.329   1.320  0.00  0.00    +0.001 C 
ATOM     32  C   UNL     1     -32.051  17.134   0.643  0.00  0.00    +0.000 C 
ENDBRANCH  24  27
ENDBRANCH  22  24
ENDBRANCH   4  22
TORSDOF 5
ENDMDL
MODEL 9
REMARK VINA RESULT:      -7.4      5.980      7.394
REMARK  Name = 52936850
REMARK  5 active torsions:
REMARK  status: ('A' for Active; 'I' for Inactive)
REMARK    1  A    between atoms: C_2  and  C_9
REMARK    2  A    between atoms: C_4  and  N_22
REMARK    3  A    between atoms: C_12  and  C_19
REMARK    4  A    between atoms: N_22  and  S_24
REMARK    5  A    between atoms: S_24  and  C_27
REMARK                            x       y       z     vdW  Elec       q    Type
REMARK                         _______ _______ _______ _____ _____    ______ ____
ROOT
ATOM      1  N   UNL     1     -32.339  28.378   4.341  0.00  0.00    -0.241 NA
ATOM      2  C   UNL     1     -33.860  29.729   3.034  0.00  0.00    +0.022 C 
ATOM      3  C   UNL     1     -34.648  28.611   2.784  0.00  0.00    +0.019 C 
ATOM      4  C   UNL     1     -34.284  27.377   3.311  0.00  0.00    +0.084 C 
ATOM      5  C   UNL     1     -32.725  29.560   3.812  0.00  0.00    +0.099 C 
ATOM      6  C   UNL     1     -33.131  27.315   4.076  0.00  0.00    +0.115 C 
ENDROOT
BRANCH   2   9
ATOM      7  N   UNL     1     -35.788  32.480   1.428  0.00  0.00    -0.240 N 
ATOM      8  N   UNL     1     -35.510  34.627   0.866  0.00  0.00    -0.226 NA
ATOM      9  C   UNL     1     -34.220  31.052   2.490  0.00  0.00    +0.017 C 
ATOM     10  C   UNL     1     -34.935  33.578   1.419  0.00  0.00    +0.140 C 
ATOM     11  C   UNL     1     -35.445  31.236   1.950  0.00  0.00    +0.072 C 
ATOM     12  C   UNL     1     -36.960  32.883   0.840  0.00  0.00    +0.154 C 
ATOM     13  C   UNL     1     -33.299  32.195   2.491  0.00  0.00    +0.004 C 
ATOM     14  C   UNL     1     -33.642  33.393   1.983  0.00  0.00    +0.035 C 
ATOM     15  C   UNL     1     -36.764  34.203   0.507  0.00  0.00    +0.127 C 
BRANCH  12  19
ATOM     16  O   UNL     1     -40.132  31.259   0.834  0.00  0.00    -0.316 OA
ATOM     17  N   UNL     1     -38.292  31.227  -0.443  0.00  0.00    -0.311 NA
ATOM     18  N   UNL     1     -39.237  32.163   1.419  0.00  0.00    -0.006 NA
ATOM     19  C   UNL     1     -38.176  32.088   0.609  0.00  0.00    +0.143 C 
ATOM     20  C   UNL     1     -39.498  30.751  -0.256  0.00  0.00    +0.294 C 
ATOM     21  C   UNL     1     -40.244  29.765  -1.047  0.00  0.00    +0.114 C 
ENDBRANCH  12  19
ENDBRANCH   2   9
BRANCH   4  22
ATOM     22  N   UNL     1     -35.071  26.214   3.072  0.00  0.00    -0.213 N 
ATOM     23  H   UNL     1     -34.934  25.674   2.261  0.00  0.00    +0.174 HD
BRANCH  22  24
ATOM     24  S   UNL     1     -36.269  25.768   4.229  0.00  0.00    +0.074 S 
ATOM     25  O   UNL     1     -37.570  25.754   3.584  0.00  0.00    -0.150 OA
ATOM     26  O   UNL     1     -36.080  26.522   5.454  0.00  0.00    -0.150 OA
BRANCH  24  27
ATOM     27  C   UNL     1     -35.844  24.082   4.561  0.00  0.00    +0.125 C 
ATOM     28  C   UNL     1     -35.460  23.701   5.847  0.00  0.00    +0.020 C 
ATOM     29  C   UNL     1     -35.890  23.136   3.538  0.00  0.00    +0.020 C 
ATOM     30  C   UNL     1     -35.120  22.373   6.108  0.00  0.00    +0.001 C 
ATOM     31  C   UNL     1     -35.551  21.809   3.799  0.00  0.00    +0.001 C 
ATOM     32  C   UNL     1     -35.166  21.427   5.085  0.00  0.00    +0.000 C 
ENDBRANCH  24  27
ENDBRANCH  22  24
ENDBRANCH   4  22
TORSDOF 5
ENDMDL
