MODEL 1
REMARK VINA RESULT:      -6.3      0.000      0.000
REMARK  Name = 195344
REMARK  8 active torsions:
REMARK  status: ('A' for Active; 'I' for Inactive)
REMARK    1  A    between atoms: C_7  and  C_22
REMARK    2  A    between atoms: C_11  and  S_26
REMARK    3  A    between atoms: C_22  and  C_23
REMARK    4  A    between atoms: C_23  and  O_24
REMARK    5  A    between atoms: S_26  and  C_27
REMARK    6  A    between atoms: C_27  and  C_28
REMARK    7  A    between atoms: C_28  and  C_30
REMARK    8  A    between atoms: C_30  and  O_31
REMARK                            x       y       z     vdW  Elec       q    Type
REMARK                         _______ _______ _______ _____ _____    ______ ____
ROOT
ATOM      1  O   UNL     1     -40.405  25.498   3.373  0.00  0.00    -0.291 OA
ATOM      2  C   UNL     1     -35.190  20.318   1.172  0.00  0.00    +0.001 C 
ATOM      3  C   UNL     1     -35.614  19.332   0.062  0.00  0.00    +0.007 C 
ATOM      4  C   UNL     1     -35.851  21.699   1.037  0.00  0.00    +0.011 C 
ATOM      5  C   UNL     1     -37.407  21.530   1.082  0.00  0.00    +0.004 C 
ATOM      6  C   UNL     1     -38.181  22.900   0.933  0.00  0.00    +0.016 C 
ATOM      7  C   UNL     1     -34.743  18.119   0.461  0.00  0.00    +0.060 C 
ATOM      8  C   UNL     1     -37.125  19.107   0.195  0.00  0.00    +0.000 C 
ATOM      9  C   UNL     1     -37.904  20.430   0.098  0.00  0.00    +0.000 C 
ATOM     10  C   UNL     1     -33.667  20.226   1.161  0.00  0.00    +0.000 C 
ATOM     11  C   UNL     1     -35.350  22.738   2.070  0.00  0.00    +0.052 C 
ATOM     12  C   UNL     1     -33.393  18.739   0.873  0.00  0.00    +0.007 C 
ATOM     13  C   UNL     1     -37.570  23.954   1.864  0.00  0.00    -0.041 C 
ATOM     14  C   UNL     1     -36.063  24.077   1.854  0.00  0.00    +0.033 C 
ATOM     15  C   UNL     1     -35.275  19.809  -1.374  0.00  0.00    +0.000 C 
ATOM     16  C   UNL     1     -39.672  22.659   1.308  0.00  0.00    +0.012 C 
ATOM     17  C   UNL     1     -38.113  23.449  -0.512  0.00  0.00    +0.004 C 
ATOM     18  C   UNL     1     -40.453  23.940   1.557  0.00  0.00    +0.069 C 
ATOM     19  C   UNL     1     -38.291  24.770   2.652  0.00  0.00    +0.029 C 
ATOM     20  C   UNL     1     -39.772  24.773   2.609  0.00  0.00    +0.173 C 
ENDROOT
BRANCH   7  22
ATOM     21  O   UNL     1     -33.656  17.121  -1.409  0.00  0.00    -0.293 OA
ATOM     22  C   UNL     1     -34.592  17.084  -0.612  0.00  0.00    +0.180 C 
BRANCH  22  23
ATOM     23  C   UNL     1     -35.651  16.002  -0.653  0.00  0.00    +0.202 C 
BRANCH  23  24
ATOM     24  O   UNL     1     -35.727  15.332   0.587  0.00  0.00    -0.375 OA
ATOM     25  H   UNL     1     -36.654  15.120   0.783  0.00  0.00    +0.211 HD
ENDBRANCH  23  24
ENDBRANCH  22  23
ENDBRANCH   7  22
BRANCH  11  26
ATOM     26  S   UNL     1     -35.524  22.222   3.825  0.00  0.00    -0.140 S 
BRANCH  26  27
ATOM     27  C   UNL     1     -34.772  23.679   4.577  0.00  0.00    +0.069 C 
BRANCH  27  28
ATOM     28  C   UNL     1     -35.736  24.405   5.506  0.00  0.00    +0.121 C 
BRANCH  28  30
ATOM     29  O   UNL     1     -34.402  26.379   5.909  0.00  0.00    -0.250 OA
ATOM     30  C   UNL     1     -35.469  25.891   5.557  0.00  0.00    +0.315 C 
BRANCH  30  31
ATOM     31  O   UNL     1     -36.541  26.635   5.189  0.00  0.00    -0.480 OA
ATOM     32  H   UNL     1     -37.085  26.354   4.480  0.00  0.00    +0.295 HD
ENDBRANCH  30  31
ENDBRANCH  28  30
ENDBRANCH  27  28
ENDBRANCH  26  27
ENDBRANCH  11  26
TORSDOF 8
ENDMDL
MODEL 2
REMARK VINA RESULT:      -6.1      2.342      6.977
REMARK  Name = 195344
REMARK  8 active torsions:
REMARK  status: ('A' for Active; 'I' for Inactive)
REMARK    1  A    between atoms: C_7  and  C_22
REMARK    2  A    between atoms: C_11  and  S_26
REMARK    3  A    between atoms: C_22  and  C_23
REMARK    4  A    between atoms: C_23  and  O_24
REMARK    5  A    between atoms: S_26  and  C_27
REMARK    6  A    between atoms: C_27  and  C_28
REMARK    7  A    between atoms: C_28  and  C_30
REMARK    8  A    between atoms: C_30  and  O_31
REMARK                            x       y       z     vdW  Elec       q    Type
REMARK                         _______ _______ _______ _____ _____    ______ ____
ROOT
ATOM      1  O   UNL     1     -41.637  23.247  -1.814  0.00  0.00    -0.291 OA
ATOM      2  C   UNL     1     -36.023  24.257   3.318  0.00  0.00    +0.001 C 
ATOM      3  C   UNL     1     -35.763  25.704   3.789  0.00  0.00    +0.007 C 
ATOM      4  C   UNL     1     -37.498  23.990   2.976  0.00  0.00    +0.011 C 
ATOM      5  C   UNL     1     -37.949  24.975   1.846  0.00  0.00    +0.004 C 
ATOM      6  C   UNL     1     -39.464  24.789   1.434  0.00  0.00    +0.016 C 
ATOM      7  C   UNL     1     -34.252  25.598   4.095  0.00  0.00    +0.060 C 
ATOM      8  C   UNL     1     -36.118  26.640   2.627  0.00  0.00    +0.000 C 
ATOM      9  C   UNL     1     -37.575  26.450   2.174  0.00  0.00    +0.000 C 
ATOM     10  C   UNL     1     -35.352  23.410   4.395  0.00  0.00    +0.000 C 
ATOM     11  C   UNL     1     -37.800  22.515   2.615  0.00  0.00    +0.052 C 
ATOM     12  C   UNL     1     -34.094  24.218   4.764  0.00  0.00    +0.007 C 
ATOM     13  C   UNL     1     -39.773  23.302   1.223  0.00  0.00    -0.041 C 
ATOM     14  C   UNL     1     -39.290  22.349   2.293  0.00  0.00    +0.033 C 
ATOM     15  C   UNL     1     -36.558  26.110   5.057  0.00  0.00    +0.000 C 
ATOM     16  C   UNL     1     -39.708  25.576   0.114  0.00  0.00    +0.012 C 
ATOM     17  C   UNL     1     -40.429  25.323   2.519  0.00  0.00    +0.004 C 
ATOM     18  C   UNL     1     -41.005  25.202  -0.588  0.00  0.00    +0.069 C 
ATOM     19  C   UNL     1     -40.457  22.818   0.172  0.00  0.00    +0.029 C 
ATOM     20  C   UNL     1     -41.056  23.719  -0.840  0.00  0.00    +0.173 C 
ENDROOT
BRANCH   7  22
ATOM     21  O   UNL     1     -33.499  27.826   4.474  0.00  0.00    -0.293 OA
ATOM     22  C   UNL     1     -33.711  26.709   4.943  0.00  0.00    +0.180 C 
BRANCH  22  23
ATOM     23  C   UNL     1     -33.447  26.375   6.396  0.00  0.00    +0.202 C 
BRANCH  23  24
ATOM     24  O   UNL     1     -32.298  27.050   6.861  0.00  0.00    -0.375 OA
ATOM     25  H   UNL     1     -31.729  27.275   6.109  0.00  0.00    +0.211 HD
ENDBRANCH  23  24
ENDBRANCH  22  23
ENDBRANCH   7  22
BRANCH  11  26
ATOM     26  S   UNL     1     -36.791  21.839   1.235  0.00  0.00    -0.140 S 
BRANCH  26  27
ATOM     27  C   UNL     1     -36.295  20.300   2.035  0.00  0.00    +0.069 C 
BRANCH  27  28
ATOM     28  C   UNL     1     -34.797  20.254   2.307  0.00  0.00    +0.121 C 
BRANCH  28  30
ATOM     29  O   UNL     1     -32.874  19.476   1.067  0.00  0.00    -0.250 OA
ATOM     30  C   UNL     1     -34.067  19.370   1.323  0.00  0.00    +0.315 C 
BRANCH  30  31
ATOM     31  O   UNL     1     -34.874  18.453   0.735  0.00  0.00    -0.480 OA
ATOM     32  H   UNL     1     -35.805  18.535   0.804  0.00  0.00    +0.295 HD
ENDBRANCH  30  31
ENDBRANCH  28  30
ENDBRANCH  27  28
ENDBRANCH  26  27
ENDBRANCH  11  26
TORSDOF 8
ENDMDL
MODEL 3
REMARK VINA RESULT:      -6.0      2.089      8.289
REMARK  Name = 195344
REMARK  8 active torsions:
REMARK  status: ('A' for Active; 'I' for Inactive)
REMARK    1  A    between atoms: C_7  and  C_22
REMARK    2  A    between atoms: C_11  and  S_26
REMARK    3  A    between atoms: C_22  and  C_23
REMARK    4  A    between atoms: C_23  and  O_24
REMARK    5  A    between atoms: S_26  and  C_27
REMARK    6  A    between atoms: C_27  and  C_28
REMARK    7  A    between atoms: C_28  and  C_30
REMARK    8  A    between atoms: C_30  and  O_31
REMARK                            x       y       z     vdW  Elec       q    Type
REMARK                         _______ _______ _______ _____ _____    ______ ____
ROOT
ATOM      1  O   UNL     1     -32.424  15.799  -0.130  0.00  0.00    -0.291 OA
ATOM      2  C   UNL     1     -37.363  21.581   0.887  0.00  0.00    +0.001 C 
ATOM      3  C   UNL     1     -36.967  22.663   1.914  0.00  0.00    +0.007 C 
ATOM      4  C   UNL     1     -36.155  20.958   0.170  0.00  0.00    +0.011 C 
ATOM      5  C   UNL     1     -35.203  20.315   1.234  0.00  0.00    +0.004 C 
ATOM      6  C   UNL     1     -33.916  19.659   0.593  0.00  0.00    +0.016 C 
ATOM      7  C   UNL     1     -38.376  23.098   2.375  0.00  0.00    +0.060 C 
ATOM      8  C   UNL     1     -36.119  21.984   2.997  0.00  0.00    +0.000 C 
ATOM      9  C   UNL     1     -34.880  21.298   2.398  0.00  0.00    +0.000 C 
ATOM     10  C   UNL     1     -38.441  22.267   0.053  0.00  0.00    +0.000 C 
ATOM     11  C   UNL     1     -36.537  19.956  -0.947  0.00  0.00    +0.052 C 
ATOM     12  C   UNL     1     -39.211  23.118   1.079  0.00  0.00    +0.007 C 
ATOM     13  C   UNL     1     -34.310  18.785  -0.603  0.00  0.00    -0.041 C 
ATOM     14  C   UNL     1     -35.271  19.392  -1.601  0.00  0.00    +0.033 C 
ATOM     15  C   UNL     1     -36.189  23.859   1.307  0.00  0.00    +0.000 C 
ATOM     16  C   UNL     1     -33.220  18.790   1.681  0.00  0.00    +0.012 C 
ATOM     17  C   UNL     1     -32.912  20.725   0.090  0.00  0.00    +0.004 C 
ATOM     18  C   UNL     1     -32.186  17.825   1.122  0.00  0.00    +0.069 C 
ATOM     19  C   UNL     1     -33.837  17.545  -0.817  0.00  0.00    +0.029 C 
ATOM     20  C   UNL     1     -32.804  16.951   0.063  0.00  0.00    +0.173 C 
ENDROOT
BRANCH   7  22
ATOM     21  O   UNL     1     -37.824  24.567   4.167  0.00  0.00    -0.293 OA
ATOM     22  C   UNL     1     -38.415  24.408   3.100  0.00  0.00    +0.180 C 
BRANCH  22  23
ATOM     23  C   UNL     1     -39.217  25.513   2.444  0.00  0.00    +0.202 C 
BRANCH  23  24
ATOM     24  O   UNL     1     -39.557  26.508   3.386  0.00  0.00    -0.375 OA
ATOM     25  H   UNL     1     -39.030  27.305   3.217  0.00  0.00    +0.211 HD
ENDBRANCH  23  24
ENDBRANCH  22  23
ENDBRANCH   7  22
BRANCH  11  26
ATOM     26  S   UNL     1     -37.619  18.573  -0.403  0.00  0.00    -0.140 S 
BRANCH  26  27
ATOM     27  C   UNL     1     -37.609  17.641  -1.947  0.00  0.00    +0.069 C 
BRANCH  27  28
ATOM     28  C   UNL     1     -37.032  16.243  -1.768  0.00  0.00    +0.121 C 
BRANCH  28  30
ATOM     29  O   UNL     1     -38.564  15.375  -0.114  0.00  0.00    -0.250 OA
ATOM     30  C   UNL     1     -37.413  15.635  -0.438  0.00  0.00    +0.315 C 
BRANCH  30  31
ATOM     31  O   UNL     1     -36.347  15.424   0.373  0.00  0.00    -0.480 OA
ATOM     32  H   UNL     1     -35.762  14.712   0.202  0.00  0.00    +0.295 HD
ENDBRANCH  30  31
ENDBRANCH  28  30
ENDBRANCH  27  28
ENDBRANCH  26  27
ENDBRANCH  11  26
TORSDOF 8
ENDMDL
MODEL 4
REMARK VINA RESULT:      -5.7      5.758      8.557
REMARK  Name = 195344
REMARK  8 active torsions:
REMARK  status: ('A' for Active; 'I' for Inactive)
REMARK    1  A    between atoms: C_7  and  C_22
REMARK    2  A    between atoms: C_11  and  S_26
REMARK    3  A    between atoms: C_22  and  C_23
REMARK    4  A    between atoms: C_23  and  O_24
REMARK    5  A    between atoms: S_26  and  C_27
REMARK    6  A    between atoms: C_27  and  C_28
REMARK    7  A    between atoms: C_28  and  C_30
REMARK    8  A    between atoms: C_30  and  O_31
REMARK                            x       y       z     vdW  Elec       q    Type
REMARK                         _______ _______ _______ _____ _____    ______ ____
ROOT
ATOM      1  O   UNL     1     -31.957  33.024  -0.826  0.00  0.00    -0.291 OA
ATOM      2  C   UNL     1     -33.815  27.466   4.127  0.00  0.00    +0.001 C 
ATOM      3  C   UNL     1     -34.787  26.378   3.621  0.00  0.00    +0.007 C 
ATOM      4  C   UNL     1     -32.911  28.031   3.020  0.00  0.00    +0.011 C 
ATOM      5  C   UNL     1     -33.805  28.643   1.889  0.00  0.00    +0.004 C 
ATOM      6  C   UNL     1     -32.963  29.237   0.691  0.00  0.00    +0.016 C 
ATOM      7  C   UNL     1     -35.466  26.008   4.958  0.00  0.00    +0.060 C 
ATOM      8  C   UNL     1     -35.715  27.032   2.589  0.00  0.00    +0.000 C 
ATOM      9  C   UNL     1     -34.921  27.659   1.431  0.00  0.00    +0.000 C 
ATOM     10  C   UNL     1     -33.168  26.819   5.348  0.00  0.00    +0.000 C 
ATOM     11  C   UNL     1     -31.850  29.037   3.529  0.00  0.00    +0.052 C 
ATOM     12  C   UNL     1     -34.314  26.011   5.984  0.00  0.00    +0.007 C 
ATOM     13  C   UNL     1     -31.828  30.116   1.230  0.00  0.00    -0.041 C 
ATOM     14  C   UNL     1     -31.000  29.540   2.357  0.00  0.00    +0.033 C 
ATOM     15  C   UNL     1     -34.086  25.145   2.995  0.00  0.00    +0.000 C 
ATOM     16  C   UNL     1     -33.917  30.087  -0.198  0.00  0.00    +0.012 C 
ATOM     17  C   UNL     1     -32.329  28.125  -0.179  0.00  0.00    +0.004 C 
ATOM     18  C   UNL     1     -33.189  31.002  -1.172  0.00  0.00    +0.069 C 
ATOM     19  C   UNL     1     -31.524  31.333   0.746  0.00  0.00    +0.029 C 
ATOM     20  C   UNL     1     -32.225  31.890  -0.434  0.00  0.00    +0.173 C 
ENDROOT
BRANCH   7  22
ATOM     21  O   UNL     1     -37.301  24.604   4.381  0.00  0.00    -0.293 OA
ATOM     22  C   UNL     1     -36.209  24.708   4.938  0.00  0.00    +0.180 C 
BRANCH  22  23
ATOM     23  C   UNL     1     -35.540  23.543   5.636  0.00  0.00    +0.202 C 
BRANCH  23  24
ATOM     24  O   UNL     1     -36.209  22.335   5.342  0.00  0.00    -0.375 OA
ATOM     25  H   UNL     1     -36.722  22.441   4.525  0.00  0.00    +0.211 HD
ENDBRANCH  23  24
ENDBRANCH  22  23
ENDBRANCH   7  22
BRANCH  11  26
ATOM     26  S   UNL     1     -32.532  30.470   4.457  0.00  0.00    -0.140 S 
BRANCH  26  27
ATOM     27  C   UNL     1     -31.765  30.109   6.049  0.00  0.00    +0.069 C 
BRANCH  27  28
ATOM     28  C   UNL     1     -30.248  30.024   5.946  0.00  0.00    +0.121 C 
BRANCH  28  30
ATOM     29  O   UNL     1     -29.771  27.670   6.217  0.00  0.00    -0.250 OA
ATOM     30  C   UNL     1     -29.696  28.811   6.657  0.00  0.00    +0.315 C 
BRANCH  30  31
ATOM     31  O   UNL     1     -29.122  29.110   7.849  0.00  0.00    -0.480 OA
ATOM     32  H   UNL     1     -29.512  29.754   8.407  0.00  0.00    +0.295 HD
ENDBRANCH  30  31
ENDBRANCH  28  30
ENDBRANCH  27  28
ENDBRANCH  26  27
ENDBRANCH  11  26
TORSDOF 8
ENDMDL
MODEL 5
REMARK VINA RESULT:      -5.7      1.805      6.739
REMARK  Name = 195344
REMARK  8 active torsions:
REMARK  status: ('A' for Active; 'I' for Inactive)
REMARK    1  A    between atoms: C_7  and  C_22
REMARK    2  A    between atoms: C_11  and  S_26
REMARK    3  A    between atoms: C_22  and  C_23
REMARK    4  A    between atoms: C_23  and  O_24
REMARK    5  A    between atoms: S_26  and  C_27
REMARK    6  A    between atoms: C_27  and  C_28
REMARK    7  A    between atoms: C_28  and  C_30
REMARK    8  A    between atoms: C_30  and  O_31
REMARK                            x       y       z     vdW  Elec       q    Type
REMARK                         _______ _______ _______ _____ _____    ______ ____
ROOT
ATOM      1  O   UNL     1     -32.397  19.223   0.075  0.00  0.00    -0.291 OA
ATOM      2  C   UNL     1     -37.911  24.209   1.977  0.00  0.00    +0.001 C 
ATOM      3  C   UNL     1     -39.037  24.430   0.944  0.00  0.00    +0.007 C 
ATOM      4  C   UNL     1     -37.341  22.782   1.953  0.00  0.00    +0.011 C 
ATOM      5  C   UNL     1     -36.778  22.478   0.524  0.00  0.00    +0.004 C 
ATOM      6  C   UNL     1     -36.182  21.020   0.394  0.00  0.00    +0.016 C 
ATOM      7  C   UNL     1     -39.401  25.893   1.280  0.00  0.00    +0.060 C 
ATOM      8  C   UNL     1     -38.431  24.224  -0.451  0.00  0.00    +0.000 C 
ATOM      9  C   UNL     1     -37.803  22.827  -0.594  0.00  0.00    +0.000 C 
ATOM     10  C   UNL     1     -38.515  24.740   3.274  0.00  0.00    +0.000 C 
ATOM     11  C   UNL     1     -36.294  22.507   3.060  0.00  0.00    +0.052 C 
ATOM     12  C   UNL     1     -39.344  25.955   2.820  0.00  0.00    +0.007 C 
ATOM     13  C   UNL     1     -35.259  20.720   1.581  0.00  0.00    -0.041 C 
ATOM     14  C   UNL     1     -35.789  21.063   2.956  0.00  0.00    +0.033 C 
ATOM     15  C   UNL     1     -40.261  23.497   1.132  0.00  0.00    +0.000 C 
ATOM     16  C   UNL     1     -35.378  20.941  -0.937  0.00  0.00    +0.012 C 
ATOM     17  C   UNL     1     -37.291  19.941   0.372  0.00  0.00    +0.004 C 
ATOM     18  C   UNL     1     -34.461  19.730  -1.025  0.00  0.00    +0.069 C 
ATOM     19  C   UNL     1     -34.044  20.158   1.466  0.00  0.00    +0.029 C 
ATOM     20  C   UNL     1     -33.530  19.692   0.157  0.00  0.00    +0.173 C 
ENDROOT
BRANCH   7  22
ATOM     21  O   UNL     1     -40.934  26.397  -0.472  0.00  0.00    -0.293 OA
ATOM     22  C   UNL     1     -40.723  26.344   0.739  0.00  0.00    +0.180 C 
BRANCH  22  23
ATOM     23  C   UNL     1     -41.772  26.724   1.763  0.00  0.00    +0.202 C 
BRANCH  23  24
ATOM     24  O   UNL     1     -41.902  28.127   1.846  0.00  0.00    -0.375 OA
ATOM     25  H   UNL     1     -42.598  28.349   2.484  0.00  0.00    +0.211 HD
ENDBRANCH  23  24
ENDBRANCH  22  23
ENDBRANCH   7  22
BRANCH  11  26
ATOM     26  S   UNL     1     -34.864  23.662   3.071  0.00  0.00    -0.140 S 
BRANCH  26  27
ATOM     27  C   UNL     1     -34.597  23.693   4.855  0.00  0.00    +0.069 C 
BRANCH  27  28
ATOM     28  C   UNL     1     -35.657  24.514   5.577  0.00  0.00    +0.121 C 
BRANCH  28  30
ATOM     29  O   UNL     1     -34.434  26.533   5.060  0.00  0.00    -0.250 OA
ATOM     30  C   UNL     1     -35.502  25.995   5.323  0.00  0.00    +0.315 C 
BRANCH  30  31
ATOM     31  O   UNL     1     -36.669  26.677   5.437  0.00  0.00    -0.480 OA
ATOM     32  H   UNL     1     -36.826  27.214   6.188  0.00  0.00    +0.295 HD
ENDBRANCH  30  31
ENDBRANCH  28  30
ENDBRANCH  27  28
ENDBRANCH  26  27
ENDBRANCH  11  26
TORSDOF 8
ENDMDL
MODEL 6
REMARK VINA RESULT:      -5.5      5.427      8.650
REMARK  Name = 195344
REMARK  8 active torsions:
REMARK  status: ('A' for Active; 'I' for Inactive)
REMARK    1  A    between atoms: C_7  and  C_22
REMARK    2  A    between atoms: C_11  and  S_26
REMARK    3  A    between atoms: C_22  and  C_23
REMARK    4  A    between atoms: C_23  and  O_24
REMARK    5  A    between atoms: S_26  and  C_27
REMARK    6  A    between atoms: C_27  and  C_28
REMARK    7  A    between atoms: C_28  and  C_30
REMARK    8  A    between atoms: C_30  and  O_31
REMARK                            x       y       z     vdW  Elec       q    Type
REMARK                         _______ _______ _______ _____ _____    ______ ____
ROOT
ATOM      1  O   UNL     1     -30.064  32.246   0.003  0.00  0.00    -0.291 OA
ATOM      2  C   UNL     1     -33.964  27.013   4.037  0.00  0.00    +0.001 C 
ATOM      3  C   UNL     1     -35.047  26.215   3.280  0.00  0.00    +0.007 C 
ATOM      4  C   UNL     1     -32.774  27.410   3.148  0.00  0.00    +0.011 C 
ATOM      5  C   UNL     1     -33.294  28.278   1.954  0.00  0.00    +0.004 C 
ATOM      6  C   UNL     1     -32.141  28.724   0.969  0.00  0.00    +0.016 C 
ATOM      7  C   UNL     1     -36.019  25.940   4.450  0.00  0.00    +0.060 C 
ATOM      8  C   UNL     1     -35.608  27.126   2.180  0.00  0.00    +0.000 C 
ATOM      9  C   UNL     1     -34.501  27.613   1.230  0.00  0.00    +0.000 C 
ATOM     10  C   UNL     1     -33.705  26.163   5.278  0.00  0.00    +0.000 C 
ATOM     11  C   UNL     1     -31.624  28.107   3.915  0.00  0.00    +0.052 C 
ATOM     12  C   UNL     1     -35.097  25.613   5.641  0.00  0.00    +0.007 C 
ATOM     13  C   UNL     1     -30.954  29.278   1.765  0.00  0.00    -0.041 C 
ATOM     14  C   UNL     1     -30.489  28.461   2.948  0.00  0.00    +0.033 C 
ATOM     15  C   UNL     1     -34.539  24.888   2.658  0.00  0.00    +0.000 C 
ATOM     16  C   UNL     1     -32.708  29.824   0.024  0.00  0.00    +0.012 C 
ATOM     17  C   UNL     1     -31.626  27.545   0.109  0.00  0.00    +0.004 C 
ATOM     18  C   UNL     1     -31.634  30.595  -0.728  0.00  0.00    +0.069 C 
ATOM     19  C   UNL     1     -30.306  30.415   1.455  0.00  0.00    +0.029 C 
ATOM     20  C   UNL     1     -30.643  31.187   0.237  0.00  0.00    +0.173 C 
ENDROOT
BRANCH   7  22
ATOM     21  O   UNL     1     -36.870  23.725   4.649  0.00  0.00    -0.293 OA
ATOM     22  C   UNL     1     -37.016  24.855   4.185  0.00  0.00    +0.180 C 
BRANCH  22  23
ATOM     23  C   UNL     1     -38.203  25.231   3.324  0.00  0.00    +0.202 C 
BRANCH  23  24
ATOM     24  O   UNL     1     -39.414  24.905   3.973  0.00  0.00    -0.375 OA
ATOM     25  H   UNL     1     -39.734  24.050   3.647  0.00  0.00    +0.211 HD
ENDBRANCH  23  24
ENDBRANCH  22  23
ENDBRANCH   7  22
BRANCH  11  26
ATOM     26  S   UNL     1     -32.124  29.605   4.855  0.00  0.00    -0.140 S 
BRANCH  26  27
ATOM     27  C   UNL     1     -31.530  29.079   6.475  0.00  0.00    +0.069 C 
BRANCH  27  28
ATOM     28  C   UNL     1     -30.116  29.572   6.753  0.00  0.00    +0.121 C 
BRANCH  28  30
ATOM     29  O   UNL     1     -27.934  28.653   6.267  0.00  0.00    -0.250 OA
ATOM     30  C   UNL     1     -29.092  28.469   6.622  0.00  0.00    +0.315 C 
BRANCH  30  31
ATOM     31  O   UNL     1     -29.591  27.244   6.918  0.00  0.00    -0.480 OA
ATOM     32  H   UNL     1     -30.145  27.133   7.665  0.00  0.00    +0.295 HD
ENDBRANCH  30  31
ENDBRANCH  28  30
ENDBRANCH  27  28
ENDBRANCH  26  27
ENDBRANCH  11  26
TORSDOF 8
ENDMDL
MODEL 7
REMARK VINA RESULT:      -5.4     10.558     14.516
REMARK  Name = 195344
REMARK  8 active torsions:
REMARK  status: ('A' for Active; 'I' for Inactive)
REMARK    1  A    between atoms: C_7  and  C_22
REMARK    2  A    between atoms: C_11  and  S_26
REMARK    3  A    between atoms: C_22  and  C_23
REMARK    4  A    between atoms: C_23  and  O_24
REMARK    5  A    between atoms: S_26  and  C_27
REMARK    6  A    between atoms: C_27  and  C_28
REMARK    7  A    between atoms: C_28  and  C_30
REMARK    8  A    between atoms: C_30  and  O_31
REMARK                            x       y       z     vdW  Elec       q    Type
REMARK                         _______ _______ _______ _____ _____    ______ ____
ROOT
ATOM      1  O   UNL     1     -30.113  37.997   0.241  0.00  0.00    -0.291 OA
ATOM      2  C   UNL     1     -36.720  34.195   1.116  0.00  0.00    +0.001 C 
ATOM      3  C   UNL     1     -38.020  35.014   0.965  0.00  0.00    +0.007 C 
ATOM      4  C   UNL     1     -35.574  34.711   0.230  0.00  0.00    +0.011 C 
ATOM      5  C   UNL     1     -35.274  36.203   0.597  0.00  0.00    +0.004 C 
ATOM      6  C   UNL     1     -34.116  36.831  -0.276  0.00  0.00    +0.016 C 
ATOM      7  C   UNL     1     -38.935  34.207   1.913  0.00  0.00    +0.060 C 
ATOM      8  C   UNL     1     -37.721  36.446   1.427  0.00  0.00    +0.000 C 
ATOM      9  C   UNL     1     -36.567  37.069   0.624  0.00  0.00    +0.000 C 
ATOM     10  C   UNL     1     -37.190  32.754   0.946  0.00  0.00    +0.000 C 
ATOM     11  C   UNL     1     -34.300  33.833   0.279  0.00  0.00    +0.052 C 
ATOM     12  C   UNL     1     -38.567  32.735   1.635  0.00  0.00    +0.007 C 
ATOM     13  C   UNL     1     -32.919  35.876  -0.330  0.00  0.00    -0.041 C 
ATOM     14  C   UNL     1     -33.221  34.425  -0.635  0.00  0.00    +0.033 C 
ATOM     15  C   UNL     1     -38.593  35.032  -0.476  0.00  0.00    +0.000 C 
ATOM     16  C   UNL     1     -33.692  38.179   0.378  0.00  0.00    +0.012 C 
ATOM     17  C   UNL     1     -34.570  37.104  -1.730  0.00  0.00    +0.004 C 
ATOM     18  C   UNL     1     -32.365  38.715  -0.137  0.00  0.00    +0.069 C 
ATOM     19  C   UNL     1     -31.643  36.257  -0.148  0.00  0.00    +0.029 C 
ATOM     20  C   UNL     1     -31.283  37.683   0.032  0.00  0.00    +0.173 C 
ENDROOT
BRANCH   7  22
ATOM     21  O   UNL     1     -41.132  33.662   1.173  0.00  0.00    -0.293 OA
ATOM     22  C   UNL     1     -40.398  34.472   1.737  0.00  0.00    +0.180 C 
BRANCH  22  23
ATOM     23  C   UNL     1     -40.913  35.784   2.292  0.00  0.00    +0.202 C 
BRANCH  23  24
ATOM     24  O   UNL     1     -41.335  35.628   3.630  0.00  0.00    -0.375 OA
ATOM     25  H   UNL     1     -41.530  34.693   3.800  0.00  0.00    +0.211 HD
ENDBRANCH  23  24
ENDBRANCH  22  23
ENDBRANCH   7  22
BRANCH  11  26
ATOM     26  S   UNL     1     -33.609  33.573   1.962  0.00  0.00    -0.140 S 
BRANCH  26  27
ATOM     27  C   UNL     1     -33.064  31.869   1.735  0.00  0.00    +0.069 C 
BRANCH  27  28
ATOM     28  C   UNL     1     -34.223  30.884   1.798  0.00  0.00    +0.121 C 
BRANCH  28  30
ATOM     29  O   UNL     1     -33.667  29.559   3.741  0.00  0.00    -0.250 OA
ATOM     30  C   UNL     1     -34.434  30.341   3.192  0.00  0.00    +0.315 C 
BRANCH  30  31
ATOM     31  O   UNL     1     -35.574  30.792   3.770  0.00  0.00    -0.480 OA
ATOM     32  H   UNL     1     -36.245  30.187   4.017  0.00  0.00    +0.295 HD
ENDBRANCH  30  31
ENDBRANCH  28  30
ENDBRANCH  27  28
ENDBRANCH  26  27
ENDBRANCH  11  26
TORSDOF 8
ENDMDL
MODEL 8
REMARK VINA RESULT:      -5.4      1.754      2.380
REMARK  Name = 195344
REMARK  8 active torsions:
REMARK  status: ('A' for Active; 'I' for Inactive)
REMARK    1  A    between atoms: C_7  and  C_22
REMARK    2  A    between atoms: C_11  and  S_26
REMARK    3  A    between atoms: C_22  and  C_23
REMARK    4  A    between atoms: C_23  and  O_24
REMARK    5  A    between atoms: S_26  and  C_27
REMARK    6  A    between atoms: C_27  and  C_28
REMARK    7  A    between atoms: C_28  and  C_30
REMARK    8  A    between atoms: C_30  and  O_31
REMARK                            x       y       z     vdW  Elec       q    Type
REMARK                         _______ _______ _______ _____ _____    ______ ____
ROOT
ATOM      1  O   UNL     1     -41.052  23.452   0.982  0.00  0.00    -0.291 OA
ATOM      2  C   UNL     1     -34.367  19.702   0.632  0.00  0.00    +0.001 C 
ATOM      3  C   UNL     1     -34.360  18.362  -0.134  0.00  0.00    +0.007 C 
ATOM      4  C   UNL     1     -35.368  20.719   0.060  0.00  0.00    +0.011 C 
ATOM      5  C   UNL     1     -36.808  20.105   0.109  0.00  0.00    +0.004 C 
ATOM      6  C   UNL     1     -37.911  21.074  -0.477  0.00  0.00    +0.016 C 
ATOM      7  C   UNL     1     -33.239  17.636   0.643  0.00  0.00    +0.060 C 
ATOM      8  C   UNL     1     -35.752  17.736   0.015  0.00  0.00    +0.000 C 
ATOM      9  C   UNL     1     -36.853  18.675  -0.506  0.00  0.00    +0.000 C 
ATOM     10  C   UNL     1     -32.890  20.078   0.696  0.00  0.00    +0.000 C 
ATOM     11  C   UNL     1     -35.307  22.109   0.740  0.00  0.00    +0.052 C 
ATOM     12  C   UNL     1     -32.177  18.727   0.887  0.00  0.00    +0.007 C 
ATOM     13  C   UNL     1     -37.737  22.482   0.105  0.00  0.00    -0.041 C 
ATOM     14  C   UNL     1     -36.335  23.049   0.102  0.00  0.00    +0.033 C 
ATOM     15  C   UNL     1     -33.998  18.493  -1.636  0.00  0.00    +0.000 C 
ATOM     16  C   UNL     1     -39.309  20.507  -0.091  0.00  0.00    +0.012 C 
ATOM     17  C   UNL     1     -37.826  21.184  -2.018  0.00  0.00    +0.004 C 
ATOM     18  C   UNL     1     -40.442  21.506  -0.271  0.00  0.00    +0.069 C 
ATOM     19  C   UNL     1     -38.748  23.228   0.583  0.00  0.00    +0.029 C 
ATOM     20  C   UNL     1     -40.153  22.768   0.496  0.00  0.00    +0.173 C 
ENDROOT
BRANCH   7  22
ATOM     21  O   UNL     1     -33.370  15.450  -0.293  0.00  0.00    -0.293 OA
ATOM     22  C   UNL     1     -32.675  16.437  -0.056  0.00  0.00    +0.180 C 
BRANCH  22  23
ATOM     23  C   UNL     1     -31.215  16.514  -0.448  0.00  0.00    +0.202 C 
BRANCH  23  24
ATOM     24  O   UNL     1     -30.433  15.676   0.375  0.00  0.00    -0.375 OA
ATOM     25  H   UNL     1     -29.712  16.192   0.770  0.00  0.00    +0.211 HD
ENDBRANCH  23  24
ENDBRANCH  22  23
ENDBRANCH   7  22
BRANCH  11  26
ATOM     26  S   UNL     1     -35.540  22.084   2.563  0.00  0.00    -0.140 S 
BRANCH  26  27
ATOM     27  C   UNL     1     -35.162  23.820   2.875  0.00  0.00    +0.069 C 
BRANCH  27  28
ATOM     28  C   UNL     1     -36.382  24.592   3.362  0.00  0.00    +0.121 C 
BRANCH  28  30
ATOM     29  O   UNL     1     -36.047  23.987   5.677  0.00  0.00    -0.250 OA
ATOM     30  C   UNL     1     -36.341  24.842   4.851  0.00  0.00    +0.315 C 
BRANCH  30  31
ATOM     31  O   UNL     1     -36.683  26.111   5.185  0.00  0.00    -0.480 OA
ATOM     32  H   UNL     1     -37.360  26.262   5.814  0.00  0.00    +0.295 HD
ENDBRANCH  30  31
ENDBRANCH  28  30
ENDBRANCH  27  28
ENDBRANCH  26  27
ENDBRANCH  11  26
TORSDOF 8
ENDMDL
MODEL 9
REMARK VINA RESULT:      -5.3      2.061      2.904
REMARK  Name = 195344
REMARK  8 active torsions:
REMARK  status: ('A' for Active; 'I' for Inactive)
REMARK    1  A    between atoms: C_7  and  C_22
REMARK    2  A    between atoms: C_11  and  S_26
REMARK    3  A    between atoms: C_22  and  C_23
REMARK    4  A    between atoms: C_23  and  O_24
REMARK    5  A    between atoms: S_26  and  C_27
REMARK    6  A    between atoms: C_27  and  C_28
REMARK    7  A    between atoms: C_28  and  C_30
REMARK    8  A    between atoms: C_30  and  O_31
REMARK                            x       y       z     vdW  Elec       q    Type
REMARK                         _______ _______ _______ _____ _____    ______ ____
ROOT
ATOM      1  O   UNL     1     -40.750  22.716   0.878  0.00  0.00    -0.291 OA
ATOM      2  C   UNL     1     -34.020  19.045   0.557  0.00  0.00    +0.001 C 
ATOM      3  C   UNL     1     -33.955  17.788  -0.336  0.00  0.00    +0.007 C 
ATOM      4  C   UNL     1     -34.996  20.110   0.030  0.00  0.00    +0.011 C 
ATOM      5  C   UNL     1     -36.429  19.488  -0.068  0.00  0.00    +0.004 C 
ATOM      6  C   UNL     1     -37.505  20.507  -0.620  0.00  0.00    +0.016 C 
ATOM      7  C   UNL     1     -32.874  16.993   0.431  0.00  0.00    +0.060 C 
ATOM      8  C   UNL     1     -35.347  17.145  -0.333  0.00  0.00    +0.000 C 
ATOM      9  C   UNL     1     -36.425  18.127  -0.823  0.00  0.00    +0.000 C 
ATOM     10  C   UNL     1     -32.553  19.419   0.746  0.00  0.00    +0.000 C 
ATOM     11  C   UNL     1     -34.988  21.426   0.847  0.00  0.00    +0.052 C 
ATOM     12  C   UNL     1     -31.839  18.059   0.844  0.00  0.00    +0.007 C 
ATOM     13  C   UNL     1     -37.380  21.850   0.108  0.00  0.00    -0.041 C 
ATOM     14  C   UNL     1     -35.986  22.421   0.245  0.00  0.00    +0.033 C 
ATOM     15  C   UNL     1     -33.506  18.069  -1.794  0.00  0.00    +0.000 C 
ATOM     16  C   UNL     1     -38.918  19.899  -0.375  0.00  0.00    +0.012 C 
ATOM     17  C   UNL     1     -37.331  20.770  -2.134  0.00  0.00    +0.004 C 
ATOM     18  C   UNL     1     -40.049  20.906  -0.523  0.00  0.00    +0.069 C 
ATOM     19  C   UNL     1     -38.425  22.542   0.596  0.00  0.00    +0.029 C 
ATOM     20  C   UNL     1     -39.818  22.087   0.381  0.00  0.00    +0.173 C 
ENDROOT
BRANCH   7  22
ATOM     21  O   UNL     1     -32.949  14.974  -0.831  0.00  0.00    -0.293 OA
ATOM     22  C   UNL     1     -32.259  15.871  -0.349  0.00  0.00    +0.180 C 
BRANCH  22  23
ATOM     23  C   UNL     1     -30.753  15.911  -0.506  0.00  0.00    +0.202 C 
BRANCH  23  24
ATOM     24  O   UNL     1     -30.136  15.006   0.385  0.00  0.00    -0.375 OA
ATOM     25  H   UNL     1     -29.868  14.210  -0.100  0.00  0.00    +0.211 HD
ENDBRANCH  23  24
ENDBRANCH  22  23
ENDBRANCH   7  22
BRANCH  11  26
ATOM     26  S   UNL     1     -35.327  21.219   2.641  0.00  0.00    -0.140 S 
BRANCH  26  27
ATOM     27  C   UNL     1     -35.227  22.959   3.104  0.00  0.00    +0.069 C 
BRANCH  27  28
ATOM     28  C   UNL     1     -36.247  23.327   4.174  0.00  0.00    +0.121 C 
BRANCH  28  30
ATOM     29  O   UNL     1     -34.889  24.357   5.887  0.00  0.00    -0.250 OA
ATOM     30  C   UNL     1     -35.621  23.437   5.544  0.00  0.00    +0.315 C 
BRANCH  30  31
ATOM     31  O   UNL     1     -35.937  22.398   6.356  0.00  0.00    -0.480 OA
ATOM     32  H   UNL     1     -36.645  21.827   6.132  0.00  0.00    +0.295 HD
ENDBRANCH  30  31
ENDBRANCH  28  30
ENDBRANCH  27  28
ENDBRANCH  26  27
ENDBRANCH  11  26
TORSDOF 8
ENDMDL
