MODEL 1
REMARK VINA RESULT:      -6.8      0.000      0.000
REMARK  Name = 20345
REMARK  7 active torsions:
REMARK  status: ('A' for Active; 'I' for Inactive)
REMARK    1  A    between atoms: N_1  and  C1*_12
REMARK    2  A    between atoms: C2*_11  and  O2*_15
REMARK    3  A    between atoms: C3*_13  and  O3*_17
REMARK    4  A    between atoms: C4*_14  and  C5*_19
REMARK    5  A    between atoms: C5*_19  and  O5*_20
REMARK    6  A    between atoms: N_22  and  C_24
REMARK    7  A    between atoms: C_24  and  C_26
REMARK                            x       y       z     vdW  Elec       q    Type
REMARK                         _______ _______ _______ _____ _____    ______ ____
ROOT
ATOM      1  N   UNL     1     -34.784  26.095   4.387  0.00  0.00    -0.247 N 
ATOM      2  N   UNL     1     -33.491  27.120   2.884  0.00  0.00    -0.242 NA
ATOM      3  N   UNL     1     -33.579  26.659   6.421  0.00  0.00    -0.228 NA
ATOM      4  N   UNL     1     -31.609  28.016   5.939  0.00  0.00    -0.228 NA
ATOM      5  C   UNL     1     -33.771  26.684   5.094  0.00  0.00    +0.152 C 
ATOM      6  C   UNL     1     -34.570  26.387   3.064  0.00  0.00    +0.223 C 
ATOM      7  C   UNL     1     -32.982  27.314   4.144  0.00  0.00    +0.140 C 
ATOM      8  C   UNL     1     -31.865  27.998   4.609  0.00  0.00    +0.146 C 
ATOM      9  C   UNL     1     -32.470  27.355   6.750  0.00  0.00    +0.253 C 
ATOM     10  N   UNL     1     -31.010  28.668   3.716  0.00  0.00    -0.311 N 
ATOM     11  H   UNL     1     -31.220  28.640   2.755  0.00  0.00    +0.149 HD
ENDROOT
BRANCH   1  14
ATOM     12  O4* UNL     1     -35.370  24.320   5.849  0.00  0.00    -0.333 OA
ATOM     13  C2* UNL     1     -36.692  24.560   3.860  0.00  0.00    +0.187 C 
ATOM     14  C1* UNL     1     -35.889  25.304   4.929  0.00  0.00    +0.225 C 
ATOM     15  C3* UNL     1     -36.194  23.134   3.997  0.00  0.00    +0.171 C 
ATOM     16  C4* UNL     1     -35.900  23.035   5.484  0.00  0.00    +0.175 C 
BRANCH  13  17
ATOM     17  O2* UNL     1     -38.082  24.652   4.167  0.00  0.00    -0.378 OA
ATOM     18  H2* UNL     1     -38.280  25.541   4.502  0.00  0.00    +0.211 HD
ENDBRANCH  13  17
BRANCH  15  19
ATOM     19  O3* UNL     1     -37.131  22.167   3.575  0.00  0.00    -0.379 OA
ATOM     20  H3* UNL     1     -37.975  22.313   4.030  0.00  0.00    +0.211 HD
ENDBRANCH  15  19
BRANCH  16  21
ATOM     21  C5* UNL     1     -34.898  21.949   5.832  0.00  0.00    +0.169 C 
BRANCH  21  22
ATOM     22  O5* UNL     1     -35.565  20.699   5.831  0.00  0.00    -0.379 OA
ATOM     23  H5* UNL     1     -35.392  20.241   4.994  0.00  0.00    +0.211 HD
ENDBRANCH  21  22
ENDBRANCH  16  21
ENDBRANCH   1  14
BRANCH  10  24
ATOM     24  C   UNL     1     -29.846  29.389   4.139  0.00  0.00    +0.154 C 
BRANCH  24  26
ATOM     25  O   UNL     1     -28.616  27.337   3.914  0.00  0.00    -0.453 OA
ATOM     26  C   UNL     1     -28.698  28.511   4.560  0.00  0.00    +0.143 C 
ATOM     27  C   UNL     1     -27.719  28.681   5.475  0.00  0.00    +0.038 C 
ATOM     28  C   UNL     1     -26.941  27.500   5.403  0.00  0.00    +0.043 C 
ATOM     29  C   UNL     1     -27.528  26.715   4.439  0.00  0.00    +0.179 C 
ENDBRANCH  24  26
ENDBRANCH  10  24
TORSDOF 7
ENDMDL
MODEL 2
REMARK VINA RESULT:      -6.7      1.525      2.384
REMARK  Name = 20345
REMARK  7 active torsions:
REMARK  status: ('A' for Active; 'I' for Inactive)
REMARK    1  A    between atoms: N_1  and  C1*_12
REMARK    2  A    between atoms: C2*_11  and  O2*_15
REMARK    3  A    between atoms: C3*_13  and  O3*_17
REMARK    4  A    between atoms: C4*_14  and  C5*_19
REMARK    5  A    between atoms: C5*_19  and  O5*_20
REMARK    6  A    between atoms: N_22  and  C_24
REMARK    7  A    between atoms: C_24  and  C_26
REMARK                            x       y       z     vdW  Elec       q    Type
REMARK                         _______ _______ _______ _____ _____    ______ ____
ROOT
ATOM      1  N   UNL     1     -34.825  26.168   4.396  0.00  0.00    -0.247 N 
ATOM      2  N   UNL     1     -33.603  27.244   2.870  0.00  0.00    -0.242 NA
ATOM      3  N   UNL     1     -33.550  26.699   6.396  0.00  0.00    -0.228 NA
ATOM      4  N   UNL     1     -31.615  28.091   5.872  0.00  0.00    -0.228 NA
ATOM      5  C   UNL     1     -33.793  26.753   5.078  0.00  0.00    +0.152 C 
ATOM      6  C   UNL     1     -34.666  26.493   3.073  0.00  0.00    +0.223 C 
ATOM      7  C   UNL     1     -33.049  27.414   4.114  0.00  0.00    +0.140 C 
ATOM      8  C   UNL     1     -31.922  28.102   4.552  0.00  0.00    +0.146 C 
ATOM      9  C   UNL     1     -32.437  27.400   6.699  0.00  0.00    +0.253 C 
ATOM     10  N   UNL     1     -31.109  28.803   3.644  0.00  0.00    -0.311 N 
ATOM     11  H   UNL     1     -31.356  28.794   2.691  0.00  0.00    +0.149 HD
ENDROOT
BRANCH   1  14
ATOM     12  O4* UNL     1     -35.336  24.359   5.844  0.00  0.00    -0.333 OA
ATOM     13  C2* UNL     1     -36.728  24.613   3.905  0.00  0.00    +0.187 C 
ATOM     14  C1* UNL     1     -35.900  25.351   4.960  0.00  0.00    +0.225 C 
ATOM     15  C3* UNL     1     -36.204  23.193   4.000  0.00  0.00    +0.171 C 
ATOM     16  C4* UNL     1     -35.859  23.072   5.474  0.00  0.00    +0.175 C 
BRANCH  13  17
ATOM     17  O2* UNL     1     -38.107  24.680   4.261  0.00  0.00    -0.378 OA
ATOM     18  H2* UNL     1     -38.341  25.596   4.479  0.00  0.00    +0.211 HD
ENDBRANCH  13  17
BRANCH  15  19
ATOM     19  O3* UNL     1     -37.142  22.220   3.592  0.00  0.00    -0.379 OA
ATOM     20  H3* UNL     1     -38.021  22.625   3.524  0.00  0.00    +0.211 HD
ENDBRANCH  15  19
BRANCH  16  21
ATOM     21  C5* UNL     1     -34.831  21.996   5.769  0.00  0.00    +0.169 C 
BRANCH  21  22
ATOM     22  O5* UNL     1     -35.480  20.737   5.774  0.00  0.00    -0.379 OA
ATOM     23  H5* UNL     1     -36.102  20.691   5.031  0.00  0.00    +0.211 HD
ENDBRANCH  21  22
ENDBRANCH  16  21
ENDBRANCH   1  14
BRANCH  10  24
ATOM     24  C   UNL     1     -29.938  29.527   4.040  0.00  0.00    +0.154 C 
BRANCH  24  26
ATOM     25  O   UNL     1     -28.844  31.624   3.617  0.00  0.00    -0.453 OA
ATOM     26  C   UNL     1     -30.024  31.012   3.807  0.00  0.00    +0.143 C 
ATOM     27  C   UNL     1     -31.074  31.858   3.748  0.00  0.00    +0.038 C 
ATOM     28  C   UNL     1     -30.507  33.131   3.499  0.00  0.00    +0.043 C 
ATOM     29  C   UNL     1     -29.148  32.935   3.429  0.00  0.00    +0.179 C 
ENDBRANCH  24  26
ENDBRANCH  10  24
TORSDOF 7
ENDMDL
MODEL 3
REMARK VINA RESULT:      -6.5      5.000      7.764
REMARK  Name = 20345
REMARK  7 active torsions:
REMARK  status: ('A' for Active; 'I' for Inactive)
REMARK    1  A    between atoms: N_1  and  C1*_12
REMARK    2  A    between atoms: C2*_11  and  O2*_15
REMARK    3  A    between atoms: C3*_13  and  O3*_17
REMARK    4  A    between atoms: C4*_14  and  C5*_19
REMARK    5  A    between atoms: C5*_19  and  O5*_20
REMARK    6  A    between atoms: N_22  and  C_24
REMARK    7  A    between atoms: C_24  and  C_26
REMARK                            x       y       z     vdW  Elec       q    Type
REMARK                         _______ _______ _______ _____ _____    ______ ____
ROOT
ATOM      1  N   UNL     1     -36.123  22.809   2.785  0.00  0.00    -0.247 N 
ATOM      2  N   UNL     1     -35.194  20.941   3.578  0.00  0.00    -0.242 NA
ATOM      3  N   UNL     1     -35.699  22.506   0.411  0.00  0.00    -0.228 NA
ATOM      4  N   UNL     1     -34.516  20.415  -0.020  0.00  0.00    -0.228 NA
ATOM      5  C   UNL     1     -35.638  22.133   1.699  0.00  0.00    +0.152 C 
ATOM      6  C   UNL     1     -35.831  22.050   3.890  0.00  0.00    +0.223 C 
ATOM      7  C   UNL     1     -35.067  20.980   2.212  0.00  0.00    +0.140 C 
ATOM      8  C   UNL     1     -34.491  20.104   1.298  0.00  0.00    +0.146 C 
ATOM      9  C   UNL     1     -35.110  21.580  -0.376  0.00  0.00    +0.253 C 
ATOM     10  N   UNL     1     -33.891  18.907   1.730  0.00  0.00    -0.311 N 
ATOM     11  H   UNL     1     -33.888  18.706   2.693  0.00  0.00    +0.149 HD
ENDROOT
BRANCH   1  14
ATOM     12  O4* UNL     1     -35.976  25.099   2.184  0.00  0.00    -0.333 OA
ATOM     13  C2* UNL     1     -37.209  24.586   4.178  0.00  0.00    +0.187 C 
ATOM     14  C1* UNL     1     -36.822  24.094   2.781  0.00  0.00    +0.225 C 
ATOM     15  C3* UNL     1     -36.172  25.657   4.456  0.00  0.00    +0.171 C 
ATOM     16  C4* UNL     1     -35.915  26.228   3.072  0.00  0.00    +0.175 C 
BRANCH  13  17
ATOM     17  O2* UNL     1     -38.523  25.139   4.133  0.00  0.00    -0.378 OA
ATOM     18  H2* UNL     1     -39.042  24.798   4.878  0.00  0.00    +0.211 HD
ENDBRANCH  13  17
BRANCH  15  19
ATOM     19  O3* UNL     1     -36.613  26.643   5.364  0.00  0.00    -0.379 OA
ATOM     20  H3* UNL     1     -36.862  26.224   6.203  0.00  0.00    +0.211 HD
ENDBRANCH  15  19
BRANCH  16  21
ATOM     21  C5* UNL     1     -34.568  26.913   2.940  0.00  0.00    +0.169 C 
BRANCH  21  22
ATOM     22  O5* UNL     1     -34.570  28.077   3.749  0.00  0.00    -0.379 OA
ATOM     23  H5* UNL     1     -34.987  27.877   4.602  0.00  0.00    +0.211 HD
ENDBRANCH  21  22
ENDBRANCH  16  21
ENDBRANCH   1  14
BRANCH  10  24
ATOM     24  C   UNL     1     -33.283  17.969   0.834  0.00  0.00    +0.154 C 
BRANCH  24  26
ATOM     25  O   UNL     1     -31.037  17.193   1.185  0.00  0.00    -0.453 OA
ATOM     26  C   UNL     1     -31.801  18.161   0.653  0.00  0.00    +0.143 C 
ATOM     27  C   UNL     1     -31.082  19.131   0.050  0.00  0.00    +0.038 C 
ATOM     28  C   UNL     1     -29.730  18.743   0.215  0.00  0.00    +0.043 C 
ATOM     29  C   UNL     1     -29.756  17.558   0.912  0.00  0.00    +0.179 C 
ENDBRANCH  24  26
ENDBRANCH  10  24
TORSDOF 7
ENDMDL
MODEL 4
REMARK VINA RESULT:      -6.4      5.332      7.589
REMARK  Name = 20345
REMARK  7 active torsions:
REMARK  status: ('A' for Active; 'I' for Inactive)
REMARK    1  A    between atoms: N_1  and  C1*_12
REMARK    2  A    between atoms: C2*_11  and  O2*_15
REMARK    3  A    between atoms: C3*_13  and  O3*_17
REMARK    4  A    between atoms: C4*_14  and  C5*_19
REMARK    5  A    between atoms: C5*_19  and  O5*_20
REMARK    6  A    between atoms: N_22  and  C_24
REMARK    7  A    between atoms: C_24  and  C_26
REMARK                            x       y       z     vdW  Elec       q    Type
REMARK                         _______ _______ _______ _____ _____    ______ ____
ROOT
ATOM      1  N   UNL     1     -36.297  23.214   4.116  0.00  0.00    -0.247 N 
ATOM      2  N   UNL     1     -35.202  21.295   4.430  0.00  0.00    -0.242 NA
ATOM      3  N   UNL     1     -36.445  23.214   1.690  0.00  0.00    -0.228 NA
ATOM      4  N   UNL     1     -35.392  21.230   0.736  0.00  0.00    -0.228 NA
ATOM      5  C   UNL     1     -36.081  22.691   2.871  0.00  0.00    +0.152 C 
ATOM      6  C   UNL     1     -35.751  22.337   5.018  0.00  0.00    +0.223 C 
ATOM      7  C   UNL     1     -35.402  21.503   3.087  0.00  0.00    +0.140 C 
ATOM      8  C   UNL     1     -35.055  20.763   1.962  0.00  0.00    +0.146 C 
ATOM      9  C   UNL     1     -36.057  22.410   0.678  0.00  0.00    +0.253 C 
ATOM     10  N   UNL     1     -34.367  19.543   2.088  0.00  0.00    -0.311 N 
ATOM     11  H   UNL     1     -34.136  19.226   2.991  0.00  0.00    +0.149 HD
ENDROOT
BRANCH   1  14
ATOM     12  O4* UNL     1     -38.232  24.530   3.721  0.00  0.00    -0.333 OA
ATOM     13  C2* UNL     1     -36.175  25.716   4.071  0.00  0.00    +0.187 C 
ATOM     14  C1* UNL     1     -36.981  24.468   4.437  0.00  0.00    +0.225 C 
ATOM     15  C3* UNL     1     -36.853  26.192   2.800  0.00  0.00    +0.171 C 
ATOM     16  C4* UNL     1     -38.299  25.790   3.033  0.00  0.00    +0.175 C 
BRANCH  13  17
ATOM     17  O2* UNL     1     -36.302  26.679   5.115  0.00  0.00    -0.378 OA
ATOM     18  H2* UNL     1     -35.470  26.729   5.611  0.00  0.00    +0.211 HD
ENDBRANCH  13  17
BRANCH  15  19
ATOM     19  O3* UNL     1     -36.716  27.578   2.576  0.00  0.00    -0.379 OA
ATOM     20  H3* UNL     1     -36.331  27.729   1.698  0.00  0.00    +0.211 HD
ENDBRANCH  15  19
BRANCH  16  21
ATOM     21  C5* UNL     1     -39.098  25.635   1.753  0.00  0.00    +0.169 C 
BRANCH  21  22
ATOM     22  O5* UNL     1     -39.447  26.923   1.277  0.00  0.00    -0.379 OA
ATOM     23  H5* UNL     1     -38.640  27.419   1.067  0.00  0.00    +0.211 HD
ENDBRANCH  21  22
ENDBRANCH  16  21
ENDBRANCH   1  14
BRANCH  10  24
ATOM     24  C   UNL     1     -33.986  18.740   0.964  0.00  0.00    +0.154 C 
BRANCH  24  26
ATOM     25  O   UNL     1     -31.889  17.593   1.210  0.00  0.00    -0.453 OA
ATOM     26  C   UNL     1     -32.501  18.684   0.722  0.00  0.00    +0.143 C 
ATOM     27  C   UNL     1     -31.654  19.532   0.100  0.00  0.00    +0.038 C 
ATOM     28  C   UNL     1     -30.382  18.920   0.202  0.00  0.00    +0.043 C 
ATOM     29  C   UNL     1     -30.578  17.743   0.886  0.00  0.00    +0.179 C 
ENDBRANCH  24  26
ENDBRANCH  10  24
TORSDOF 7
ENDMDL
MODEL 5
REMARK VINA RESULT:      -6.3      1.817      3.267
REMARK  Name = 20345
REMARK  7 active torsions:
REMARK  status: ('A' for Active; 'I' for Inactive)
REMARK    1  A    between atoms: N_1  and  C1*_12
REMARK    2  A    between atoms: C2*_11  and  O2*_15
REMARK    3  A    between atoms: C3*_13  and  O3*_17
REMARK    4  A    between atoms: C4*_14  and  C5*_19
REMARK    5  A    between atoms: C5*_19  and  O5*_20
REMARK    6  A    between atoms: N_22  and  C_24
REMARK    7  A    between atoms: C_24  and  C_26
REMARK                            x       y       z     vdW  Elec       q    Type
REMARK                         _______ _______ _______ _____ _____    ______ ____
ROOT
ATOM      1  N   UNL     1     -34.850  25.387   4.179  0.00  0.00    -0.247 N 
ATOM      2  N   UNL     1     -34.229  26.517   6.001  0.00  0.00    -0.242 NA
ATOM      3  N   UNL     1     -33.150  26.152   2.620  0.00  0.00    -0.228 NA
ATOM      4  N   UNL     1     -31.612  27.722   3.681  0.00  0.00    -0.228 NA
ATOM      5  C   UNL     1     -33.748  26.114   3.820  0.00  0.00    +0.152 C 
ATOM      6  C   UNL     1     -35.098  25.664   5.499  0.00  0.00    +0.223 C 
ATOM      7  C   UNL     1     -33.379  26.805   4.963  0.00  0.00    +0.140 C 
ATOM      8  C   UNL     1     -32.267  27.634   4.864  0.00  0.00    +0.146 C 
ATOM      9  C   UNL     1     -32.089  26.985   2.647  0.00  0.00    +0.253 C 
ATOM     10  N   UNL     1     -31.820  28.372   5.975  0.00  0.00    -0.311 N 
ATOM     11  H   UNL     1     -32.314  28.289   6.822  0.00  0.00    +0.149 HD
ENDROOT
BRANCH   1  14
ATOM     12  O4* UNL     1     -36.038  25.184   2.136  0.00  0.00    -0.333 OA
ATOM     13  C2* UNL     1     -36.882  23.932   4.001  0.00  0.00    +0.187 C 
ATOM     14  C1* UNL     1     -35.624  24.484   3.327  0.00  0.00    +0.225 C 
ATOM     15  C3* UNL     1     -37.989  24.754   3.370  0.00  0.00    +0.171 C 
ATOM     16  C4* UNL     1     -37.454  24.998   1.970  0.00  0.00    +0.175 C 
BRANCH  13  17
ATOM     17  O2* UNL     1     -37.018  22.549   3.680  0.00  0.00    -0.378 OA
ATOM     18  H2* UNL     1     -36.562  22.015   4.349  0.00  0.00    +0.211 HD
ENDBRANCH  13  17
BRANCH  15  19
ATOM     19  O3* UNL     1     -39.238  24.097   3.355  0.00  0.00    -0.379 OA
ATOM     20  H3* UNL     1     -39.950  24.755   3.330  0.00  0.00    +0.211 HD
ENDBRANCH  15  19
BRANCH  16  21
ATOM     21  C5* UNL     1     -38.057  26.216   1.294  0.00  0.00    +0.169 C 
BRANCH  21  22
ATOM     22  O5* UNL     1     -39.044  26.766   2.148  0.00  0.00    -0.379 OA
ATOM     23  H5* UNL     1     -39.606  26.054   2.493  0.00  0.00    +0.211 HD
ENDBRANCH  21  22
ENDBRANCH  16  21
ENDBRANCH   1  14
BRANCH  10  24
ATOM     24  C   UNL     1     -30.681  29.240   5.930  0.00  0.00    +0.154 C 
BRANCH  24  26
ATOM     25  O   UNL     1     -29.224  27.383   6.377  0.00  0.00    -0.453 OA
ATOM     26  C   UNL     1     -29.457  28.686   6.608  0.00  0.00    +0.143 C 
ATOM     27  C   UNL     1     -28.534  29.254   7.413  0.00  0.00    +0.038 C 
ATOM     28  C   UNL     1     -27.628  28.212   7.725  0.00  0.00    +0.043 C 
ATOM     29  C   UNL     1     -28.091  27.094   7.072  0.00  0.00    +0.179 C 
ENDBRANCH  24  26
ENDBRANCH  10  24
TORSDOF 7
ENDMDL
MODEL 6
REMARK VINA RESULT:      -6.2      2.901      3.962
REMARK  Name = 20345
REMARK  7 active torsions:
REMARK  status: ('A' for Active; 'I' for Inactive)
REMARK    1  A    between atoms: N_1  and  C1*_12
REMARK    2  A    between atoms: C2*_11  and  O2*_15
REMARK    3  A    between atoms: C3*_13  and  O3*_17
REMARK    4  A    between atoms: C4*_14  and  C5*_19
REMARK    5  A    between atoms: C5*_19  and  O5*_20
REMARK    6  A    between atoms: N_22  and  C_24
REMARK    7  A    between atoms: C_24  and  C_26
REMARK                            x       y       z     vdW  Elec       q    Type
REMARK                         _______ _______ _______ _____ _____    ______ ____
ROOT
ATOM      1  N   UNL     1     -35.017  26.109   4.678  0.00  0.00    -0.247 N 
ATOM      2  N   UNL     1     -33.090  27.223   4.834  0.00  0.00    -0.242 NA
ATOM      3  N   UNL     1     -35.866  27.041   2.601  0.00  0.00    -0.228 NA
ATOM      4  N   UNL     1     -34.322  28.683   1.666  0.00  0.00    -0.228 NA
ATOM      5  C   UNL     1     -34.958  26.923   3.581  0.00  0.00    +0.152 C 
ATOM      6  C   UNL     1     -33.871  26.327   5.399  0.00  0.00    +0.223 C 
ATOM      7  C   UNL     1     -33.756  27.604   3.696  0.00  0.00    +0.140 C 
ATOM      8  C   UNL     1     -33.449  28.513   2.689  0.00  0.00    +0.146 C 
ATOM      9  C   UNL     1     -35.459  27.946   1.686  0.00  0.00    +0.253 C 
ATOM     10  N   UNL     1     -32.250  29.246   2.725  0.00  0.00    -0.311 N 
ATOM     11  H   UNL     1     -31.635  29.102   3.479  0.00  0.00    +0.149 HD
ENDROOT
BRANCH   1  14
ATOM     12  O4* UNL     1     -35.608  24.227   5.997  0.00  0.00    -0.333 OA
ATOM     13  C2* UNL     1     -36.630  24.389   3.832  0.00  0.00    +0.187 C 
ATOM     14  C1* UNL     1     -36.092  25.179   5.027  0.00  0.00    +0.225 C 
ATOM     15  C3* UNL     1     -35.996  23.024   4.018  0.00  0.00    +0.171 C 
ATOM     16  C4* UNL     1     -35.922  22.904   5.530  0.00  0.00    +0.175 C 
BRANCH  13  17
ATOM     17  O2* UNL     1     -38.052  24.314   3.921  0.00  0.00    -0.378 OA
ATOM     18  H2* UNL     1     -38.300  23.581   4.506  0.00  0.00    +0.211 HD
ENDBRANCH  13  17
BRANCH  15  19
ATOM     19  O3* UNL     1     -36.739  21.975   3.437  0.00  0.00    -0.379 OA
ATOM     20  H3* UNL     1     -37.672  22.235   3.373  0.00  0.00    +0.211 HD
ENDBRANCH  15  19
BRANCH  16  21
ATOM     21  C5* UNL     1     -34.866  21.926   6.010  0.00  0.00    +0.169 C 
BRANCH  21  22
ATOM     22  O5* UNL     1     -35.275  20.613   5.670  0.00  0.00    -0.379 OA
ATOM     23  H5* UNL     1     -35.074  20.011   6.403  0.00  0.00    +0.211 HD
ENDBRANCH  21  22
ENDBRANCH  16  21
ENDBRANCH   1  14
BRANCH  10  24
ATOM     24  C   UNL     1     -31.884  30.194   1.715  0.00  0.00    +0.154 C 
BRANCH  24  26
ATOM     25  O   UNL     1     -31.268  32.402   2.436  0.00  0.00    -0.453 OA
ATOM     26  C   UNL     1     -32.276  31.613   2.029  0.00  0.00    +0.143 C 
ATOM     27  C   UNL     1     -33.463  32.255   1.980  0.00  0.00    +0.038 C 
ATOM     28  C   UNL     1     -33.183  33.578   2.396  0.00  0.00    +0.043 C 
ATOM     29  C   UNL     1     -31.834  33.617   2.662  0.00  0.00    +0.179 C 
ENDBRANCH  24  26
ENDBRANCH  10  24
TORSDOF 7
ENDMDL
MODEL 7
REMARK VINA RESULT:      -6.1      5.488      9.550
REMARK  Name = 20345
REMARK  7 active torsions:
REMARK  status: ('A' for Active; 'I' for Inactive)
REMARK    1  A    between atoms: N_1  and  C1*_12
REMARK    2  A    between atoms: C2*_11  and  O2*_15
REMARK    3  A    between atoms: C3*_13  and  O3*_17
REMARK    4  A    between atoms: C4*_14  and  C5*_19
REMARK    5  A    between atoms: C5*_19  and  O5*_20
REMARK    6  A    between atoms: N_22  and  C_24
REMARK    7  A    between atoms: C_24  and  C_26
REMARK                            x       y       z     vdW  Elec       q    Type
REMARK                         _______ _______ _______ _____ _____    ______ ____
ROOT
ATOM      1  N   UNL     1     -36.989  24.649   2.749  0.00  0.00    -0.247 N 
ATOM      2  N   UNL     1     -38.427  26.321   2.414  0.00  0.00    -0.242 NA
ATOM      3  N   UNL     1     -38.423  22.758   2.228  0.00  0.00    -0.228 NA
ATOM      4  N   UNL     1     -40.667  23.490   1.605  0.00  0.00    -0.228 NA
ATOM      5  C   UNL     1     -38.167  24.067   2.371  0.00  0.00    +0.152 C 
ATOM      6  C   UNL     1     -37.197  26.004   2.759  0.00  0.00    +0.223 C 
ATOM      7  C   UNL     1     -39.045  25.120   2.168  0.00  0.00    +0.140 C 
ATOM      8  C   UNL     1     -40.337  24.794   1.771  0.00  0.00    +0.146 C 
ATOM      9  C   UNL     1     -39.702  22.567   1.841  0.00  0.00    +0.253 C 
ATOM     10  N   UNL     1     -41.293  25.799   1.540  0.00  0.00    -0.311 N 
ATOM     11  H   UNL     1     -41.026  26.737   1.666  0.00  0.00    +0.149 HD
ENDROOT
BRANCH   1  14
ATOM     12  O4* UNL     1     -35.502  22.905   2.132  0.00  0.00    -0.333 OA
ATOM     13  C2* UNL     1     -35.731  23.344   4.480  0.00  0.00    +0.187 C 
ATOM     14  C1* UNL     1     -35.738  23.966   3.081  0.00  0.00    +0.225 C 
ATOM     15  C3* UNL     1     -35.938  21.869   4.193  0.00  0.00    +0.171 C 
ATOM     16  C4* UNL     1     -35.233  21.696   2.860  0.00  0.00    +0.175 C 
BRANCH  13  17
ATOM     17  O2* UNL     1     -34.463  23.578   5.091  0.00  0.00    -0.378 OA
ATOM     18  H2* UNL     1     -33.895  24.070   4.478  0.00  0.00    +0.211 HD
ENDBRANCH  13  17
BRANCH  15  19
ATOM     19  O3* UNL     1     -35.408  21.023   5.190  0.00  0.00    -0.379 OA
ATOM     20  H3* UNL     1     -35.060  21.560   5.920  0.00  0.00    +0.211 HD
ENDBRANCH  15  19
BRANCH  16  21
ATOM     21  C5* UNL     1     -35.723  20.498   2.067  0.00  0.00    +0.169 C 
BRANCH  21  22
ATOM     22  O5* UNL     1     -36.826  19.926   2.745  0.00  0.00    -0.379 OA
ATOM     23  H5* UNL     1     -36.992  19.034   2.399  0.00  0.00    +0.211 HD
ENDBRANCH  21  22
ENDBRANCH  16  21
ENDBRANCH   1  14
BRANCH  10  24
ATOM     24  C   UNL     1     -42.637  25.520   1.129  0.00  0.00    +0.154 C 
BRANCH  24  26
ATOM     25  O   UNL     1     -43.267  26.614   3.173  0.00  0.00    -0.453 OA
ATOM     26  C   UNL     1     -43.674  25.805   2.182  0.00  0.00    +0.143 C 
ATOM     27  C   UNL     1     -44.954  25.398   2.323  0.00  0.00    +0.038 C 
ATOM     28  C   UNL     1     -45.403  26.008   3.519  0.00  0.00    +0.043 C 
ATOM     29  C   UNL     1     -44.340  26.736   3.999  0.00  0.00    +0.179 C 
ENDBRANCH  24  26
ENDBRANCH  10  24
TORSDOF 7
ENDMDL
MODEL 8
REMARK VINA RESULT:      -6.1      2.865      4.331
REMARK  Name = 20345
REMARK  7 active torsions:
REMARK  status: ('A' for Active; 'I' for Inactive)
REMARK    1  A    between atoms: N_1  and  C1*_12
REMARK    2  A    between atoms: C2*_11  and  O2*_15
REMARK    3  A    between atoms: C3*_13  and  O3*_17
REMARK    4  A    between atoms: C4*_14  and  C5*_19
REMARK    5  A    between atoms: C5*_19  and  O5*_20
REMARK    6  A    between atoms: N_22  and  C_24
REMARK    7  A    between atoms: C_24  and  C_26
REMARK                            x       y       z     vdW  Elec       q    Type
REMARK                         _______ _______ _______ _____ _____    ______ ____
ROOT
ATOM      1  N   UNL     1     -37.621  24.409   3.003  0.00  0.00    -0.247 N 
ATOM      2  N   UNL     1     -36.477  26.325   2.975  0.00  0.00    -0.242 NA
ATOM      3  N   UNL     1     -36.430  23.243   4.772  0.00  0.00    -0.228 NA
ATOM      4  N   UNL     1     -34.621  24.609   5.676  0.00  0.00    -0.228 NA
ATOM      5  C   UNL     1     -36.656  24.291   3.967  0.00  0.00    +0.152 C 
ATOM      6  C   UNL     1     -37.471  25.649   2.437  0.00  0.00    +0.223 C 
ATOM      7  C   UNL     1     -35.960  25.489   3.933  0.00  0.00    +0.140 C 
ATOM      8  C   UNL     1     -34.908  25.629   4.831  0.00  0.00    +0.146 C 
ATOM      9  C   UNL     1     -35.390  23.496   5.595  0.00  0.00    +0.253 C 
ATOM     10  N   UNL     1     -34.148  26.812   4.868  0.00  0.00    -0.311 N 
ATOM     11  H   UNL     1     -34.378  27.537   4.244  0.00  0.00    +0.149 HD
ENDROOT
BRANCH   1  14
ATOM     12  O4* UNL     1     -38.047  22.091   2.730  0.00  0.00    -0.333 OA
ATOM     13  C2* UNL     1     -39.171  23.578   1.219  0.00  0.00    +0.187 C 
ATOM     14  C1* UNL     1     -38.625  23.409   2.638  0.00  0.00    +0.225 C 
ATOM     15  C3* UNL     1     -38.453  22.484   0.451  0.00  0.00    +0.171 C 
ATOM     16  C4* UNL     1     -38.306  21.395   1.499  0.00  0.00    +0.175 C 
BRANCH  13  17
ATOM     17  O2* UNL     1     -40.580  23.361   1.229  0.00  0.00    -0.378 OA
ATOM     18  H2* UNL     1     -40.873  23.100   0.341  0.00  0.00    +0.211 HD
ENDBRANCH  13  17
BRANCH  15  19
ATOM     19  O3* UNL     1     -39.161  22.038  -0.685  0.00  0.00    -0.379 OA
ATOM     20  H3* UNL     1     -38.765  22.419  -1.485  0.00  0.00    +0.211 HD
ENDBRANCH  15  19
BRANCH  16  21
ATOM     21  C5* UNL     1     -37.177  20.424   1.210  0.00  0.00    +0.169 C 
BRANCH  21  22
ATOM     22  O5* UNL     1     -36.825  19.765   2.413  0.00  0.00    -0.379 OA
ATOM     23  H5* UNL     1     -37.331  20.144   3.149  0.00  0.00    +0.211 HD
ENDBRANCH  21  22
ENDBRANCH  16  21
ENDBRANCH   1  14
BRANCH  10  24
ATOM     24  C   UNL     1     -33.054  27.010   5.772  0.00  0.00    +0.154 C 
BRANCH  24  26
ATOM     25  O   UNL     1     -32.800  29.120   4.651  0.00  0.00    -0.453 OA
ATOM     26  C   UNL     1     -32.462  28.393   5.729  0.00  0.00    +0.143 C 
ATOM     27  C   UNL     1     -31.647  29.055   6.579  0.00  0.00    +0.038 C 
ATOM     28  C   UNL     1     -31.447  30.323   5.983  0.00  0.00    +0.043 C 
ATOM     29  C   UNL     1     -32.169  30.313   4.813  0.00  0.00    +0.179 C 
ENDBRANCH  24  26
ENDBRANCH  10  24
TORSDOF 7
ENDMDL
MODEL 9
REMARK VINA RESULT:      -6.0      1.842      2.500
REMARK  Name = 20345
REMARK  7 active torsions:
REMARK  status: ('A' for Active; 'I' for Inactive)
REMARK    1  A    between atoms: N_1  and  C1*_12
REMARK    2  A    between atoms: C2*_11  and  O2*_15
REMARK    3  A    between atoms: C3*_13  and  O3*_17
REMARK    4  A    between atoms: C4*_14  and  C5*_19
REMARK    5  A    between atoms: C5*_19  and  O5*_20
REMARK    6  A    between atoms: N_22  and  C_24
REMARK    7  A    between atoms: C_24  and  C_26
REMARK                            x       y       z     vdW  Elec       q    Type
REMARK                         _______ _______ _______ _____ _____    ______ ____
ROOT
ATOM      1  N   UNL     1     -34.234  26.293   5.032  0.00  0.00    -0.247 N 
ATOM      2  N   UNL     1     -32.646  27.106   6.372  0.00  0.00    -0.242 NA
ATOM      3  N   UNL     1     -33.768  27.569   3.017  0.00  0.00    -0.228 NA
ATOM      4  N   UNL     1     -31.879  29.081   3.340  0.00  0.00    -0.228 NA
ATOM      5  C   UNL     1     -33.546  27.214   4.291  0.00  0.00    +0.152 C 
ATOM      6  C   UNL     1     -33.655  26.266   6.274  0.00  0.00    +0.223 C 
ATOM      7  C   UNL     1     -32.566  27.705   5.140  0.00  0.00    +0.140 C 
ATOM      8  C   UNL     1     -31.714  28.674   4.622  0.00  0.00    +0.146 C 
ATOM      9  C   UNL     1     -32.882  28.511   2.628  0.00  0.00    +0.253 C 
ATOM     10  N   UNL     1     -30.690  29.227   5.411  0.00  0.00    -0.311 N 
ATOM     11  H   UNL     1     -30.592  28.912   6.339  0.00  0.00    +0.149 HD
ENDROOT
BRANCH   1  14
ATOM     12  O4* UNL     1     -35.787  24.614   5.665  0.00  0.00    -0.333 OA
ATOM     13  C2* UNL     1     -35.071  24.610   3.375  0.00  0.00    +0.187 C 
ATOM     14  C1* UNL     1     -35.373  25.486   4.593  0.00  0.00    +0.225 C 
ATOM     15  C3* UNL     1     -34.902  23.232   3.986  0.00  0.00    +0.171 C 
ATOM     16  C4* UNL     1     -35.872  23.274   5.153  0.00  0.00    +0.175 C 
BRANCH  13  17
ATOM     17  O2* UNL     1     -36.183  24.646   2.483  0.00  0.00    -0.378 OA
ATOM     18  H2* UNL     1     -36.628  23.784   2.486  0.00  0.00    +0.211 HD
ENDBRANCH  13  17
BRANCH  15  19
ATOM     19  O3* UNL     1     -35.192  22.181   3.090  0.00  0.00    -0.379 OA
ATOM     20  H3* UNL     1     -34.949  22.446   2.189  0.00  0.00    +0.211 HD
ENDBRANCH  15  19
BRANCH  16  21
ATOM     21  C5* UNL     1     -35.541  22.282   6.253  0.00  0.00    +0.169 C 
BRANCH  21  22
ATOM     22  O5* UNL     1     -35.371  21.001   5.672  0.00  0.00    -0.379 OA
ATOM     23  H5* UNL     1     -35.756  20.996   4.781  0.00  0.00    +0.211 HD
ENDBRANCH  21  22
ENDBRANCH  16  21
ENDBRANCH   1  14
BRANCH  10  24
ATOM     24  C   UNL     1     -29.784  30.227   4.929  0.00  0.00    +0.154 C 
BRANCH  24  26
ATOM     25  O   UNL     1     -28.575  29.742   6.948  0.00  0.00    -0.453 OA
ATOM     26  C   UNL     1     -28.659  30.547   5.876  0.00  0.00    +0.143 C 
ATOM     27  C   UNL     1     -27.703  31.500   5.855  0.00  0.00    +0.038 C 
ATOM     28  C   UNL     1     -26.938  31.280   7.026  0.00  0.00    +0.043 C 
ATOM     29  C   UNL     1     -27.510  30.200   7.657  0.00  0.00    +0.179 C 
ENDBRANCH  24  26
ENDBRANCH  10  24
TORSDOF 7
ENDMDL
