MODEL 1
REMARK VINA RESULT:      -6.1      0.000      0.000
REMARK  Name = 191062
REMARK  4 active torsions:
REMARK  status: ('A' for Active; 'I' for Inactive)
REMARK    1  A    between atoms: C_7  and  O_23
REMARK    2  A    between atoms: C_8  and  N_13
REMARK    3  A    between atoms: C_14  and  C_16
REMARK    4  A    between atoms: C_16  and  C_17
REMARK                            x       y       z     vdW  Elec       q    Type
REMARK                         _______ _______ _______ _____ _____    ______ ____
ROOT
ATOM      1  S   UNL     1     -38.073  24.835   2.466  0.00  0.00    +0.064 S 
ATOM      2  O   UNL     1     -38.295  24.415   3.890  0.00  0.00    -0.254 OA
ATOM      3  O   UNL     1     -40.362  20.978   2.406  0.00  0.00    -0.273 OA
ATOM      4  N   UNL     1     -39.586  22.946   1.363  0.00  0.00    -0.244 N 
ATOM      5  C   UNL     1     -38.152  23.240   1.462  0.00  0.00    +0.184 C 
ATOM      6  C   UNL     1     -39.755  25.315   1.753  0.00  0.00    +0.113 C 
ATOM      7  C   UNL     1     -40.547  23.993   1.636  0.00  0.00    +0.203 C 
ATOM      8  C   UNL     1     -37.985  21.859   2.116  0.00  0.00    +0.180 C 
ATOM      9  C   UNL     1     -39.516  21.743   2.000  0.00  0.00    +0.249 C 
ATOM     10  C   UNL     1     -40.438  26.298   2.706  0.00  0.00    +0.018 C 
ATOM     11  C   UNL     1     -39.507  25.998   0.399  0.00  0.00    +0.018 C 
ENDROOT
BRANCH   8  13
ATOM     12  O   UNL     1     -35.663  20.348   2.905  0.00  0.00    -0.275 OA
ATOM     13  N   UNL     1     -37.251  20.887   1.302  0.00  0.00    -0.296 N 
ATOM     14  C   UNL     1     -36.146  20.216   1.783  0.00  0.00    +0.227 C 
ATOM     15  H   UNL     1     -37.556  20.706   0.383  0.00  0.00    +0.150 HD
BRANCH  14  16
ATOM     16  C   UNL     1     -35.582  19.279   0.734  0.00  0.00    +0.111 C 
BRANCH  16  17
ATOM     17  C   UNL     1     -34.082  19.347   0.616  0.00  0.00    -0.013 C 
ATOM     18  C   UNL     1     -33.492  20.459   0.034  0.00  0.00    -0.004 C 
ATOM     19  C   UNL     1     -33.312  18.296   1.094  0.00  0.00    -0.004 C 
ATOM     20  C   UNL     1     -32.103  20.522  -0.075  0.00  0.00    -0.000 C 
ATOM     21  C   UNL     1     -31.922  18.359   0.985  0.00  0.00    -0.000 C 
ATOM     22  C   UNL     1     -31.318  19.472   0.401  0.00  0.00    -0.000 C 
ENDBRANCH  16  17
ENDBRANCH  14  16
ENDBRANCH   8  13
BRANCH   7  23
ATOM     23  O   UNL     1     -41.514  24.015   0.601  0.00  0.00    -0.366 OA
ATOM     24  H   UNL     1     -41.263  23.380  -0.089  0.00  0.00    +0.212 HD
ENDBRANCH   7  23
TORSDOF 4
ENDMDL
MODEL 2
REMARK VINA RESULT:      -6.1      6.015      7.620
REMARK  Name = 191062
REMARK  4 active torsions:
REMARK  status: ('A' for Active; 'I' for Inactive)
REMARK    1  A    between atoms: C_7  and  O_23
REMARK    2  A    between atoms: C_8  and  N_13
REMARK    3  A    between atoms: C_14  and  C_16
REMARK    4  A    between atoms: C_16  and  C_17
REMARK                            x       y       z     vdW  Elec       q    Type
REMARK                         _______ _______ _______ _____ _____    ______ ____
ROOT
ATOM      1  S   UNL     1     -36.693  23.861   2.384  0.00  0.00    +0.064 S 
ATOM      2  O   UNL     1     -37.965  23.908   3.179  0.00  0.00    -0.254 OA
ATOM      3  O   UNL     1     -35.864  22.027   6.393  0.00  0.00    -0.273 OA
ATOM      4  N   UNL     1     -35.308  22.412   4.134  0.00  0.00    -0.244 N 
ATOM      5  C   UNL     1     -35.311  23.803   3.667  0.00  0.00    +0.184 C 
ATOM      6  C   UNL     1     -36.343  22.047   1.992  0.00  0.00    +0.113 C 
ATOM      7  C   UNL     1     -35.968  21.395   3.342  0.00  0.00    +0.203 C 
ATOM      8  C   UNL     1     -35.541  24.219   5.129  0.00  0.00    +0.180 C 
ATOM      9  C   UNL     1     -35.582  22.711   5.435  0.00  0.00    +0.249 C 
ATOM     10  C   UNL     1     -37.602  21.415   1.393  0.00  0.00    +0.018 C 
ATOM     11  C   UNL     1     -35.206  22.007   0.959  0.00  0.00    +0.018 C 
ENDROOT
BRANCH   8  13
ATOM     12  O   UNL     1     -35.007  27.048   5.035  0.00  0.00    -0.275 OA
ATOM     13  N   UNL     1     -34.413  24.921   5.745  0.00  0.00    -0.296 N 
ATOM     14  C   UNL     1     -34.253  26.286   5.637  0.00  0.00    +0.227 C 
ATOM     15  H   UNL     1     -33.747  24.402   6.252  0.00  0.00    +0.150 HD
BRANCH  14  16
ATOM     16  C   UNL     1     -33.004  26.745   6.362  0.00  0.00    +0.111 C 
BRANCH  16  17
ATOM     17  C   UNL     1     -32.385  27.982   5.764  0.00  0.00    -0.013 C 
ATOM     18  C   UNL     1     -31.912  28.983   6.600  0.00  0.00    -0.004 C 
ATOM     19  C   UNL     1     -32.296  28.101   4.384  0.00  0.00    -0.004 C 
ATOM     20  C   UNL     1     -31.340  30.127   6.046  0.00  0.00    -0.000 C 
ATOM     21  C   UNL     1     -31.724  29.246   3.829  0.00  0.00    -0.000 C 
ATOM     22  C   UNL     1     -31.245  30.259   4.661  0.00  0.00    -0.000 C 
ENDBRANCH  16  17
ENDBRANCH  14  16
ENDBRANCH   8  13
BRANCH   7  23
ATOM     23  O   UNL     1     -35.101  20.284   3.200  0.00  0.00    -0.366 OA
ATOM     24  H   UNL     1     -35.116  19.757   4.014  0.00  0.00    +0.212 HD
ENDBRANCH   7  23
TORSDOF 4
ENDMDL
MODEL 3
REMARK VINA RESULT:      -5.9      2.885      3.506
REMARK  Name = 191062
REMARK  4 active torsions:
REMARK  status: ('A' for Active; 'I' for Inactive)
REMARK    1  A    between atoms: C_7  and  O_23
REMARK    2  A    between atoms: C_8  and  N_13
REMARK    3  A    between atoms: C_14  and  C_16
REMARK    4  A    between atoms: C_16  and  C_17
REMARK                            x       y       z     vdW  Elec       q    Type
REMARK                         _______ _______ _______ _____ _____    ______ ____
ROOT
ATOM      1  S   UNL     1     -34.909  23.842   5.115  0.00  0.00    +0.064 S 
ATOM      2  O   UNL     1     -36.006  23.148   5.869  0.00  0.00    -0.254 OA
ATOM      3  O   UNL     1     -38.308  23.173   2.266  0.00  0.00    -0.273 OA
ATOM      4  N   UNL     1     -36.295  24.236   2.879  0.00  0.00    -0.244 N 
ATOM      5  C   UNL     1     -35.184  23.380   3.307  0.00  0.00    +0.184 C 
ATOM      6  C   UNL     1     -35.519  25.585   4.715  0.00  0.00    +0.113 C 
ATOM      7  C   UNL     1     -36.639  25.402   3.666  0.00  0.00    +0.203 C 
ATOM      8  C   UNL     1     -36.046  22.175   2.897  0.00  0.00    +0.180 C 
ATOM      9  C   UNL     1     -37.136  23.211   2.564  0.00  0.00    +0.249 C 
ATOM     10  C   UNL     1     -36.048  26.234   5.996  0.00  0.00    +0.018 C 
ATOM     11  C   UNL     1     -34.318  26.387   4.190  0.00  0.00    +0.018 C 
ENDROOT
BRANCH   8  13
ATOM     12  O   UNL     1     -34.529  19.727   2.920  0.00  0.00    -0.275 OA
ATOM     13  N   UNL     1     -35.549  21.440   1.733  0.00  0.00    -0.296 N 
ATOM     14  C   UNL     1     -34.828  20.270   1.860  0.00  0.00    +0.227 C 
ATOM     15  H   UNL     1     -35.733  21.790   0.832  0.00  0.00    +0.150 HD
BRANCH  14  16
ATOM     16  C   UNL     1     -34.436  19.726   0.501  0.00  0.00    +0.111 C 
BRANCH  16  17
ATOM     17  C   UNL     1     -32.972  19.387   0.392  0.00  0.00    -0.013 C 
ATOM     18  C   UNL     1     -32.519  18.159   0.852  0.00  0.00    -0.004 C 
ATOM     19  C   UNL     1     -32.098  20.308  -0.167  0.00  0.00    -0.004 C 
ATOM     20  C   UNL     1     -31.164  17.845   0.751  0.00  0.00    -0.000 C 
ATOM     21  C   UNL     1     -30.742  19.995  -0.267  0.00  0.00    -0.000 C 
ATOM     22  C   UNL     1     -30.275  18.763   0.191  0.00  0.00    -0.000 C 
ENDBRANCH  16  17
ENDBRANCH  14  16
ENDBRANCH   8  13
BRANCH   7  23
ATOM     23  O   UNL     1     -36.781  26.517   2.805  0.00  0.00    -0.366 OA
ATOM     24  H   UNL     1     -36.148  26.443   2.074  0.00  0.00    +0.212 HD
ENDBRANCH   7  23
TORSDOF 4
ENDMDL
MODEL 4
REMARK VINA RESULT:      -5.9      5.195      7.101
REMARK  Name = 191062
REMARK  4 active torsions:
REMARK  status: ('A' for Active; 'I' for Inactive)
REMARK    1  A    between atoms: C_7  and  O_23
REMARK    2  A    between atoms: C_8  and  N_13
REMARK    3  A    between atoms: C_14  and  C_16
REMARK    4  A    between atoms: C_16  and  C_17
REMARK                            x       y       z     vdW  Elec       q    Type
REMARK                         _______ _______ _______ _____ _____    ______ ____
ROOT
ATOM      1  S   UNL     1     -34.661  22.186   0.472  0.00  0.00    +0.064 S 
ATOM      2  O   UNL     1     -35.637  23.118  -0.184  0.00  0.00    -0.254 OA
ATOM      3  O   UNL     1     -37.910  23.066   3.437  0.00  0.00    -0.273 OA
ATOM      4  N   UNL     1     -36.089  21.774   2.679  0.00  0.00    -0.244 N 
ATOM      5  C   UNL     1     -34.858  22.489   2.323  0.00  0.00    +0.184 C 
ATOM      6  C   UNL     1     -35.535  20.526   0.697  0.00  0.00    +0.113 C 
ATOM      7  C   UNL     1     -36.611  20.767   1.779  0.00  0.00    +0.203 C 
ATOM      8  C   UNL     1     -35.521  23.762   2.873  0.00  0.00    +0.180 C 
ATOM      9  C   UNL     1     -36.759  22.878   3.115  0.00  0.00    +0.249 C 
ATOM     10  C   UNL     1     -36.161  20.108  -0.636  0.00  0.00    +0.018 C 
ATOM     11  C   UNL     1     -34.473  19.496   1.112  0.00  0.00    +0.018 C 
ENDROOT
BRANCH   8  13
ATOM     12  O   UNL     1     -36.242  26.176   4.269  0.00  0.00    -0.275 OA
ATOM     13  N   UNL     1     -34.913  24.282   4.099  0.00  0.00    -0.296 N 
ATOM     14  C   UNL     1     -35.339  25.455   4.687  0.00  0.00    +0.227 C 
ATOM     15  H   UNL     1     -34.177  23.780   4.519  0.00  0.00    +0.150 HD
BRANCH  14  16
ATOM     16  C   UNL     1     -34.536  25.759   5.936  0.00  0.00    +0.111 C 
BRANCH  16  17
ATOM     17  C   UNL     1     -33.460  26.790   5.719  0.00  0.00    -0.013 C 
ATOM     18  C   UNL     1     -32.747  27.273   6.807  0.00  0.00    -0.004 C 
ATOM     19  C   UNL     1     -33.196  27.241   4.433  0.00  0.00    -0.004 C 
ATOM     20  C   UNL     1     -31.751  28.227   6.606  0.00  0.00    -0.000 C 
ATOM     21  C   UNL     1     -32.199  28.197   4.232  0.00  0.00    -0.000 C 
ATOM     22  C   UNL     1     -31.476  28.689   5.318  0.00  0.00    -0.000 C 
ENDBRANCH  16  17
ENDBRANCH  14  16
ENDBRANCH   8  13
BRANCH   7  23
ATOM     23  O   UNL     1     -36.925  19.602   2.520  0.00  0.00    -0.366 OA
ATOM     24  H   UNL     1     -37.887  19.478   2.536  0.00  0.00    +0.212 HD
ENDBRANCH   7  23
TORSDOF 4
ENDMDL
MODEL 5
REMARK VINA RESULT:      -5.9      3.670      9.096
REMARK  Name = 191062
REMARK  4 active torsions:
REMARK  status: ('A' for Active; 'I' for Inactive)
REMARK    1  A    between atoms: C_7  and  O_23
REMARK    2  A    between atoms: C_8  and  N_13
REMARK    3  A    between atoms: C_14  and  C_16
REMARK    4  A    between atoms: C_16  and  C_17
REMARK                            x       y       z     vdW  Elec       q    Type
REMARK                         _______ _______ _______ _____ _____    ______ ____
ROOT
ATOM      1  S   UNL     1     -36.790  26.127   2.262  0.00  0.00    +0.064 S 
ATOM      2  O   UNL     1     -37.144  25.863   0.827  0.00  0.00    -0.254 OA
ATOM      3  O   UNL     1     -40.136  23.140   2.209  0.00  0.00    -0.273 OA
ATOM      4  N   UNL     1     -38.367  24.252   3.300  0.00  0.00    -0.244 N 
ATOM      5  C   UNL     1     -38.352  25.718   3.238  0.00  0.00    +0.184 C 
ATOM      6  C   UNL     1     -36.005  24.550   2.946  0.00  0.00    +0.113 C 
ATOM      7  C   UNL     1     -37.151  23.516   3.023  0.00  0.00    +0.203 C 
ATOM      8  C   UNL     1     -39.732  25.633   2.566  0.00  0.00    +0.180 C 
ATOM      9  C   UNL     1     -39.553  24.106   2.646  0.00  0.00    +0.249 C 
ATOM     10  C   UNL     1     -34.898  24.092   1.993  0.00  0.00    +0.018 C 
ATOM     11  C   UNL     1     -35.398  24.891   4.315  0.00  0.00    +0.018 C 
ENDROOT
BRANCH   8  13
ATOM     12  O   UNL     1     -41.649  27.645   1.806  0.00  0.00    -0.275 OA
ATOM     13  N   UNL     1     -40.836  26.146   3.380  0.00  0.00    -0.296 N 
ATOM     14  C   UNL     1     -41.700  27.116   2.914  0.00  0.00    +0.227 C 
ATOM     15  H   UNL     1     -40.967  25.788   4.288  0.00  0.00    +0.150 HD
BRANCH  14  16
ATOM     16  C   UNL     1     -42.740  27.462   3.960  0.00  0.00    +0.111 C 
BRANCH  16  17
ATOM     17  C   UNL     1     -44.013  26.668   3.823  0.00  0.00    -0.013 C 
ATOM     18  C   UNL     1     -44.273  25.992   2.640  0.00  0.00    -0.004 C 
ATOM     19  C   UNL     1     -44.906  26.622   4.885  0.00  0.00    -0.004 C 
ATOM     20  C   UNL     1     -45.450  25.257   2.513  0.00  0.00    -0.000 C 
ATOM     21  C   UNL     1     -46.085  25.886   4.758  0.00  0.00    -0.000 C 
ATOM     22  C   UNL     1     -46.357  25.203   3.572  0.00  0.00    -0.000 C 
ENDBRANCH  16  17
ENDBRANCH  14  16
ENDBRANCH   8  13
BRANCH   7  23
ATOM     23  O   UNL     1     -36.955  22.546   4.037  0.00  0.00    -0.366 OA
ATOM     24  H   UNL     1     -36.203  22.806   4.591  0.00  0.00    +0.212 HD
ENDBRANCH   7  23
TORSDOF 4
ENDMDL
MODEL 6
REMARK VINA RESULT:      -5.7      6.831      8.377
REMARK  Name = 191062
REMARK  4 active torsions:
REMARK  status: ('A' for Active; 'I' for Inactive)
REMARK    1  A    between atoms: C_7  and  O_23
REMARK    2  A    between atoms: C_8  and  N_13
REMARK    3  A    between atoms: C_14  and  C_16
REMARK    4  A    between atoms: C_16  and  C_17
REMARK                            x       y       z     vdW  Elec       q    Type
REMARK                         _______ _______ _______ _____ _____    ______ ____
ROOT
ATOM      1  S   UNL     1     -30.387  27.009   2.300  0.00  0.00    +0.064 S 
ATOM      2  O   UNL     1     -29.788  27.639   3.524  0.00  0.00    -0.254 OA
ATOM      3  O   UNL     1     -33.444  29.795   4.036  0.00  0.00    -0.273 OA
ATOM      4  N   UNL     1     -32.600  28.484   2.266  0.00  0.00    -0.244 N 
ATOM      5  C   UNL     1     -32.253  27.091   2.567  0.00  0.00    +0.184 C 
ATOM      6  C   UNL     1     -30.559  28.366   0.997  0.00  0.00    +0.113 C 
ATOM      7  C   UNL     1     -31.670  29.305   1.520  0.00  0.00    +0.203 C 
ATOM      8  C   UNL     1     -32.866  27.311   3.958  0.00  0.00    +0.180 C 
ATOM      9  C   UNL     1     -33.094  28.765   3.505  0.00  0.00    +0.249 C 
ATOM     10  C   UNL     1     -29.222  29.098   0.861  0.00  0.00    +0.018 C 
ATOM     11  C   UNL     1     -30.912  27.687  -0.335  0.00  0.00    +0.018 C 
ENDROOT
BRANCH   8  13
ATOM     12  O   UNL     1     -33.874  26.423   6.507  0.00  0.00    -0.275 OA
ATOM     13  N   UNL     1     -34.102  26.564   4.202  0.00  0.00    -0.296 N 
ATOM     14  C   UNL     1     -34.491  26.187   5.471  0.00  0.00    +0.227 C 
ATOM     15  H   UNL     1     -34.673  26.322   3.437  0.00  0.00    +0.150 HD
BRANCH  14  16
ATOM     16  C   UNL     1     -35.800  25.424   5.432  0.00  0.00    +0.111 C 
BRANCH  16  17
ATOM     17  C   UNL     1     -35.630  23.961   5.121  0.00  0.00    -0.013 C 
ATOM     18  C   UNL     1     -35.833  23.510   3.824  0.00  0.00    -0.004 C 
ATOM     19  C   UNL     1     -35.272  23.084   6.135  0.00  0.00    -0.004 C 
ATOM     20  C   UNL     1     -35.675  22.155   3.535  0.00  0.00    -0.000 C 
ATOM     21  C   UNL     1     -35.114  21.728   5.846  0.00  0.00    -0.000 C 
ATOM     22  C   UNL     1     -35.316  21.263   4.547  0.00  0.00    -0.000 C 
ENDBRANCH  16  17
ENDBRANCH  14  16
ENDBRANCH   8  13
BRANCH   7  23
ATOM     23  O   UNL     1     -32.368  29.971   0.483  0.00  0.00    -0.366 OA
ATOM     24  H   UNL     1     -31.803  30.024  -0.304  0.00  0.00    +0.212 HD
ENDBRANCH   7  23
TORSDOF 4
ENDMDL
MODEL 7
REMARK VINA RESULT:      -5.7      3.817      5.105
REMARK  Name = 191062
REMARK  4 active torsions:
REMARK  status: ('A' for Active; 'I' for Inactive)
REMARK    1  A    between atoms: C_7  and  O_23
REMARK    2  A    between atoms: C_8  and  N_13
REMARK    3  A    between atoms: C_14  and  C_16
REMARK    4  A    between atoms: C_16  and  C_17
REMARK                            x       y       z     vdW  Elec       q    Type
REMARK                         _______ _______ _______ _____ _____    ______ ____
ROOT
ATOM      1  S   UNL     1     -39.032  25.636  -0.329  0.00  0.00    +0.064 S 
ATOM      2  O   UNL     1     -39.195  27.127  -0.367  0.00  0.00    -0.254 OA
ATOM      3  O   UNL     1     -41.151  26.869   3.427  0.00  0.00    -0.273 OA
ATOM      4  N   UNL     1     -40.492  25.237   1.858  0.00  0.00    -0.244 N 
ATOM      5  C   UNL     1     -39.070  25.181   1.501  0.00  0.00    +0.184 C 
ATOM      6  C   UNL     1     -40.753  24.878  -0.507  0.00  0.00    +0.113 C 
ATOM      7  C   UNL     1     -41.490  25.209   0.810  0.00  0.00    +0.203 C 
ATOM      8  C   UNL     1     -38.824  26.223   2.603  0.00  0.00    +0.180 C 
ATOM      9  C   UNL     1     -40.352  26.212   2.800  0.00  0.00    +0.249 C 
ATOM     10  C   UNL     1     -41.451  25.506  -1.716  0.00  0.00    +0.018 C 
ATOM     11  C   UNL     1     -40.574  23.370  -0.742  0.00  0.00    +0.018 C 
ENDROOT
BRANCH   8  13
ATOM     12  O   UNL     1     -36.007  26.554   3.104  0.00  0.00    -0.275 OA
ATOM     13  N   UNL     1     -38.073  25.723   3.756  0.00  0.00    -0.296 N 
ATOM     14  C   UNL     1     -36.718  25.940   3.897  0.00  0.00    +0.227 C 
ATOM     15  H   UNL     1     -38.548  25.215   4.453  0.00  0.00    +0.150 HD
BRANCH  14  16
ATOM     16  C   UNL     1     -36.197  25.311   5.174  0.00  0.00    +0.111 C 
BRANCH  16  17
ATOM     17  C   UNL     1     -35.821  23.861   5.015  0.00  0.00    -0.013 C 
ATOM     18  C   UNL     1     -35.383  23.144   6.119  0.00  0.00    -0.004 C 
ATOM     19  C   UNL     1     -35.921  23.263   3.767  0.00  0.00    -0.004 C 
ATOM     20  C   UNL     1     -35.035  21.802   5.973  0.00  0.00    -0.000 C 
ATOM     21  C   UNL     1     -35.572  21.919   3.620  0.00  0.00    -0.000 C 
ATOM     22  C   UNL     1     -35.130  21.189   4.723  0.00  0.00    -0.000 C 
ENDBRANCH  16  17
ENDBRANCH  14  16
ENDBRANCH   8  13
BRANCH   7  23
ATOM     23  O   UNL     1     -42.486  24.259   1.143  0.00  0.00    -0.366 OA
ATOM     24  H   UNL     1     -42.063  23.426   1.404  0.00  0.00    +0.212 HD
ENDBRANCH   7  23
TORSDOF 4
ENDMDL
MODEL 8
REMARK VINA RESULT:      -5.7      3.449      3.985
REMARK  Name = 191062
REMARK  4 active torsions:
REMARK  status: ('A' for Active; 'I' for Inactive)
REMARK    1  A    between atoms: C_7  and  O_23
REMARK    2  A    between atoms: C_8  and  N_13
REMARK    3  A    between atoms: C_14  and  C_16
REMARK    4  A    between atoms: C_16  and  C_17
REMARK                            x       y       z     vdW  Elec       q    Type
REMARK                         _______ _______ _______ _____ _____    ______ ____
ROOT
ATOM      1  S   UNL     1     -33.348  25.872   2.839  0.00  0.00    +0.064 S 
ATOM      2  O   UNL     1     -33.287  25.662   4.324  0.00  0.00    -0.254 OA
ATOM      3  O   UNL     1     -37.335  24.295   4.157  0.00  0.00    -0.273 OA
ATOM      4  N   UNL     1     -35.945  25.359   2.578  0.00  0.00    -0.244 N 
ATOM      5  C   UNL     1     -34.687  24.691   2.229  0.00  0.00    +0.184 C 
ATOM      6  C   UNL     1     -34.533  27.308   2.523  0.00  0.00    +0.113 C 
ATOM      7  C   UNL     1     -35.938  26.774   2.886  0.00  0.00    +0.203 C 
ATOM      8  C   UNL     1     -35.167  23.500   3.072  0.00  0.00    +0.180 C 
ATOM      9  C   UNL     1     -36.396  24.368   3.397  0.00  0.00    +0.249 C 
ATOM     10  C   UNL     1     -34.133  28.488   3.411  0.00  0.00    +0.018 C 
ATOM     11  C   UNL     1     -34.396  27.706   1.045  0.00  0.00    +0.018 C 
ENDROOT
BRANCH   8  13
ATOM     12  O   UNL     1     -35.253  20.793   4.055  0.00  0.00    -0.275 OA
ATOM     13  N   UNL     1     -35.477  22.295   2.300  0.00  0.00    -0.296 N 
ATOM     14  C   UNL     1     -35.490  21.041   2.875  0.00  0.00    +0.227 C 
ATOM     15  H   UNL     1     -35.682  22.381   1.341  0.00  0.00    +0.150 HD
BRANCH  14  16
ATOM     16  C   UNL     1     -35.835  19.978   1.850  0.00  0.00    +0.111 C 
BRANCH  16  17
ATOM     17  C   UNL     1     -34.669  19.581   0.985  0.00  0.00    -0.013 C 
ATOM     18  C   UNL     1     -33.524  19.066   1.576  0.00  0.00    -0.004 C 
ATOM     19  C   UNL     1     -34.756  19.734  -0.392  0.00  0.00    -0.004 C 
ATOM     20  C   UNL     1     -32.443  18.698   0.775  0.00  0.00    -0.000 C 
ATOM     21  C   UNL     1     -33.675  19.366  -1.194  0.00  0.00    -0.000 C 
ATOM     22  C   UNL     1     -32.519  18.848  -0.610  0.00  0.00    -0.000 C 
ENDBRANCH  16  17
ENDBRANCH  14  16
ENDBRANCH   8  13
BRANCH   7  23
ATOM     23  O   UNL     1     -36.977  27.411   2.164  0.00  0.00    -0.366 OA
ATOM     24  H   UNL     1     -36.645  27.686   1.295  0.00  0.00    +0.212 HD
ENDBRANCH   7  23
TORSDOF 4
ENDMDL
MODEL 9
REMARK VINA RESULT:      -5.7      5.704      7.301
REMARK  Name = 191062
REMARK  4 active torsions:
REMARK  status: ('A' for Active; 'I' for Inactive)
REMARK    1  A    between atoms: C_7  and  O_23
REMARK    2  A    between atoms: C_8  and  N_13
REMARK    3  A    between atoms: C_14  and  C_16
REMARK    4  A    between atoms: C_16  and  C_17
REMARK                            x       y       z     vdW  Elec       q    Type
REMARK                         _______ _______ _______ _____ _____    ______ ____
ROOT
ATOM      1  S   UNL     1     -34.886  28.421  -0.203  0.00  0.00    +0.064 S 
ATOM      2  O   UNL     1     -33.475  28.880   0.022  0.00  0.00    -0.254 OA
ATOM      3  O   UNL     1     -34.766  30.579   3.727  0.00  0.00    -0.273 OA
ATOM      4  N   UNL     1     -35.939  29.675   1.893  0.00  0.00    -0.244 N 
ATOM      5  C   UNL     1     -35.642  28.288   1.520  0.00  0.00    +0.184 C 
ATOM      6  C   UNL     1     -35.938  29.962  -0.497  0.00  0.00    +0.113 C 
ATOM      7  C   UNL     1     -35.992  30.692   0.864  0.00  0.00    +0.203 C 
ATOM      8  C   UNL     1     -34.774  28.208   2.786  0.00  0.00    +0.180 C 
ATOM      9  C   UNL     1     -35.130  29.692   2.989  0.00  0.00    +0.249 C 
ATOM     10  C   UNL     1     -35.271  30.823  -1.571  0.00  0.00    +0.018 C 
ATOM     11  C   UNL     1     -37.316  29.495  -0.993  0.00  0.00    +0.018 C 
ENDROOT
BRANCH   8  13
ATOM     12  O   UNL     1     -33.291  26.260   4.304  0.00  0.00    -0.275 OA
ATOM     13  N   UNL     1     -35.298  27.322   3.827  0.00  0.00    -0.296 N 
ATOM     14  C   UNL     1     -34.494  26.422   4.495  0.00  0.00    +0.227 C 
ATOM     15  H   UNL     1     -36.254  27.370   4.059  0.00  0.00    +0.150 HD
BRANCH  14  16
ATOM     16  C   UNL     1     -35.293  25.632   5.513  0.00  0.00    +0.111 C 
BRANCH  16  17
ATOM     17  C   UNL     1     -35.335  24.155   5.224  0.00  0.00    -0.013 C 
ATOM     18  C   UNL     1     -35.187  23.250   6.266  0.00  0.00    -0.004 C 
ATOM     19  C   UNL     1     -35.524  23.719   3.920  0.00  0.00    -0.004 C 
ATOM     20  C   UNL     1     -35.226  21.882   5.999  0.00  0.00    -0.000 C 
ATOM     21  C   UNL     1     -35.563  22.350   3.652  0.00  0.00    -0.000 C 
ATOM     22  C   UNL     1     -35.414  21.432   4.692  0.00  0.00    -0.000 C 
ENDBRANCH  16  17
ENDBRANCH  14  16
ENDBRANCH   8  13
BRANCH   7  23
ATOM     23  O   UNL     1     -37.169  31.463   1.034  0.00  0.00    -0.366 OA
ATOM     24  H   UNL     1     -36.958  32.403   0.923  0.00  0.00    +0.212 HD
ENDBRANCH   7  23
TORSDOF 4
ENDMDL
