MODEL 1
REMARK VINA RESULT:      -6.8      0.000      0.000
REMARK  Name = 53307010
REMARK  4 active torsions:
REMARK  status: ('A' for Active; 'I' for Inactive)
REMARK    1  A    between atoms: C_8  and  O_22
REMARK    2  A    between atoms: C_15  and  O_24
REMARK    3  A    between atoms: C_20  and  C_26
REMARK    4  A    between atoms: C_26  and  O_28
REMARK                            x       y       z     vdW  Elec       q    Type
REMARK                         _______ _______ _______ _____ _____    ______ ____
ROOT
ATOM      1  O   UNL     1     -35.168  23.415   2.878  0.00  0.00    -0.327 OA
ATOM      2  O   UNL     1     -37.289  23.682   3.973  0.00  0.00    -0.459 OA
ATOM      3  O   UNL     1     -41.392  26.307   0.669  0.00  0.00    -0.442 OA
ATOM      4  O   UNL     1     -40.077  28.161   0.235  0.00  0.00    -0.245 OA
ATOM      5  C   UNL     1     -35.852  23.807   4.083  0.00  0.00    +0.231 C 
ATOM      6  C   UNL     1     -35.489  25.283   4.401  0.00  0.00    +0.069 C 
ATOM      7  C   UNL     1     -35.425  22.867   5.228  0.00  0.00    +0.099 C 
ATOM      8  C   UNL     1     -35.674  21.402   4.866  0.00  0.00    +0.119 C 
ATOM      9  C   UNL     1     -35.949  26.177   3.238  0.00  0.00    +0.039 C 
ATOM     10  C   UNL     1     -35.427  22.070   2.461  0.00  0.00    +0.121 C 
ATOM     11  C   UNL     1     -34.996  21.078   3.539  0.00  0.00    +0.059 C 
ATOM     12  C   UNL     1     -37.338  25.821   2.796  0.00  0.00    +0.046 C 
ATOM     13  C   UNL     1     -37.923  24.599   3.178  0.00  0.00    +0.140 C 
ATOM     14  C   UNL     1     -33.999  25.531   4.655  0.00  0.00    +0.007 C 
ATOM     15  C   UNL     1     -38.052  26.704   1.974  0.00  0.00    +0.139 C 
ATOM     16  C   UNL     1     -39.915  25.154   1.977  0.00  0.00    +0.032 C 
ATOM     17  C   UNL     1     -39.224  24.267   2.782  0.00  0.00    +0.036 C 
ATOM     18  C   UNL     1     -34.662  21.836   1.166  0.00  0.00    +0.032 C 
ATOM     19  C   UNL     1     -39.330  26.342   1.591  0.00  0.00    +0.109 C 
ATOM     20  C   UNL     1     -41.281  25.065   1.416  0.00  0.00    +0.218 C 
ATOM     21  C   UNL     1     -40.263  27.078   0.753  0.00  0.00    +0.344 C 
ENDROOT
BRANCH   8  22
ATOM     22  O   UNL     1     -35.143  20.576   5.896  0.00  0.00    -0.384 OA
ATOM     23  H   UNL     1     -35.064  19.665   5.572  0.00  0.00    +0.210 HD
ENDBRANCH   8  22
BRANCH  15  24
ATOM     24  O   UNL     1     -37.510  27.882   1.567  0.00  0.00    -0.506 OA
ATOM     25  H   UNL     1     -36.579  27.994   1.565  0.00  0.00    +0.292 HD
ENDBRANCH  15  24
BRANCH  20  26
ATOM     26  C   UNL     1     -41.486  23.897   0.466  0.00  0.00    +0.155 C 
ATOM     27  C   UNL     1     -40.758  24.103  -0.854  0.00  0.00    +0.036 C 
BRANCH  26  28
ATOM     28  O   UNL     1     -42.879  23.737   0.210  0.00  0.00    -0.380 OA
ATOM     29  H   UNL     1     -43.116  24.219  -0.597  0.00  0.00    +0.211 HD
ENDBRANCH  26  28
ENDBRANCH  20  26
TORSDOF 4
ENDMDL
MODEL 2
REMARK VINA RESULT:      -6.5      1.691      2.168
REMARK  Name = 53307010
REMARK  4 active torsions:
REMARK  status: ('A' for Active; 'I' for Inactive)
REMARK    1  A    between atoms: C_8  and  O_22
REMARK    2  A    between atoms: C_15  and  O_24
REMARK    3  A    between atoms: C_20  and  C_26
REMARK    4  A    between atoms: C_26  and  O_28
REMARK                            x       y       z     vdW  Elec       q    Type
REMARK                         _______ _______ _______ _____ _____    ______ ____
ROOT
ATOM      1  O   UNL     1     -35.110  23.160   2.115  0.00  0.00    -0.327 OA
ATOM      2  O   UNL     1     -37.238  22.083   2.404  0.00  0.00    -0.459 OA
ATOM      3  O   UNL     1     -41.845  25.400   0.846  0.00  0.00    -0.442 OA
ATOM      4  O   UNL     1     -41.245  27.156   2.229  0.00  0.00    -0.245 OA
ATOM      5  C   UNL     1     -35.943  22.366   2.982  0.00  0.00    +0.231 C 
ATOM      6  C   UNL     1     -36.135  23.130   4.320  0.00  0.00    +0.069 C 
ATOM      7  C   UNL     1     -35.266  20.999   3.210  0.00  0.00    +0.099 C 
ATOM      8  C   UNL     1     -34.969  20.298   1.884  0.00  0.00    +0.119 C 
ATOM      9  C   UNL     1     -36.825  24.475   4.039  0.00  0.00    +0.039 C 
ATOM     10  C   UNL     1     -34.862  22.574   0.833  0.00  0.00    +0.121 C 
ATOM     11  C   UNL     1     -34.161  21.225   0.982  0.00  0.00    +0.059 C 
ATOM     12  C   UNL     1     -37.980  24.305   3.095  0.00  0.00    +0.046 C 
ATOM     13  C   UNL     1     -38.116  23.131   2.330  0.00  0.00    +0.140 C 
ATOM     14  C   UNL     1     -34.840  23.393   5.094  0.00  0.00    +0.007 C 
ATOM     15  C   UNL     1     -38.919  25.336   2.957  0.00  0.00    +0.139 C 
ATOM     16  C   UNL     1     -40.119  23.985   1.341  0.00  0.00    +0.032 C 
ATOM     17  C   UNL     1     -39.199  22.960   1.458  0.00  0.00    +0.036 C 
ATOM     18  C   UNL     1     -34.005  23.550   0.041  0.00  0.00    +0.032 C 
ATOM     19  C   UNL     1     -39.970  25.141   2.080  0.00  0.00    +0.109 C 
ATOM     20  C   UNL     1     -41.340  24.079   0.511  0.00  0.00    +0.218 C 
ATOM     21  C   UNL     1     -41.063  26.047   1.766  0.00  0.00    +0.344 C 
ENDROOT
BRANCH   8  22
ATOM     22  O   UNL     1     -34.230  19.111   2.145  0.00  0.00    -0.384 OA
ATOM     23  H   UNL     1     -33.414  19.116   1.622  0.00  0.00    +0.210 HD
ENDBRANCH   8  22
BRANCH  15  24
ATOM     24  O   UNL     1     -38.807  26.491   3.662  0.00  0.00    -0.506 OA
ATOM     25  H   UNL     1     -38.581  26.465   4.572  0.00  0.00    +0.292 HD
ENDBRANCH  15  24
BRANCH  20  26
ATOM     26  C   UNL     1     -41.079  24.014  -0.985  0.00  0.00    +0.155 C 
ATOM     27  C   UNL     1     -41.934  25.010  -1.755  0.00  0.00    +0.036 C 
BRANCH  26  28
ATOM     28  O   UNL     1     -41.360  22.699  -1.455  0.00  0.00    -0.380 OA
ATOM     29  H   UNL     1     -40.708  22.079  -1.092  0.00  0.00    +0.211 HD
ENDBRANCH  26  28
ENDBRANCH  20  26
TORSDOF 4
ENDMDL
MODEL 3
REMARK VINA RESULT:      -6.4      3.757      6.791
REMARK  Name = 53307010
REMARK  4 active torsions:
REMARK  status: ('A' for Active; 'I' for Inactive)
REMARK    1  A    between atoms: C_8  and  O_22
REMARK    2  A    between atoms: C_15  and  O_24
REMARK    3  A    between atoms: C_20  and  C_26
REMARK    4  A    between atoms: C_26  and  O_28
REMARK                            x       y       z     vdW  Elec       q    Type
REMARK                         _______ _______ _______ _____ _____    ______ ____
ROOT
ATOM      1  O   UNL     1     -33.889  21.448  -0.447  0.00  0.00    -0.327 OA
ATOM      2  O   UNL     1     -35.813  22.738   0.191  0.00  0.00    -0.459 OA
ATOM      3  O   UNL     1     -35.698  24.636   5.762  0.00  0.00    -0.442 OA
ATOM      4  O   UNL     1     -35.387  22.517   6.640  0.00  0.00    -0.245 OA
ATOM      5  C   UNL     1     -35.325  21.552  -0.480  0.00  0.00    +0.231 C 
ATOM      6  C   UNL     1     -35.929  20.294   0.201  0.00  0.00    +0.069 C 
ATOM      7  C   UNL     1     -35.785  21.669  -1.947  0.00  0.00    +0.099 C 
ATOM      8  C   UNL     1     -35.098  22.840  -2.652  0.00  0.00    +0.119 C 
ATOM      9  C   UNL     1     -35.453  20.234   1.662  0.00  0.00    +0.039 C 
ATOM     10  C   UNL     1     -33.202  22.557  -1.035  0.00  0.00    +0.121 C 
ATOM     11  C   UNL     1     -33.586  22.714  -2.505  0.00  0.00    +0.059 C 
ATOM     12  C   UNL     1     -35.564  21.576   2.325  0.00  0.00    +0.046 C 
ATOM     13  C   UNL     1     -35.728  22.744   1.558  0.00  0.00    +0.140 C 
ATOM     14  C   UNL     1     -35.580  18.970  -0.486  0.00  0.00    +0.007 C 
ATOM     15  C   UNL     1     -35.480  21.668   3.721  0.00  0.00    +0.139 C 
ATOM     16  C   UNL     1     -35.769  24.068   3.549  0.00  0.00    +0.032 C 
ATOM     17  C   UNL     1     -35.847  23.998   2.170  0.00  0.00    +0.036 C 
ATOM     18  C   UNL     1     -31.709  22.304  -0.885  0.00  0.00    +0.032 C 
ATOM     19  C   UNL     1     -35.590  22.922   4.294  0.00  0.00    +0.109 C 
ATOM     20  C   UNL     1     -35.860  25.239   4.450  0.00  0.00    +0.218 C 
ATOM     21  C   UNL     1     -35.539  23.277   5.703  0.00  0.00    +0.344 C 
ENDROOT
BRANCH   8  22
ATOM     22  O   UNL     1     -35.455  22.821  -4.029  0.00  0.00    -0.384 OA
ATOM     23  H   UNL     1     -36.287  23.304  -4.155  0.00  0.00    +0.210 HD
ENDBRANCH   8  22
BRANCH  15  24
ATOM     24  O   UNL     1     -35.300  20.564   4.491  0.00  0.00    -0.506 OA
ATOM     25  H   UNL     1     -35.353  19.710   4.106  0.00  0.00    +0.292 HD
ENDBRANCH  15  24
BRANCH  20  26
ATOM     26  C   UNL     1     -34.762  26.269   4.240  0.00  0.00    +0.155 C 
ATOM     27  C   UNL     1     -33.855  26.388   5.456  0.00  0.00    +0.036 C 
BRANCH  26  28
ATOM     28  O   UNL     1     -35.352  27.538   3.972  0.00  0.00    -0.380 OA
ATOM     29  H   UNL     1     -34.655  28.183   3.773  0.00  0.00    +0.211 HD
ENDBRANCH  26  28
ENDBRANCH  20  26
TORSDOF 4
ENDMDL
MODEL 4
REMARK VINA RESULT:      -6.3      3.734      6.505
REMARK  Name = 53307010
REMARK  4 active torsions:
REMARK  status: ('A' for Active; 'I' for Inactive)
REMARK    1  A    between atoms: C_8  and  O_22
REMARK    2  A    between atoms: C_15  and  O_24
REMARK    3  A    between atoms: C_20  and  C_26
REMARK    4  A    between atoms: C_26  and  O_28
REMARK                            x       y       z     vdW  Elec       q    Type
REMARK                         _______ _______ _______ _____ _____    ______ ____
ROOT
ATOM      1  O   UNL     1     -31.582  27.998   2.373  0.00  0.00    -0.327 OA
ATOM      2  O   UNL     1     -32.385  27.503   4.581  0.00  0.00    -0.459 OA
ATOM      3  O   UNL     1     -36.934  23.769   4.707  0.00  0.00    -0.442 OA
ATOM      4  O   UNL     1     -38.222  25.048   3.271  0.00  0.00    -0.245 OA
ATOM      5  C   UNL     1     -31.949  28.529   3.660  0.00  0.00    +0.231 C 
ATOM      6  C   UNL     1     -33.094  29.560   3.462  0.00  0.00    +0.069 C 
ATOM      7  C   UNL     1     -30.711  29.185   4.302  0.00  0.00    +0.099 C 
ATOM      8  C   UNL     1     -29.543  28.202   4.389  0.00  0.00    +0.119 C 
ATOM      9  C   UNL     1     -34.307  28.852   2.834  0.00  0.00    +0.039 C 
ATOM     10  C   UNL     1     -30.538  27.020   2.413  0.00  0.00    +0.121 C 
ATOM     11  C   UNL     1     -29.264  27.613   3.010  0.00  0.00    +0.059 C 
ATOM     12  C   UNL     1     -34.581  27.541   3.512  0.00  0.00    +0.046 C 
ATOM     13  C   UNL     1     -33.610  26.941   4.335  0.00  0.00    +0.140 C 
ATOM     14  C   UNL     1     -32.722  30.764   2.592  0.00  0.00    +0.007 C 
ATOM     15  C   UNL     1     -35.809  26.898   3.306  0.00  0.00    +0.139 C 
ATOM     16  C   UNL     1     -35.084  25.109   4.772  0.00  0.00    +0.032 C 
ATOM     17  C   UNL     1     -33.865  25.725   4.983  0.00  0.00    +0.036 C 
ATOM     18  C   UNL     1     -30.301  26.543   0.987  0.00  0.00    +0.032 C 
ATOM     19  C   UNL     1     -36.025  25.694   3.950  0.00  0.00    +0.109 C 
ATOM     20  C   UNL     1     -35.617  23.840   5.317  0.00  0.00    +0.218 C 
ATOM     21  C   UNL     1     -37.204  24.843   3.901  0.00  0.00    +0.344 C 
ENDROOT
BRANCH   8  22
ATOM     22  O   UNL     1     -28.393  28.892   4.864  0.00  0.00    -0.384 OA
ATOM     23  H   UNL     1     -27.849  29.170   4.111  0.00  0.00    +0.210 HD
ENDBRANCH   8  22
BRANCH  15  24
ATOM     24  O   UNL     1     -36.761  27.437   2.501  0.00  0.00    -0.506 OA
ATOM     25  H   UNL     1     -37.341  26.878   2.021  0.00  0.00    +0.292 HD
ENDBRANCH  15  24
BRANCH  20  26
ATOM     26  C   UNL     1     -34.819  22.611   4.916  0.00  0.00    +0.155 C 
ATOM     27  C   UNL     1     -35.508  21.822   3.812  0.00  0.00    +0.036 C 
BRANCH  26  28
ATOM     28  O   UNL     1     -34.648  21.770   6.053  0.00  0.00    -0.380 OA
ATOM     29  H   UNL     1     -35.365  21.932   6.686  0.00  0.00    +0.211 HD
ENDBRANCH  26  28
ENDBRANCH  20  26
TORSDOF 4
ENDMDL
MODEL 5
REMARK VINA RESULT:      -6.2      1.933      6.621
REMARK  Name = 53307010
REMARK  4 active torsions:
REMARK  status: ('A' for Active; 'I' for Inactive)
REMARK    1  A    between atoms: C_8  and  O_22
REMARK    2  A    between atoms: C_15  and  O_24
REMARK    3  A    between atoms: C_20  and  C_26
REMARK    4  A    between atoms: C_26  and  O_28
REMARK                            x       y       z     vdW  Elec       q    Type
REMARK                         _______ _______ _______ _____ _____    ______ ____
ROOT
ATOM      1  O   UNL     1     -39.605  26.804   1.379  0.00  0.00    -0.327 OA
ATOM      2  O   UNL     1     -37.864  25.300   0.689  0.00  0.00    -0.459 OA
ATOM      3  O   UNL     1     -33.953  24.050   4.907  0.00  0.00    -0.442 OA
ATOM      4  O   UNL     1     -33.459  26.272   5.323  0.00  0.00    -0.245 OA
ATOM      5  C   UNL     1     -38.648  26.470   0.356  0.00  0.00    +0.231 C 
ATOM      6  C   UNL     1     -37.698  27.682   0.152  0.00  0.00    +0.069 C 
ATOM      7  C   UNL     1     -39.403  26.126  -0.943  0.00  0.00    +0.099 C 
ATOM      8  C   UNL     1     -40.425  25.011  -0.713  0.00  0.00    +0.119 C 
ATOM      9  C   UNL     1     -36.960  27.972   1.469  0.00  0.00    +0.039 C 
ATOM     10  C   UNL     1     -40.540  25.762   1.678  0.00  0.00    +0.121 C 
ATOM     11  C   UNL     1     -41.350  25.391   0.438  0.00  0.00    +0.059 C 
ATOM     12  C   UNL     1     -36.446  26.708   2.093  0.00  0.00    +0.046 C 
ATOM     13  C   UNL     1     -36.929  25.453   1.677  0.00  0.00    +0.140 C 
ATOM     14  C   UNL     1     -38.394  28.963  -0.316  0.00  0.00    +0.007 C 
ATOM     15  C   UNL     1     -35.491  26.780   3.117  0.00  0.00    +0.139 C 
ATOM     16  C   UNL     1     -35.495  24.359   3.248  0.00  0.00    +0.032 C 
ATOM     17  C   UNL     1     -36.442  24.269   2.245  0.00  0.00    +0.036 C 
ATOM     18  C   UNL     1     -41.446  26.265   2.792  0.00  0.00    +0.032 C 
ATOM     19  C   UNL     1     -35.039  25.593   3.664  0.00  0.00    +0.109 C 
ATOM     20  C   UNL     1     -34.815  23.292   4.016  0.00  0.00    +0.218 C 
ATOM     21  C   UNL     1     -34.061  25.403   4.723  0.00  0.00    +0.344 C 
ENDROOT
BRANCH   8  22
ATOM     22  O   UNL     1     -41.181  24.825  -1.903  0.00  0.00    -0.384 OA
ATOM     23  H   UNL     1     -42.055  25.232  -1.798  0.00  0.00    +0.210 HD
ENDBRANCH   8  22
BRANCH  15  24
ATOM     24  O   UNL     1     -35.019  27.974   3.559  0.00  0.00    -0.506 OA
ATOM     25  H   UNL     1     -35.182  28.755   3.065  0.00  0.00    +0.292 HD
ENDBRANCH  15  24
BRANCH  20  26
ATOM     26  C   UNL     1     -35.754  22.434   4.847  0.00  0.00    +0.155 C 
ATOM     27  C   UNL     1     -35.251  22.259   6.273  0.00  0.00    +0.036 C 
BRANCH  26  28
ATOM     28  O   UNL     1     -35.884  21.152   4.239  0.00  0.00    -0.380 OA
ATOM     29  H   UNL     1     -36.782  20.816   4.382  0.00  0.00    +0.211 HD
ENDBRANCH  26  28
ENDBRANCH  20  26
TORSDOF 4
ENDMDL
MODEL 6
REMARK VINA RESULT:      -6.2      2.598      6.882
REMARK  Name = 53307010
REMARK  4 active torsions:
REMARK  status: ('A' for Active; 'I' for Inactive)
REMARK    1  A    between atoms: C_8  and  O_22
REMARK    2  A    between atoms: C_15  and  O_24
REMARK    3  A    between atoms: C_20  and  C_26
REMARK    4  A    between atoms: C_26  and  O_28
REMARK                            x       y       z     vdW  Elec       q    Type
REMARK                         _______ _______ _______ _____ _____    ______ ____
ROOT
ATOM      1  O   UNL     1     -37.134  23.025  -0.861  0.00  0.00    -0.327 OA
ATOM      2  O   UNL     1     -38.317  23.848   1.061  0.00  0.00    -0.459 OA
ATOM      3  O   UNL     1     -35.134  23.881   6.012  0.00  0.00    -0.442 OA
ATOM      4  O   UNL     1     -34.596  21.636   5.864  0.00  0.00    -0.245 OA
ATOM      5  C   UNL     1     -38.359  22.992  -0.104  0.00  0.00    +0.231 C 
ATOM      6  C   UNL     1     -38.623  21.529   0.345  0.00  0.00    +0.069 C 
ATOM      7  C   UNL     1     -39.507  23.522  -0.986  0.00  0.00    +0.099 C 
ATOM      8  C   UNL     1     -39.193  24.918  -1.526  0.00  0.00    +0.119 C 
ATOM      9  C   UNL     1     -37.459  21.056   1.232  0.00  0.00    +0.039 C 
ATOM     10  C   UNL     1     -36.764  24.327  -1.329  0.00  0.00    +0.121 C 
ATOM     11  C   UNL     1     -37.846  24.902  -2.239  0.00  0.00    +0.059 C 
ATOM     12  C   UNL     1     -37.089  22.100   2.244  0.00  0.00    +0.046 C 
ATOM     13  C   UNL     1     -37.528  23.429   2.099  0.00  0.00    +0.140 C 
ATOM     14  C   UNL     1     -38.803  20.533  -0.804  0.00  0.00    +0.007 C 
ATOM     15  C   UNL     1     -36.279  21.752   3.333  0.00  0.00    +0.139 C 
ATOM     16  C   UNL     1     -36.404  24.042   4.119  0.00  0.00    +0.032 C 
ATOM     17  C   UNL     1     -37.199  24.406   3.048  0.00  0.00    +0.036 C 
ATOM     18  C   UNL     1     -35.442  24.188  -2.071  0.00  0.00    +0.032 C 
ATOM     19  C   UNL     1     -35.962  22.742   4.246  0.00  0.00    +0.109 C 
ATOM     20  C   UNL     1     -35.907  24.851   5.254  0.00  0.00    +0.218 C 
ATOM     21  C   UNL     1     -35.149  22.634   5.447  0.00  0.00    +0.344 C 
ENDROOT
BRANCH   8  22
ATOM     22  O   UNL     1     -40.219  25.302  -2.434  0.00  0.00    -0.384 OA
ATOM     23  H   UNL     1     -40.820  25.926  -1.999  0.00  0.00    +0.210 HD
ENDBRANCH   8  22
BRANCH  15  24
ATOM     24  O   UNL     1     -35.818  20.484   3.493  0.00  0.00    -0.506 OA
ATOM     25  H   UNL     1     -36.374  19.827   3.866  0.00  0.00    +0.292 HD
ENDBRANCH  15  24
BRANCH  20  26
ATOM     26  C   UNL     1     -34.997  25.998   4.845  0.00  0.00    +0.155 C 
ATOM     27  C   UNL     1     -33.909  26.256   5.878  0.00  0.00    +0.036 C 
BRANCH  26  28
ATOM     28  O   UNL     1     -35.774  27.180   4.682  0.00  0.00    -0.380 OA
ATOM     29  H   UNL     1     -36.685  27.012   4.972  0.00  0.00    +0.211 HD
ENDBRANCH  26  28
ENDBRANCH  20  26
TORSDOF 4
ENDMDL
MODEL 7
REMARK VINA RESULT:      -6.2      3.222      6.101
REMARK  Name = 53307010
REMARK  4 active torsions:
REMARK  status: ('A' for Active; 'I' for Inactive)
REMARK    1  A    between atoms: C_8  and  O_22
REMARK    2  A    between atoms: C_15  and  O_24
REMARK    3  A    between atoms: C_20  and  C_26
REMARK    4  A    between atoms: C_26  and  O_28
REMARK                            x       y       z     vdW  Elec       q    Type
REMARK                         _______ _______ _______ _____ _____    ______ ____
ROOT
ATOM      1  O   UNL     1     -36.386  24.499   3.827  0.00  0.00    -0.327 OA
ATOM      2  O   UNL     1     -34.469  23.777   2.574  0.00  0.00    -0.459 OA
ATOM      3  O   UNL     1     -35.700  19.921  -1.701  0.00  0.00    -0.442 OA
ATOM      4  O   UNL     1     -36.767  18.445  -0.274  0.00  0.00    -0.245 OA
ATOM      5  C   UNL     1     -35.022  24.039   3.884  0.00  0.00    +0.231 C 
ATOM      6  C   UNL     1     -34.974  22.738   4.731  0.00  0.00    +0.069 C 
ATOM      7  C   UNL     1     -34.148  25.145   4.507  0.00  0.00    +0.099 C 
ATOM      8  C   UNL     1     -34.288  26.462   3.741  0.00  0.00    +0.119 C 
ATOM      9  C   UNL     1     -35.848  21.666   4.059  0.00  0.00    +0.039 C 
ATOM     10  C   UNL     1     -36.576  25.693   3.061  0.00  0.00    +0.121 C 
ATOM     11  C   UNL     1     -35.760  26.844   3.643  0.00  0.00    +0.059 C 
ATOM     12  C   UNL     1     -35.601  21.613   2.580  0.00  0.00    +0.046 C 
ATOM     13  C   UNL     1     -34.937  22.666   1.924  0.00  0.00    +0.140 C 
ATOM     14  C   UNL     1     -35.429  22.907   6.183  0.00  0.00    +0.007 C 
ATOM     15  C   UNL     1     -36.056  20.512   1.841  0.00  0.00    +0.139 C 
ATOM     16  C   UNL     1     -35.140  21.519  -0.165  0.00  0.00    +0.032 C 
ATOM     17  C   UNL     1     -34.690  22.616   0.546  0.00  0.00    +0.036 C 
ATOM     18  C   UNL     1     -38.064  26.015   3.075  0.00  0.00    +0.032 C 
ATOM     19  C   UNL     1     -35.806  20.498   0.481  0.00  0.00    +0.109 C 
ATOM     20  C   UNL     1     -35.023  21.204  -1.606  0.00  0.00    +0.218 C 
ATOM     21  C   UNL     1     -36.169  19.480  -0.492  0.00  0.00    +0.344 C 
ENDROOT
BRANCH   8  22
ATOM     22  O   UNL     1     -33.568  27.476   4.432  0.00  0.00    -0.384 OA
ATOM     23  H   UNL     1     -34.059  27.739   5.225  0.00  0.00    +0.210 HD
ENDBRANCH   8  22
BRANCH  15  24
ATOM     24  O   UNL     1     -36.719  19.488   2.438  0.00  0.00    -0.506 OA
ATOM     25  H   UNL     1     -37.354  19.666   3.105  0.00  0.00    +0.292 HD
ENDBRANCH  15  24
BRANCH  20  26
ATOM     26  C   UNL     1     -35.721  22.200  -2.516  0.00  0.00    +0.155 C 
ATOM     27  C   UNL     1     -36.461  21.510  -3.653  0.00  0.00    +0.036 C 
BRANCH  26  28
ATOM     28  O   UNL     1     -34.756  23.095  -3.064  0.00  0.00    -0.380 OA
ATOM     29  H   UNL     1     -34.568  23.799  -2.424  0.00  0.00    +0.211 HD
ENDBRANCH  26  28
ENDBRANCH  20  26
TORSDOF 4
ENDMDL
MODEL 8
REMARK VINA RESULT:      -6.1      3.164      6.959
REMARK  Name = 53307010
REMARK  4 active torsions:
REMARK  status: ('A' for Active; 'I' for Inactive)
REMARK    1  A    between atoms: C_8  and  O_22
REMARK    2  A    between atoms: C_15  and  O_24
REMARK    3  A    between atoms: C_20  and  C_26
REMARK    4  A    between atoms: C_26  and  O_28
REMARK                            x       y       z     vdW  Elec       q    Type
REMARK                         _______ _______ _______ _____ _____    ______ ____
ROOT
ATOM      1  O   UNL     1     -37.188  24.662   1.651  0.00  0.00    -0.327 OA
ATOM      2  O   UNL     1     -36.422  22.911   3.107  0.00  0.00    -0.459 OA
ATOM      3  O   UNL     1     -34.367  18.167   0.292  0.00  0.00    -0.442 OA
ATOM      4  O   UNL     1     -36.300  17.874  -0.946  0.00  0.00    -0.245 OA
ATOM      5  C   UNL     1     -37.462  23.877   2.828  0.00  0.00    +0.231 C 
ATOM      6  C   UNL     1     -38.810  23.133   2.623  0.00  0.00    +0.069 C 
ATOM      7  C   UNL     1     -37.520  24.813   4.051  0.00  0.00    +0.099 C 
ATOM      8  C   UNL     1     -36.236  25.633   4.184  0.00  0.00    +0.119 C 
ATOM      9  C   UNL     1     -38.694  22.204   1.403  0.00  0.00    +0.039 C 
ATOM     10  C   UNL     1     -35.959  25.394   1.702  0.00  0.00    +0.121 C 
ATOM     11  C   UNL     1     -35.959  26.369   2.877  0.00  0.00    +0.059 C 
ATOM     12  C   UNL     1     -37.404  21.436   1.427  0.00  0.00    +0.046 C 
ATOM     13  C   UNL     1     -36.346  21.834   2.265  0.00  0.00    +0.140 C 
ATOM     14  C   UNL     1     -40.021  24.051   2.430  0.00  0.00    +0.007 C 
ATOM     15  C   UNL     1     -37.245  20.324   0.588  0.00  0.00    +0.139 C 
ATOM     16  C   UNL     1     -35.010  20.015   1.474  0.00  0.00    +0.032 C 
ATOM     17  C   UNL     1     -35.146  21.113   2.303  0.00  0.00    +0.036 C 
ATOM     18  C   UNL     1     -35.810  26.132   0.380  0.00  0.00    +0.032 C 
ATOM     19  C   UNL     1     -36.044  19.640   0.642  0.00  0.00    +0.109 C 
ATOM     20  C   UNL     1     -33.872  19.083   1.306  0.00  0.00    +0.218 C 
ATOM     21  C   UNL     1     -35.639  18.468  -0.117  0.00  0.00    +0.344 C 
ENDROOT
BRANCH   8  22
ATOM     22  O   UNL     1     -36.395  26.569   5.244  0.00  0.00    -0.384 OA
ATOM     23  H   UNL     1     -35.598  27.119   5.312  0.00  0.00    +0.210 HD
ENDBRANCH   8  22
BRANCH  15  24
ATOM     24  O   UNL     1     -38.237  19.925  -0.249  0.00  0.00    -0.506 OA
ATOM     25  H   UNL     1     -38.038  19.703  -1.139  0.00  0.00    +0.292 HD
ENDBRANCH  15  24
BRANCH  20  26
ATOM     26  C   UNL     1     -32.601  19.742   0.800  0.00  0.00    +0.155 C 
ATOM     27  C   UNL     1     -32.765  20.283  -0.613  0.00  0.00    +0.036 C 
BRANCH  26  28
ATOM     28  O   UNL     1     -31.539  18.792   0.815  0.00  0.00    -0.380 OA
ATOM     29  H   UNL     1     -30.996  18.927   1.607  0.00  0.00    +0.211 HD
ENDBRANCH  26  28
ENDBRANCH  20  26
TORSDOF 4
ENDMDL
MODEL 9
REMARK VINA RESULT:      -6.1      3.854      5.893
REMARK  Name = 53307010
REMARK  4 active torsions:
REMARK  status: ('A' for Active; 'I' for Inactive)
REMARK    1  A    between atoms: C_8  and  O_22
REMARK    2  A    between atoms: C_15  and  O_24
REMARK    3  A    between atoms: C_20  and  C_26
REMARK    4  A    between atoms: C_26  and  O_28
REMARK                            x       y       z     vdW  Elec       q    Type
REMARK                         _______ _______ _______ _____ _____    ______ ____
ROOT
ATOM      1  O   UNL     1     -34.030  18.933  -1.288  0.00  0.00    -0.327 OA
ATOM      2  O   UNL     1     -34.863  18.934   0.965  0.00  0.00    -0.459 OA
ATOM      3  O   UNL     1     -37.903  23.765   2.403  0.00  0.00    -0.442 OA
ATOM      4  O   UNL     1     -36.194  25.206   1.805  0.00  0.00    -0.245 OA
ATOM      5  C   UNL     1     -33.735  18.674   0.098  0.00  0.00    +0.231 C 
ATOM      6  C   UNL     1     -32.543  19.573   0.526  0.00  0.00    +0.069 C 
ATOM      7  C   UNL     1     -33.397  17.180   0.267  0.00  0.00    +0.099 C 
ATOM      8  C   UNL     1     -34.524  16.292  -0.264  0.00  0.00    +0.119 C 
ATOM      9  C   UNL     1     -32.937  21.050   0.352  0.00  0.00    +0.039 C 
ATOM     10  C   UNL     1     -35.125  18.173  -1.811  0.00  0.00    +0.121 C 
ATOM     11  C   UNL     1     -34.844  16.676  -1.705  0.00  0.00    +0.059 C 
ATOM     12  C   UNL     1     -34.312  21.312   0.894  0.00  0.00    +0.046 C 
ATOM     13  C   UNL     1     -35.194  20.248   1.160  0.00  0.00    +0.140 C 
ATOM     14  C   UNL     1     -31.244  19.316  -0.243  0.00  0.00    +0.007 C 
ATOM     15  C   UNL     1     -34.729  22.632   1.116  0.00  0.00    +0.139 C 
ATOM     16  C   UNL     1     -36.864  21.793   1.899  0.00  0.00    +0.032 C 
ATOM     17  C   UNL     1     -36.473  20.485   1.680  0.00  0.00    +0.036 C 
ATOM     18  C   UNL     1     -35.321  18.591  -3.261  0.00  0.00    +0.032 C 
ATOM     19  C   UNL     1     -36.001  22.832   1.619  0.00  0.00    +0.109 C 
ATOM     20  C   UNL     1     -38.136  22.331   2.430  0.00  0.00    +0.218 C 
ATOM     21  C   UNL     1     -36.659  24.091   1.933  0.00  0.00    +0.344 C 
ENDROOT
BRANCH   8  22
ATOM     22  O   UNL     1     -34.107  14.933  -0.205  0.00  0.00    -0.384 OA
ATOM     23  H   UNL     1     -33.166  14.893   0.028  0.00  0.00    +0.210 HD
ENDBRANCH   8  22
BRANCH  15  24
ATOM     24  O   UNL     1     -33.912  23.684   0.849  0.00  0.00    -0.506 OA
ATOM     25  H   UNL     1     -33.436  23.715   0.041  0.00  0.00    +0.292 HD
ENDBRANCH  15  24
BRANCH  20  26
ATOM     26  C   UNL     1     -39.350  22.011   1.574  0.00  0.00    +0.155 C 
ATOM     27  C   UNL     1     -40.203  23.244   1.314  0.00  0.00    +0.036 C 
BRANCH  26  28
ATOM     28  O   UNL     1     -40.143  21.026   2.231  0.00  0.00    -0.380 OA
ATOM     29  H   UNL     1     -40.828  21.462   2.761  0.00  0.00    +0.211 HD
ENDBRANCH  26  28
ENDBRANCH  20  26
TORSDOF 4
ENDMDL
