MODEL 1
REMARK VINA RESULT:      -6.5      0.000      0.000
REMARK  Name = 5746
REMARK  5 active torsions:
REMARK  status: ('A' for Active; 'I' for Inactive)
REMARK    1  A    between atoms: C_6  and  O_22
REMARK    2  A    between atoms: C_9  and  C_24
REMARK    3  A    between atoms: C_15  and  N_19
REMARK    4  A    between atoms: C_24  and  O_25
REMARK    5  A    between atoms: O_25  and  C_28
REMARK                            x       y       z     vdW  Elec       q    Type
REMARK                         _______ _______ _______ _____ _____    ______ ____
ROOT
ATOM      1  O   UNL     1     -39.065  26.313   3.136  0.00  0.00    -0.286 OA
ATOM      2  O   UNL     1     -38.457  21.146   1.897  0.00  0.00    -0.286 OA
ATOM      3  N   UNL     1     -34.115  24.968   3.044  0.00  0.00    +0.388 N 
ATOM      4  N   UNL     1     -36.789  24.789   4.119  0.00  0.00    -0.290 N 
ATOM      5  C   UNL     1     -34.504  24.267   4.266  0.00  0.00    -0.036 C 
ATOM      6  C   UNL     1     -35.870  23.682   4.467  0.00  0.00    +0.141 C 
ATOM      7  C   UNL     1     -34.671  25.749   4.135  0.00  0.00    -0.057 C 
ATOM      8  C   UNL     1     -36.133  26.091   4.121  0.00  0.00    +0.070 C 
ATOM      9  C   UNL     1     -36.356  22.496   3.573  0.00  0.00    +0.111 C 
ATOM     10  C   UNL     1     -37.795  24.338   3.299  0.00  0.00    +0.088 C 
ATOM     11  C   UNL     1     -37.632  23.056   2.977  0.00  0.00    +0.042 C 
ATOM     12  C   UNL     1     -38.922  25.139   2.813  0.00  0.00    +0.206 C 
ATOM     13  C   UNL     1     -38.596  22.341   2.138  0.00  0.00    +0.206 C 
ATOM     14  C   UNL     1     -39.896  24.437   1.913  0.00  0.00    +0.034 C 
ATOM     15  C   UNL     1     -39.753  23.132   1.596  0.00  0.00    +0.080 C 
ATOM     16  C   UNL     1     -41.017  25.314   1.423  0.00  0.00    +0.036 C 
ATOM     17  H   UNL     1     -34.657  24.835   2.191  0.00  0.00    -0.084 HD
ATOM     18  H   UNL     1     -33.255  25.021   2.498  0.00  0.00    -0.084 HD
ENDROOT
BRANCH  15  19
ATOM     19  N   UNL     1     -40.587  22.404   0.792  0.00  0.00    -0.355 N 
ATOM     20  H   UNL     1     -41.358  21.931   1.181  0.00  0.00    +0.142 HD
ATOM     21  H   UNL     1     -40.417  22.354  -0.177  0.00  0.00    +0.142 HD
ENDBRANCH  15  19
BRANCH   6  22
ATOM     22  O   UNL     1     -36.037  23.340   5.843  0.00  0.00    -0.341 OA
ATOM     23  C   UNL     1     -35.271  22.195   6.187  0.00  0.00    +0.176 C 
ENDBRANCH   6  22
BRANCH   9  24
ATOM     24  C   UNL     1     -35.376  22.027   2.503  0.00  0.00    +0.218 C 
BRANCH  24  25
ATOM     25  O   UNL     1     -35.163  20.635   2.665  0.00  0.00    -0.434 OA
BRANCH  25  28
ATOM     26  O   UNL     1     -33.934  19.855   0.881  0.00  0.00    -0.227 OA
ATOM     27  N   UNL     1     -36.135  19.251   1.164  0.00  0.00    -0.295 N 
ATOM     28  C   UNL     1     -34.983  19.911   1.515  0.00  0.00    +0.398 C 
ATOM     29  H   UNL     1     -36.942  19.339   1.720  0.00  0.00    +0.148 HD
ATOM     30  H   UNL     1     -36.152  18.688   0.356  0.00  0.00    +0.148 HD
ENDBRANCH  25  28
ENDBRANCH  24  25
ENDBRANCH   9  24
TORSDOF 5
ENDMDL
MODEL 2
REMARK VINA RESULT:      -6.0      2.617      5.360
REMARK  Name = 5746
REMARK  5 active torsions:
REMARK  status: ('A' for Active; 'I' for Inactive)
REMARK    1  A    between atoms: C_6  and  O_22
REMARK    2  A    between atoms: C_9  and  C_24
REMARK    3  A    between atoms: C_15  and  N_19
REMARK    4  A    between atoms: C_24  and  O_25
REMARK    5  A    between atoms: O_25  and  C_28
REMARK                            x       y       z     vdW  Elec       q    Type
REMARK                         _______ _______ _______ _____ _____    ______ ____
ROOT
ATOM      1  O   UNL     1     -36.676  28.796   1.483  0.00  0.00    -0.286 OA
ATOM      2  O   UNL     1     -32.904  26.206   4.254  0.00  0.00    -0.286 OA
ATOM      3  N   UNL     1     -38.622  24.781   4.016  0.00  0.00    +0.388 N 
ATOM      4  N   UNL     1     -36.894  25.944   2.016  0.00  0.00    -0.290 N 
ATOM      5  C   UNL     1     -37.878  24.049   2.993  0.00  0.00    -0.036 C 
ATOM      6  C   UNL     1     -36.590  24.549   2.410  0.00  0.00    +0.141 C 
ATOM      7  C   UNL     1     -38.945  25.031   2.622  0.00  0.00    -0.057 C 
ATOM      8  C   UNL     1     -38.324  26.207   1.925  0.00  0.00    +0.070 C 
ATOM      9  C   UNL     1     -35.319  24.683   3.310  0.00  0.00    +0.111 C 
ATOM     10  C   UNL     1     -35.891  26.788   2.428  0.00  0.00    +0.088 C 
ATOM     11  C   UNL     1     -34.962  26.145   3.133  0.00  0.00    +0.042 C 
ATOM     12  C   UNL     1     -35.819  28.225   2.151  0.00  0.00    +0.206 C 
ATOM     13  C   UNL     1     -33.775  26.827   3.653  0.00  0.00    +0.206 C 
ATOM     14  C   UNL     1     -34.635  28.952   2.716  0.00  0.00    +0.034 C 
ATOM     15  C   UNL     1     -33.676  28.307   3.415  0.00  0.00    +0.080 C 
ATOM     16  C   UNL     1     -34.627  30.429   2.423  0.00  0.00    +0.036 C 
ATOM     17  H   UNL     1     -38.153  25.503   4.562  0.00  0.00    -0.084 HD
ATOM     18  H   UNL     1     -39.166  24.506   4.834  0.00  0.00    -0.084 HD
ENDROOT
BRANCH  15  19
ATOM     19  N   UNL     1     -32.559  28.878   3.962  0.00  0.00    -0.355 N 
ATOM     20  H   UNL     1     -31.985  29.462   3.416  0.00  0.00    +0.142 HD
ATOM     21  H   UNL     1     -32.330  28.704   4.904  0.00  0.00    +0.142 HD
ENDBRANCH  15  19
BRANCH   6  22
ATOM     22  O   UNL     1     -36.272  23.784   1.247  0.00  0.00    -0.341 OA
ATOM     23  C   UNL     1     -36.354  22.391   1.508  0.00  0.00    +0.176 C 
ENDBRANCH   6  22
BRANCH   9  24
ATOM     24  C   UNL     1     -35.503  24.306   4.776  0.00  0.00    +0.218 C 
BRANCH  24  25
ATOM     25  O   UNL     1     -34.658  23.207   5.069  0.00  0.00    -0.434 OA
BRANCH  25  28
ATOM     26  O   UNL     1     -35.156  21.013   4.581  0.00  0.00    -0.227 OA
ATOM     27  N   UNL     1     -36.063  22.057   6.418  0.00  0.00    -0.295 N 
ATOM     28  C   UNL     1     -35.279  22.005   5.291  0.00  0.00    +0.398 C 
ATOM     29  H   UNL     1     -36.115  22.888   6.943  0.00  0.00    +0.148 HD
ATOM     30  H   UNL     1     -36.571  21.262   6.701  0.00  0.00    +0.148 HD
ENDBRANCH  25  28
ENDBRANCH  24  25
ENDBRANCH   9  24
TORSDOF 5
ENDMDL
MODEL 3
REMARK VINA RESULT:      -5.9      3.940      7.162
REMARK  Name = 5746
REMARK  5 active torsions:
REMARK  status: ('A' for Active; 'I' for Inactive)
REMARK    1  A    between atoms: C_6  and  O_22
REMARK    2  A    between atoms: C_9  and  C_24
REMARK    3  A    between atoms: C_15  and  N_19
REMARK    4  A    between atoms: C_24  and  O_25
REMARK    5  A    between atoms: O_25  and  C_28
REMARK                            x       y       z     vdW  Elec       q    Type
REMARK                         _______ _______ _______ _____ _____    ______ ____
ROOT
ATOM      1  O   UNL     1     -32.325  30.356   2.843  0.00  0.00    -0.286 OA
ATOM      2  O   UNL     1     -32.505  26.856   6.884  0.00  0.00    -0.286 OA
ATOM      3  N   UNL     1     -36.494  27.379   2.571  0.00  0.00    +0.388 N 
ATOM      4  N   UNL     1     -33.634  27.775   2.539  0.00  0.00    -0.290 N 
ATOM      5  C   UNL     1     -35.492  26.378   2.211  0.00  0.00    -0.036 C 
ATOM      6  C   UNL     1     -34.098  26.387   2.763  0.00  0.00    +0.141 C 
ATOM      7  C   UNL     1     -35.661  27.629   1.408  0.00  0.00    -0.057 C 
ATOM      8  C   UNL     1     -34.438  28.488   1.554  0.00  0.00    +0.070 C 
ATOM      9  C   UNL     1     -33.856  26.154   4.289  0.00  0.00    +0.111 C 
ATOM     10  C   UNL     1     -33.029  28.268   3.670  0.00  0.00    +0.088 C 
ATOM     11  C   UNL     1     -33.091  27.402   4.680  0.00  0.00    +0.042 C 
ATOM     12  C   UNL     1     -32.388  29.580   3.791  0.00  0.00    +0.206 C 
ATOM     13  C   UNL     1     -32.484  27.688   5.982  0.00  0.00    +0.206 C 
ATOM     14  C   UNL     1     -31.803  29.912   5.132  0.00  0.00    +0.034 C 
ATOM     15  C   UNL     1     -31.841  29.034   6.158  0.00  0.00    +0.080 C 
ATOM     16  C   UNL     1     -31.182  31.282   5.206  0.00  0.00    +0.036 C 
ATOM     17  H   UNL     1     -36.368  27.940   3.413  0.00  0.00    -0.084 HD
ATOM     18  H   UNL     1     -37.501  27.352   2.732  0.00  0.00    -0.084 HD
ENDROOT
BRANCH  15  19
ATOM     19  N   UNL     1     -31.332  29.240   7.411  0.00  0.00    -0.355 N 
ATOM     20  H   UNL     1     -31.935  29.284   8.188  0.00  0.00    +0.142 HD
ATOM     21  H   UNL     1     -30.360  29.344   7.536  0.00  0.00    +0.142 HD
ENDBRANCH  15  19
BRANCH   6  22
ATOM     22  O   UNL     1     -33.287  25.486   2.009  0.00  0.00    -0.341 OA
ATOM     23  C   UNL     1     -34.046  24.386   1.531  0.00  0.00    +0.176 C 
ENDBRANCH   6  22
BRANCH   9  24
ATOM     24  C   UNL     1     -35.108  25.955   5.137  0.00  0.00    +0.218 C 
BRANCH  24  25
ATOM     25  O   UNL     1     -35.151  24.606   5.569  0.00  0.00    -0.434 OA
BRANCH  25  28
ATOM     26  O   UNL     1     -37.089  24.263   4.375  0.00  0.00    -0.227 OA
ATOM     27  N   UNL     1     -36.013  22.521   5.422  0.00  0.00    -0.295 N 
ATOM     28  C   UNL     1     -36.166  23.837   5.061  0.00  0.00    +0.398 C 
ATOM     29  H   UNL     1     -35.246  22.248   5.975  0.00  0.00    +0.148 HD
ATOM     30  H   UNL     1     -36.671  21.850   5.126  0.00  0.00    +0.148 HD
ENDBRANCH  25  28
ENDBRANCH  24  25
ENDBRANCH   9  24
TORSDOF 5
ENDMDL
MODEL 4
REMARK VINA RESULT:      -5.6      2.375      3.132
REMARK  Name = 5746
REMARK  5 active torsions:
REMARK  status: ('A' for Active; 'I' for Inactive)
REMARK    1  A    between atoms: C_6  and  O_22
REMARK    2  A    between atoms: C_9  and  C_24
REMARK    3  A    between atoms: C_15  and  N_19
REMARK    4  A    between atoms: C_24  and  O_25
REMARK    5  A    between atoms: O_25  and  C_28
REMARK                            x       y       z     vdW  Elec       q    Type
REMARK                         _______ _______ _______ _____ _____    ______ ____
ROOT
ATOM      1  O   UNL     1     -37.368  27.879   0.384  0.00  0.00    -0.286 OA
ATOM      2  O   UNL     1     -39.736  24.448   3.736  0.00  0.00    -0.286 OA
ATOM      3  N   UNL     1     -34.085  24.306   2.051  0.00  0.00    +0.388 N 
ATOM      4  N   UNL     1     -35.858  26.544   2.483  0.00  0.00    -0.290 N 
ATOM      5  C   UNL     1     -34.222  25.067   3.291  0.00  0.00    -0.036 C 
ATOM      6  C   UNL     1     -35.492  25.760   3.684  0.00  0.00    +0.141 C 
ATOM      7  C   UNL     1     -33.732  25.715   2.034  0.00  0.00    -0.057 C 
ATOM      8  C   UNL     1     -34.744  26.718   1.559  0.00  0.00    +0.070 C 
ATOM      9  C   UNL     1     -36.778  24.928   3.995  0.00  0.00    +0.111 C 
ATOM     10  C   UNL     1     -37.193  26.387   2.196  0.00  0.00    +0.088 C 
ATOM     11  C   UNL     1     -37.776  25.518   3.020  0.00  0.00    +0.042 C 
ATOM     12  C   UNL     1     -37.919  27.068   1.121  0.00  0.00    +0.206 C 
ATOM     13  C   UNL     1     -39.205  25.210   2.933  0.00  0.00    +0.206 C 
ATOM     14  C   UNL     1     -39.374  26.729   0.984  0.00  0.00    +0.034 C 
ATOM     15  C   UNL     1     -39.983  25.866   1.827  0.00  0.00    +0.080 C 
ATOM     16  C   UNL     1     -40.064  27.437  -0.151  0.00  0.00    +0.036 C 
ATOM     17  H   UNL     1     -34.920  23.989   1.558  0.00  0.00    -0.084 HD
ATOM     18  H   UNL     1     -33.599  23.448   1.793  0.00  0.00    -0.084 HD
ENDROOT
BRANCH  15  19
ATOM     19  N   UNL     1     -41.300  25.499   1.789  0.00  0.00    -0.355 N 
ATOM     20  H   UNL     1     -41.939  25.886   2.431  0.00  0.00    +0.142 HD
ATOM     21  H   UNL     1     -41.610  24.847   1.119  0.00  0.00    +0.142 HD
ENDBRANCH  15  19
BRANCH   6  22
ATOM     22  O   UNL     1     -35.226  26.649   4.770  0.00  0.00    -0.341 OA
ATOM     23  C   UNL     1     -34.385  26.042   5.739  0.00  0.00    +0.176 C 
ENDBRANCH   6  22
BRANCH   9  24
ATOM     24  C   UNL     1     -36.643  23.417   3.840  0.00  0.00    +0.218 C 
BRANCH  24  25
ATOM     25  O   UNL     1     -36.283  22.865   5.095  0.00  0.00    -0.434 OA
BRANCH  25  28
ATOM     26  O   UNL     1     -35.324  21.012   4.121  0.00  0.00    -0.227 OA
ATOM     27  N   UNL     1     -34.718  21.694   6.231  0.00  0.00    -0.295 N 
ATOM     28  C   UNL     1     -35.435  21.789   5.064  0.00  0.00    +0.398 C 
ATOM     29  H   UNL     1     -34.856  22.354   6.948  0.00  0.00    +0.148 HD
ATOM     30  H   UNL     1     -34.066  20.966   6.351  0.00  0.00    +0.148 HD
ENDBRANCH  25  28
ENDBRANCH  24  25
ENDBRANCH   9  24
TORSDOF 5
ENDMDL
MODEL 5
REMARK VINA RESULT:      -5.4      1.995      4.541
REMARK  Name = 5746
REMARK  5 active torsions:
REMARK  status: ('A' for Active; 'I' for Inactive)
REMARK    1  A    between atoms: C_6  and  O_22
REMARK    2  A    between atoms: C_9  and  C_24
REMARK    3  A    between atoms: C_15  and  N_19
REMARK    4  A    between atoms: C_24  and  O_25
REMARK    5  A    between atoms: O_25  and  C_28
REMARK                            x       y       z     vdW  Elec       q    Type
REMARK                         _______ _______ _______ _____ _____    ______ ____
ROOT
ATOM      1  O   UNL     1     -40.252  22.904  -0.326  0.00  0.00    -0.286 OA
ATOM      2  O   UNL     1     -37.730  24.740   4.020  0.00  0.00    -0.286 OA
ATOM      3  N   UNL     1     -36.944  19.450   1.533  0.00  0.00    +0.388 N 
ATOM      4  N   UNL     1     -37.565  22.008   0.345  0.00  0.00    -0.290 N 
ATOM      5  C   UNL     1     -35.977  20.407   0.999  0.00  0.00    -0.036 C 
ATOM      6  C   UNL     1     -36.227  21.884   0.967  0.00  0.00    +0.141 C 
ATOM      7  C   UNL     1     -37.001  19.763   0.116  0.00  0.00    -0.057 C 
ATOM      8  C   UNL     1     -37.972  20.802  -0.367  0.00  0.00    +0.070 C 
ATOM      9  C   UNL     1     -36.359  22.688   2.301  0.00  0.00    +0.111 C 
ATOM     10  C   UNL     1     -38.346  22.887   1.056  0.00  0.00    +0.088 C 
ATOM     11  C   UNL     1     -37.723  23.329   2.147  0.00  0.00    +0.042 C 
ATOM     12  C   UNL     1     -39.702  23.308   0.694  0.00  0.00    +0.206 C 
ATOM     13  C   UNL     1     -38.341  24.304   3.049  0.00  0.00    +0.206 C 
ATOM     14  C   UNL     1     -40.371  24.269   1.631  0.00  0.00    +0.034 C 
ATOM     15  C   UNL     1     -39.743  24.742   2.729  0.00  0.00    +0.080 C 
ATOM     16  C   UNL     1     -41.771  24.647   1.224  0.00  0.00    +0.036 C 
ATOM     17  H   UNL     1     -37.687  19.775   2.152  0.00  0.00    -0.084 HD
ATOM     18  H   UNL     1     -36.868  18.585   2.068  0.00  0.00    -0.084 HD
ENDROOT
BRANCH  15  19
ATOM     19  N   UNL     1     -40.263  25.622   3.638  0.00  0.00    -0.355 N 
ATOM     20  H   UNL     1     -40.137  26.591   3.514  0.00  0.00    +0.142 HD
ATOM     21  H   UNL     1     -40.766  25.287   4.415  0.00  0.00    +0.142 HD
ENDBRANCH  15  19
BRANCH   6  22
ATOM     22  O   UNL     1     -35.254  22.509   0.129  0.00  0.00    -0.341 OA
ATOM     23  C   UNL     1     -33.955  21.991   0.374  0.00  0.00    +0.176 C 
ENDBRANCH   6  22
BRANCH   9  24
ATOM     24  C   UNL     1     -36.247  21.869   3.582  0.00  0.00    +0.218 C 
BRANCH  24  25
ATOM     25  O   UNL     1     -35.173  22.380   4.353  0.00  0.00    -0.434 OA
BRANCH  25  28
ATOM     26  O   UNL     1     -35.900  22.126   6.522  0.00  0.00    -0.227 OA
ATOM     27  N   UNL     1     -35.278  24.185   5.711  0.00  0.00    -0.295 N 
ATOM     28  C   UNL     1     -35.487  22.832   5.608  0.00  0.00    +0.398 C 
ATOM     29  H   UNL     1     -34.943  24.691   4.936  0.00  0.00    +0.148 HD
ATOM     30  H   UNL     1     -35.461  24.648   6.560  0.00  0.00    +0.148 HD
ENDBRANCH  25  28
ENDBRANCH  24  25
ENDBRANCH   9  24
TORSDOF 5
ENDMDL
MODEL 6
REMARK VINA RESULT:      -5.4      2.043      5.220
REMARK  Name = 5746
REMARK  5 active torsions:
REMARK  status: ('A' for Active; 'I' for Inactive)
REMARK    1  A    between atoms: C_6  and  O_22
REMARK    2  A    between atoms: C_9  and  C_24
REMARK    3  A    between atoms: C_15  and  N_19
REMARK    4  A    between atoms: C_24  and  O_25
REMARK    5  A    between atoms: O_25  and  C_28
REMARK                            x       y       z     vdW  Elec       q    Type
REMARK                         _______ _______ _______ _____ _____    ______ ____
ROOT
ATOM      1  O   UNL     1     -36.891  21.837  -1.184  0.00  0.00    -0.286 OA
ATOM      2  O   UNL     1     -35.151  20.633   3.729  0.00  0.00    -0.286 OA
ATOM      3  N   UNL     1     -36.536  26.020   1.766  0.00  0.00    +0.388 N 
ATOM      4  N   UNL     1     -37.662  23.441   1.119  0.00  0.00    -0.290 N 
ATOM      5  C   UNL     1     -37.696  25.404   2.407  0.00  0.00    -0.036 C 
ATOM      6  C   UNL     1     -37.878  23.919   2.503  0.00  0.00    +0.141 C 
ATOM      7  C   UNL     1     -37.711  25.760   0.953  0.00  0.00    -0.057 C 
ATOM      8  C   UNL     1     -37.770  24.505   0.129  0.00  0.00    +0.070 C 
ATOM      9  C   UNL     1     -36.890  23.059   3.355  0.00  0.00    +0.111 C 
ATOM     10  C   UNL     1     -36.831  22.346   1.113  0.00  0.00    +0.088 C 
ATOM     11  C   UNL     1     -36.384  22.059   2.335  0.00  0.00    +0.042 C 
ATOM     12  C   UNL     1     -36.455  21.568  -0.070  0.00  0.00    +0.206 C 
ATOM     13  C   UNL     1     -35.509  20.913   2.589  0.00  0.00    +0.206 C 
ATOM     14  C   UNL     1     -35.519  20.419   0.162  0.00  0.00    +0.034 C 
ATOM     15  C   UNL     1     -35.076  20.104   1.399  0.00  0.00    +0.080 C 
ATOM     16  C   UNL     1     -35.146  19.671  -1.091  0.00  0.00    +0.036 C 
ATOM     17  H   UNL     1     -35.689  25.471   1.619  0.00  0.00    -0.084 HD
ATOM     18  H   UNL     1     -35.974  26.849   1.958  0.00  0.00    -0.084 HD
ENDROOT
BRANCH  15  19
ATOM     19  N   UNL     1     -34.230  19.076   1.712  0.00  0.00    -0.355 N 
ATOM     20  H   UNL     1     -33.857  18.509   0.999  0.00  0.00    +0.142 HD
ATOM     21  H   UNL     1     -33.992  18.903   2.652  0.00  0.00    +0.142 HD
ENDBRANCH  15  19
BRANCH   6  22
ATOM     22  O   UNL     1     -39.220  23.634   2.901  0.00  0.00    -0.341 OA
ATOM     23  C   UNL     1     -39.869  24.797   3.392  0.00  0.00    +0.176 C 
ENDBRANCH   6  22
BRANCH   9  24
ATOM     24  C   UNL     1     -35.753  23.825   4.025  0.00  0.00    +0.218 C 
BRANCH  24  25
ATOM     25  O   UNL     1     -36.241  24.399   5.225  0.00  0.00    -0.434 OA
BRANCH  25  28
ATOM     26  O   UNL     1     -34.527  25.758   5.945  0.00  0.00    -0.227 OA
ATOM     27  N   UNL     1     -36.619  26.610   5.511  0.00  0.00    -0.295 N 
ATOM     28  C   UNL     1     -35.692  25.600   5.592  0.00  0.00    +0.398 C 
ATOM     29  H   UNL     1     -37.537  26.412   5.217  0.00  0.00    +0.148 HD
ATOM     30  H   UNL     1     -36.363  27.532   5.744  0.00  0.00    +0.148 HD
ENDBRANCH  25  28
ENDBRANCH  24  25
ENDBRANCH   9  24
TORSDOF 5
ENDMDL
MODEL 7
REMARK VINA RESULT:      -5.4      3.420      6.173
REMARK  Name = 5746
REMARK  5 active torsions:
REMARK  status: ('A' for Active; 'I' for Inactive)
REMARK    1  A    between atoms: C_6  and  O_22
REMARK    2  A    between atoms: C_9  and  C_24
REMARK    3  A    between atoms: C_15  and  N_19
REMARK    4  A    between atoms: C_24  and  O_25
REMARK    5  A    between atoms: O_25  and  C_28
REMARK                            x       y       z     vdW  Elec       q    Type
REMARK                         _______ _______ _______ _____ _____    ______ ____
ROOT
ATOM      1  O   UNL     1     -34.894  22.984   0.993  0.00  0.00    -0.286 OA
ATOM      2  O   UNL     1     -35.481  24.297   6.145  0.00  0.00    -0.286 OA
ATOM      3  N   UNL     1     -31.668  26.731   2.361  0.00  0.00    +0.388 N 
ATOM      4  N   UNL     1     -34.322  25.678   1.932  0.00  0.00    -0.290 N 
ATOM      5  C   UNL     1     -32.911  27.499   2.387  0.00  0.00    -0.036 C 
ATOM      6  C   UNL     1     -34.230  26.898   2.767  0.00  0.00    +0.141 C 
ATOM      7  C   UNL     1     -32.451  26.810   1.140  0.00  0.00    -0.057 C 
ATOM      8  C   UNL     1     -33.399  25.694   0.805  0.00  0.00    +0.070 C 
ATOM      9  C   UNL     1     -34.466  26.374   4.221  0.00  0.00    +0.111 C 
ATOM     10  C   UNL     1     -34.732  24.607   2.690  0.00  0.00    +0.088 C 
ATOM     11  C   UNL     1     -34.859  24.932   3.975  0.00  0.00    +0.042 C 
ATOM     12  C   UNL     1     -35.000  23.258   2.184  0.00  0.00    +0.206 C 
ATOM     13  C   UNL     1     -35.318  23.965   4.975  0.00  0.00    +0.206 C 
ATOM     14  C   UNL     1     -35.423  22.240   3.200  0.00  0.00    +0.034 C 
ATOM     15  C   UNL     1     -35.577  22.562   4.503  0.00  0.00    +0.080 C 
ATOM     16  C   UNL     1     -35.659  20.867   2.630  0.00  0.00    +0.036 C 
ATOM     17  H   UNL     1     -31.609  25.848   2.867  0.00  0.00    -0.084 HD
ATOM     18  H   UNL     1     -30.698  26.940   2.598  0.00  0.00    -0.084 HD
ENDROOT
BRANCH  15  19
ATOM     19  N   UNL     1     -35.964  21.710   5.502  0.00  0.00    -0.355 N 
ATOM     20  H   UNL     1     -36.098  20.754   5.310  0.00  0.00    +0.142 HD
ATOM     21  H   UNL     1     -36.108  22.054   6.413  0.00  0.00    +0.142 HD
ENDBRANCH  15  19
BRANCH   6  22
ATOM     22  O   UNL     1     -35.279  27.798   2.411  0.00  0.00    -0.341 OA
ATOM     23  C   UNL     1     -34.899  29.147   2.637  0.00  0.00    +0.176 C 
ENDBRANCH   6  22
BRANCH   9  24
ATOM     24  C   UNL     1     -33.277  26.495   5.169  0.00  0.00    +0.218 C 
BRANCH  24  25
ATOM     25  O   UNL     1     -33.106  27.860   5.507  0.00  0.00    -0.434 OA
BRANCH  25  28
ATOM     26  O   UNL     1     -30.839  28.113   5.189  0.00  0.00    -0.227 OA
ATOM     27  N   UNL     1     -31.848  28.782   7.145  0.00  0.00    -0.295 N 
ATOM     28  C   UNL     1     -31.843  28.239   5.883  0.00  0.00    +0.398 C 
ATOM     29  H   UNL     1     -32.692  28.854   7.646  0.00  0.00    +0.148 HD
ATOM     30  H   UNL     1     -31.007  29.100   7.546  0.00  0.00    +0.148 HD
ENDBRANCH  25  28
ENDBRANCH  24  25
ENDBRANCH   9  24
TORSDOF 5
ENDMDL
MODEL 8
REMARK VINA RESULT:      -5.4     11.019     13.641
REMARK  Name = 5746
REMARK  5 active torsions:
REMARK  status: ('A' for Active; 'I' for Inactive)
REMARK    1  A    between atoms: C_6  and  O_22
REMARK    2  A    between atoms: C_9  and  C_24
REMARK    3  A    between atoms: C_15  and  N_19
REMARK    4  A    between atoms: C_24  and  O_25
REMARK    5  A    between atoms: O_25  and  C_28
REMARK                            x       y       z     vdW  Elec       q    Type
REMARK                         _______ _______ _______ _____ _____    ______ ____
ROOT
ATOM      1  O   UNL     1     -47.622  32.789   8.792  0.00  0.00    -0.286 OA
ATOM      2  O   UNL     1     -47.346  33.565   3.507  0.00  0.00    -0.286 OA
ATOM      3  N   UNL     1     -43.372  30.715   6.804  0.00  0.00    +0.388 N 
ATOM      4  N   UNL     1     -46.241  30.897   7.065  0.00  0.00    -0.290 N 
ATOM      5  C   UNL     1     -44.345  29.770   6.260  0.00  0.00    -0.036 C 
ATOM      6  C   UNL     1     -45.739  30.169   5.878  0.00  0.00    +0.141 C 
ATOM      7  C   UNL     1     -44.211  29.982   7.736  0.00  0.00    -0.057 C 
ATOM      8  C   UNL     1     -45.458  30.632   8.265  0.00  0.00    +0.070 C 
ATOM      9  C   UNL     1     -45.976  31.167   4.699  0.00  0.00    +0.111 C 
ATOM     10  C   UNL     1     -46.861  32.063   6.686  0.00  0.00    +0.088 C 
ATOM     11  C   UNL     1     -46.775  32.264   5.372  0.00  0.00    +0.042 C 
ATOM     12  C   UNL     1     -47.538  33.000   7.587  0.00  0.00    +0.206 C 
ATOM     13  C   UNL     1     -47.389  33.425   4.726  0.00  0.00    +0.206 C 
ATOM     14  C   UNL     1     -48.132  34.222   6.950  0.00  0.00    +0.034 C 
ATOM     15  C   UNL     1     -48.070  34.426   5.616  0.00  0.00    +0.080 C 
ATOM     16  C   UNL     1     -48.791  35.161   7.925  0.00  0.00    +0.036 C 
ATOM     17  H   UNL     1     -43.514  31.716   6.676  0.00  0.00    -0.084 HD
ATOM     18  H   UNL     1     -42.365  30.837   6.699  0.00  0.00    -0.084 HD
ENDROOT
BRANCH  15  19
ATOM     19  N   UNL     1     -48.585  35.500   4.942  0.00  0.00    -0.355 N 
ATOM     20  H   UNL     1     -49.445  35.420   4.470  0.00  0.00    +0.142 HD
ATOM     21  H   UNL     1     -48.095  36.354   4.931  0.00  0.00    +0.142 HD
ENDBRANCH  15  19
BRANCH   6  22
ATOM     22  O   UNL     1     -46.525  28.995   5.672  0.00  0.00    -0.341 OA
ATOM     23  C   UNL     1     -45.739  27.934   5.150  0.00  0.00    +0.176 C 
ENDBRANCH   6  22
BRANCH   9  24
ATOM     24  C   UNL     1     -44.719  31.702   4.021  0.00  0.00    +0.218 C 
BRANCH  24  25
ATOM     25  O   UNL     1     -44.241  32.810   4.764  0.00  0.00    -0.434 OA
BRANCH  25  28
ATOM     26  O   UNL     1     -42.791  34.554   4.370  0.00  0.00    -0.227 OA
ATOM     27  N   UNL     1     -44.463  34.038   2.878  0.00  0.00    -0.295 N 
ATOM     28  C   UNL     1     -43.746  33.861   4.037  0.00  0.00    +0.398 C 
ATOM     29  H   UNL     1     -45.219  33.444   2.672  0.00  0.00    +0.148 HD
ATOM     30  H   UNL     1     -44.218  34.760   2.255  0.00  0.00    +0.148 HD
ENDBRANCH  25  28
ENDBRANCH  24  25
ENDBRANCH   9  24
TORSDOF 5
ENDMDL
MODEL 9
REMARK VINA RESULT:      -5.4      2.286      4.840
REMARK  Name = 5746
REMARK  5 active torsions:
REMARK  status: ('A' for Active; 'I' for Inactive)
REMARK    1  A    between atoms: C_6  and  O_22
REMARK    2  A    between atoms: C_9  and  C_24
REMARK    3  A    between atoms: C_15  and  N_19
REMARK    4  A    between atoms: C_24  and  O_25
REMARK    5  A    between atoms: O_25  and  C_28
REMARK                            x       y       z     vdW  Elec       q    Type
REMARK                         _______ _______ _______ _____ _____    ______ ____
ROOT
ATOM      1  O   UNL     1     -35.428  21.200   3.994  0.00  0.00    -0.286 OA
ATOM      2  O   UNL     1     -35.833  24.316  -0.335  0.00  0.00    -0.286 OA
ATOM      3  N   UNL     1     -36.657  26.021   5.251  0.00  0.00    +0.388 N 
ATOM      4  N   UNL     1     -34.863  24.052   4.136  0.00  0.00    -0.290 N 
ATOM      5  C   UNL     1     -35.270  26.250   4.854  0.00  0.00    -0.036 C 
ATOM      6  C   UNL     1     -34.592  25.462   3.774  0.00  0.00    +0.141 C 
ATOM      7  C   UNL     1     -35.614  25.294   5.953  0.00  0.00    -0.057 C 
ATOM      8  C   UNL     1     -35.280  23.894   5.524  0.00  0.00    +0.070 C 
ATOM      9  C   UNL     1     -35.084  25.570   2.295  0.00  0.00    +0.111 C 
ATOM     10  C   UNL     1     -35.273  23.343   3.032  0.00  0.00    +0.088 C 
ATOM     11  C   UNL     1     -35.391  24.124   1.960  0.00  0.00    +0.042 C 
ATOM     12  C   UNL     1     -35.560  21.906   3.000  0.00  0.00    +0.206 C 
ATOM     13  C   UNL     1     -35.782  23.590   0.654  0.00  0.00    +0.206 C 
ATOM     14  C   UNL     1     -36.010  21.349   1.682  0.00  0.00    +0.034 C 
ATOM     15  C   UNL     1     -36.113  22.126   0.582  0.00  0.00    +0.080 C 
ATOM     16  C   UNL     1     -36.316  19.875   1.714  0.00  0.00    +0.036 C 
ATOM     17  H   UNL     1     -37.286  25.520   4.623  0.00  0.00    -0.084 HD
ATOM     18  H   UNL     1     -37.422  26.627   5.545  0.00  0.00    -0.084 HD
ENDROOT
BRANCH  15  19
ATOM     19  N   UNL     1     -36.506  21.712  -0.661  0.00  0.00    -0.355 N 
ATOM     20  H   UNL     1     -35.849  21.320  -1.281  0.00  0.00    +0.142 HD
ATOM     21  H   UNL     1     -37.447  21.805  -0.936  0.00  0.00    +0.142 HD
ENDBRANCH  15  19
BRANCH   6  22
ATOM     22  O   UNL     1     -33.186  25.704   3.826  0.00  0.00    -0.341 OA
ATOM     23  C   UNL     1     -32.899  27.093   3.756  0.00  0.00    +0.176 C 
ENDBRANCH   6  22
BRANCH   9  24
ATOM     24  C   UNL     1     -36.283  26.484   2.060  0.00  0.00    +0.218 C 
BRANCH  24  25
ATOM     25  O   UNL     1     -37.457  25.800   2.463  0.00  0.00    -0.434 OA
BRANCH  25  28
ATOM     26  O   UNL     1     -39.605  26.626   2.385  0.00  0.00    -0.227 OA
ATOM     27  N   UNL     1     -38.529  25.929   0.476  0.00  0.00    -0.295 N 
ATOM     28  C   UNL     1     -38.617  26.159   1.827  0.00  0.00    +0.398 C 
ATOM     29  H   UNL     1     -37.704  25.553   0.094  0.00  0.00    +0.148 HD
ATOM     30  H   UNL     1     -39.291  26.141  -0.110  0.00  0.00    +0.148 HD
ENDBRANCH  25  28
ENDBRANCH  24  25
ENDBRANCH   9  24
TORSDOF 5
ENDMDL
