MODEL 1
REMARK VINA RESULT:      -6.5      0.000      0.000
REMARK  Name = 5480200
REMARK  8 active torsions:
REMARK  status: ('A' for Active; 'I' for Inactive)
REMARK    1  A    between atoms: C_2  and  C_6
REMARK    2  A    between atoms: C_3  and  C_19
REMARK    3  A    between atoms: C_9  and  C_14
REMARK    4  A    between atoms: N_13  and  C_14
REMARK    5  A    between atoms: N_13  and  O_17
REMARK    6  A    between atoms: C_22  and  C_27
REMARK    7  A    between atoms: N_26  and  C_27
REMARK    8  A    between atoms: N_26  and  O_30
REMARK                            x       y       z     vdW  Elec       q    Type
REMARK                         _______ _______ _______ _____ _____    ______ ____
ROOT
ATOM      1  O   UNL     1     -34.527  20.386   1.878  0.00  0.00    -0.453 OA
ATOM      2  C   UNL     1     -34.822  19.344   1.061  0.00  0.00    +0.145 C 
ATOM      3  C   UNL     1     -35.681  21.087   2.036  0.00  0.00    +0.145 C 
ATOM      4  C   UNL     1     -36.143  19.366   0.694  0.00  0.00    +0.041 C 
ATOM      5  C   UNL     1     -36.703  20.501   1.328  0.00  0.00    +0.041 C 
ENDROOT
BRANCH   2   6
ATOM      6  C   UNL     1     -33.717  18.467   0.764  0.00  0.00    +0.035 C 
ATOM      7  C   UNL     1     -33.941  17.260   0.101  0.00  0.00    +0.003 C 
ATOM      8  C   UNL     1     -32.421  18.827   1.138  0.00  0.00    +0.003 C 
ATOM      9  C   UNL     1     -31.576  16.773   0.186  0.00  0.00    +0.036 C 
ATOM     10  C   UNL     1     -32.872  16.414  -0.188  0.00  0.00    +0.003 C 
ATOM     11  C   UNL     1     -31.351  17.979   0.848  0.00  0.00    +0.003 C 
BRANCH   9  13
ATOM     12  N   UNL     1     -29.151  16.377  -0.050  0.00  0.00    -0.381 N 
ATOM     13  C   UNL     1     -30.462  15.889  -0.115  0.00  0.00    +0.160 C 
ATOM     14  H   UNL     1     -28.393  15.782  -0.252  0.00  0.00    +0.157 HD
ATOM     15  H   UNL     1     -28.986  17.316   0.199  0.00  0.00    +0.157 HD
BRANCH  13  16
ATOM     16  N   UNL     1     -30.724  14.634  -0.449  0.00  0.00    -0.114 NA
BRANCH  16  17
ATOM     17  O   UNL     1     -30.566  13.753   0.631  0.00  0.00    -0.232 OA
ATOM     18  C   UNL     1     -30.702  12.428   0.142  0.00  0.00    +0.211 C 
ENDBRANCH  16  17
ENDBRANCH  13  16
ENDBRANCH   9  13
ENDBRANCH   2   6
BRANCH   3  19
ATOM     19  C   UNL     1     -35.585  22.246   2.877  0.00  0.00    +0.035 C 
ATOM     20  C   UNL     1     -35.602  22.109   4.269  0.00  0.00    +0.003 C 
ATOM     21  C   UNL     1     -35.472  23.520   2.312  0.00  0.00    +0.003 C 
ATOM     22  C   UNL     1     -35.396  24.504   4.518  0.00  0.00    +0.036 C 
ATOM     23  C   UNL     1     -35.508  23.235   5.087  0.00  0.00    +0.003 C 
ATOM     24  C   UNL     1     -35.378  24.646   3.130  0.00  0.00    +0.003 C 
BRANCH  22  26
ATOM     25  N   UNL     1     -36.380  26.560   5.464  0.00  0.00    -0.381 N 
ATOM     26  C   UNL     1     -35.297  25.677   5.371  0.00  0.00    +0.160 C 
ATOM     27  H   UNL     1     -36.317  27.356   6.042  0.00  0.00    +0.157 HD
ATOM     28  H   UNL     1     -37.203  26.386   4.954  0.00  0.00    +0.157 HD
BRANCH  26  29
ATOM     29  N   UNL     1     -34.170  25.878   6.038  0.00  0.00    -0.114 NA
BRANCH  29  30
ATOM     30  O   UNL     1     -33.540  27.076   5.665  0.00  0.00    -0.232 OA
ATOM     31  C   UNL     1     -32.565  27.384   6.648  0.00  0.00    +0.211 C 
ENDBRANCH  29  30
ENDBRANCH  26  29
ENDBRANCH  22  26
ENDBRANCH   3  19
TORSDOF 8
ENDMDL
MODEL 2
REMARK VINA RESULT:      -6.5      0.543      9.903
REMARK  Name = 5480200
REMARK  8 active torsions:
REMARK  status: ('A' for Active; 'I' for Inactive)
REMARK    1  A    between atoms: C_2  and  C_6
REMARK    2  A    between atoms: C_3  and  C_19
REMARK    3  A    between atoms: C_9  and  C_14
REMARK    4  A    between atoms: N_13  and  C_14
REMARK    5  A    between atoms: N_13  and  O_17
REMARK    6  A    between atoms: C_22  and  C_27
REMARK    7  A    between atoms: N_26  and  C_27
REMARK    8  A    between atoms: N_26  and  O_30
REMARK                            x       y       z     vdW  Elec       q    Type
REMARK                         _______ _______ _______ _____ _____    ______ ____
ROOT
ATOM      1  O   UNL     1     -34.609  20.460   1.896  0.00  0.00    -0.453 OA
ATOM      2  C   UNL     1     -35.769  21.111   2.157  0.00  0.00    +0.145 C 
ATOM      3  C   UNL     1     -34.933  19.404   1.103  0.00  0.00    +0.145 C 
ATOM      4  C   UNL     1     -36.829  20.492   1.546  0.00  0.00    +0.041 C 
ATOM      5  C   UNL     1     -36.286  19.380   0.859  0.00  0.00    +0.041 C 
ENDROOT
BRANCH   2   6
ATOM      6  C   UNL     1     -35.641  22.277   2.996  0.00  0.00    +0.035 C 
ATOM      7  C   UNL     1     -35.613  22.139   4.384  0.00  0.00    +0.003 C 
ATOM      8  C   UNL     1     -35.543  23.544   2.419  0.00  0.00    +0.003 C 
ATOM      9  C   UNL     1     -35.389  24.533   4.618  0.00  0.00    +0.036 C 
ATOM     10  C   UNL     1     -35.487  23.266   5.194  0.00  0.00    +0.003 C 
ATOM     11  C   UNL     1     -35.416  24.671   3.231  0.00  0.00    +0.003 C 
BRANCH   9  13
ATOM     12  N   UNL     1     -36.322  26.611   5.568  0.00  0.00    -0.381 N 
ATOM     13  C   UNL     1     -35.258  25.708   5.464  0.00  0.00    +0.160 C 
ATOM     14  H   UNL     1     -36.238  27.409   6.140  0.00  0.00    +0.157 HD
ATOM     15  H   UNL     1     -37.156  26.450   5.069  0.00  0.00    +0.157 HD
BRANCH  13  16
ATOM     16  N   UNL     1     -34.119  25.892   6.117  0.00  0.00    -0.114 NA
BRANCH  16  17
ATOM     17  O   UNL     1     -33.302  26.851   5.500  0.00  0.00    -0.232 OA
ATOM     18  C   UNL     1     -32.501  27.458   6.502  0.00  0.00    +0.211 C 
ENDBRANCH  16  17
ENDBRANCH  13  16
ENDBRANCH   9  13
ENDBRANCH   2   6
BRANCH   3  19
ATOM     19  C   UNL     1     -33.832  18.573   0.705  0.00  0.00    +0.035 C 
ATOM     20  C   UNL     1     -34.055  17.430  -0.069  0.00  0.00    +0.003 C 
ATOM     21  C   UNL     1     -32.528  18.902   1.088  0.00  0.00    +0.003 C 
ATOM     22  C   UNL     1     -31.686  16.955  -0.071  0.00  0.00    +0.036 C 
ATOM     23  C   UNL     1     -32.985  16.623  -0.456  0.00  0.00    +0.003 C 
ATOM     24  C   UNL     1     -31.457  18.095   0.701  0.00  0.00    +0.003 C 
BRANCH  22  26
ATOM     25  N   UNL     1     -30.082  16.193  -1.785  0.00  0.00    -0.381 N 
ATOM     26  C   UNL     1     -30.571  16.115  -0.475  0.00  0.00    +0.160 C 
ATOM     27  H   UNL     1     -29.326  15.626  -2.063  0.00  0.00    +0.157 HD
ATOM     28  H   UNL     1     -30.493  16.816  -2.427  0.00  0.00    +0.157 HD
BRANCH  26  29
ATOM     29  N   UNL     1     -30.049  15.287   0.419  0.00  0.00    -0.114 NA
BRANCH  29  30
ATOM     30  O   UNL     1     -30.767  14.084   0.510  0.00  0.00    -0.232 OA
ATOM     31  C   UNL     1     -29.839  13.013   0.460  0.00  0.00    +0.211 C 
ENDBRANCH  29  30
ENDBRANCH  26  29
ENDBRANCH  22  26
ENDBRANCH   3  19
TORSDOF 8
ENDMDL
MODEL 3
REMARK VINA RESULT:      -6.5      3.212      5.969
REMARK  Name = 5480200
REMARK  8 active torsions:
REMARK  status: ('A' for Active; 'I' for Inactive)
REMARK    1  A    between atoms: C_2  and  C_6
REMARK    2  A    between atoms: C_3  and  C_19
REMARK    3  A    between atoms: C_9  and  C_14
REMARK    4  A    between atoms: N_13  and  C_14
REMARK    5  A    between atoms: N_13  and  O_17
REMARK    6  A    between atoms: C_22  and  C_27
REMARK    7  A    between atoms: N_26  and  C_27
REMARK    8  A    between atoms: N_26  and  O_30
REMARK                            x       y       z     vdW  Elec       q    Type
REMARK                         _______ _______ _______ _____ _____    ______ ____
ROOT
ATOM      1  O   UNL     1     -34.253  24.933   4.214  0.00  0.00    -0.453 OA
ATOM      2  C   UNL     1     -35.369  24.168   4.132  0.00  0.00    +0.145 C 
ATOM      3  C   UNL     1     -34.551  25.956   5.058  0.00  0.00    +0.145 C 
ATOM      4  C   UNL     1     -36.376  24.682   4.907  0.00  0.00    +0.041 C 
ATOM      5  C   UNL     1     -35.844  25.847   5.510  0.00  0.00    +0.041 C 
ENDROOT
BRANCH   2   6
ATOM      6  C   UNL     1     -35.260  23.015   3.271  0.00  0.00    +0.035 C 
ATOM      7  C   UNL     1     -35.516  21.740   3.776  0.00  0.00    +0.003 C 
ATOM      8  C   UNL     1     -34.899  23.176   1.933  0.00  0.00    +0.003 C 
ATOM      9  C   UNL     1     -35.052  20.787   1.605  0.00  0.00    +0.036 C 
ATOM     10  C   UNL     1     -35.412  20.627   2.943  0.00  0.00    +0.003 C 
ATOM     11  C   UNL     1     -34.795  22.062   1.100  0.00  0.00    +0.003 C 
BRANCH   9  13
ATOM     12  N   UNL     1     -36.036  18.765   0.587  0.00  0.00    -0.381 N 
ATOM     13  C   UNL     1     -34.942  19.626   0.737  0.00  0.00    +0.160 C 
ATOM     14  H   UNL     1     -35.966  17.977   0.000  0.00  0.00    +0.157 HD
ATOM     15  H   UNL     1     -36.875  18.947   1.069  0.00  0.00    +0.157 HD
BRANCH  13  16
ATOM     16  N   UNL     1     -33.795  19.414   0.108  0.00  0.00    -0.114 NA
BRANCH  16  17
ATOM     17  O   UNL     1     -32.702  19.403   0.987  0.00  0.00    -0.232 OA
ATOM     18  C   UNL     1     -32.445  18.056   1.353  0.00  0.00    +0.211 C 
ENDBRANCH  16  17
ENDBRANCH  13  16
ENDBRANCH   9  13
ENDBRANCH   2   6
BRANCH   3  19
ATOM     19  C   UNL     1     -33.489  26.894   5.286  0.00  0.00    +0.035 C 
ATOM     20  C   UNL     1     -32.980  27.653   4.228  0.00  0.00    +0.003 C 
ATOM     21  C   UNL     1     -32.956  27.057   6.569  0.00  0.00    +0.003 C 
ATOM     22  C   UNL     1     -31.420  28.724   5.730  0.00  0.00    +0.036 C 
ATOM     23  C   UNL     1     -31.949  28.566   4.449  0.00  0.00    +0.003 C 
ATOM     24  C   UNL     1     -31.924  27.969   6.790  0.00  0.00    +0.003 C 
BRANCH  22  26
ATOM     25  N   UNL     1     -30.381  30.928   5.335  0.00  0.00    -0.381 N 
ATOM     26  C   UNL     1     -30.346  29.675   5.961  0.00  0.00    +0.160 C 
ATOM     27  H   UNL     1     -29.656  31.576   5.489  0.00  0.00    +0.157 HD
ATOM     28  H   UNL     1     -31.131  31.160   4.741  0.00  0.00    +0.157 HD
BRANCH  26  29
ATOM     29  N   UNL     1     -29.352  29.322   6.763  0.00  0.00    -0.114 NA
BRANCH  29  30
ATOM     30  O   UNL     1     -28.441  28.463   6.131  0.00  0.00    -0.232 OA
ATOM     31  C   UNL     1     -28.180  27.377   7.006  0.00  0.00    +0.211 C 
ENDBRANCH  29  30
ENDBRANCH  26  29
ENDBRANCH  22  26
ENDBRANCH   3  19
TORSDOF 8
ENDMDL
MODEL 4
REMARK VINA RESULT:      -6.5      1.105      1.766
REMARK  Name = 5480200
REMARK  8 active torsions:
REMARK  status: ('A' for Active; 'I' for Inactive)
REMARK    1  A    between atoms: C_2  and  C_6
REMARK    2  A    between atoms: C_3  and  C_19
REMARK    3  A    between atoms: C_9  and  C_14
REMARK    4  A    between atoms: N_13  and  C_14
REMARK    5  A    between atoms: N_13  and  O_17
REMARK    6  A    between atoms: C_22  and  C_27
REMARK    7  A    between atoms: N_26  and  C_27
REMARK    8  A    between atoms: N_26  and  O_30
REMARK                            x       y       z     vdW  Elec       q    Type
REMARK                         _______ _______ _______ _____ _____    ______ ____
ROOT
ATOM      1  O   UNL     1     -34.570  20.547   1.917  0.00  0.00    -0.453 OA
ATOM      2  C   UNL     1     -34.841  19.487   1.117  0.00  0.00    +0.145 C 
ATOM      3  C   UNL     1     -35.743  21.215   2.078  0.00  0.00    +0.145 C 
ATOM      4  C   UNL     1     -36.165  19.464   0.763  0.00  0.00    +0.041 C 
ATOM      5  C   UNL     1     -36.753  20.589   1.388  0.00  0.00    +0.041 C 
ENDROOT
BRANCH   2   6
ATOM      6  C   UNL     1     -33.712  18.639   0.819  0.00  0.00    +0.035 C 
ATOM      7  C   UNL     1     -32.414  19.120   0.992  0.00  0.00    +0.003 C 
ATOM      8  C   UNL     1     -33.919  17.338   0.361  0.00  0.00    +0.003 C 
ATOM      9  C   UNL     1     -31.530  16.998   0.247  0.00  0.00    +0.036 C 
ATOM     10  C   UNL     1     -31.323  18.300   0.706  0.00  0.00    +0.003 C 
ATOM     11  C   UNL     1     -32.827  16.518   0.075  0.00  0.00    +0.003 C 
BRANCH   9  13
ATOM     12  N   UNL     1     -30.526  14.753   0.034  0.00  0.00    -0.381 N 
ATOM     13  C   UNL     1     -30.392  16.144  -0.051  0.00  0.00    +0.160 C 
ATOM     14  H   UNL     1     -29.758  14.171  -0.167  0.00  0.00    +0.157 HD
ATOM     15  H   UNL     1     -31.388  14.356   0.297  0.00  0.00    +0.157 HD
BRANCH  13  16
ATOM     16  N   UNL     1     -29.248  16.716  -0.397  0.00  0.00    -0.114 NA
BRANCH  16  17
ATOM     17  O   UNL     1     -28.163  16.224   0.343  0.00  0.00    -0.232 OA
ATOM     18  C   UNL     1     -27.888  17.146   1.387  0.00  0.00    +0.211 C 
ENDBRANCH  16  17
ENDBRANCH  13  16
ENDBRANCH   9  13
ENDBRANCH   2   6
BRANCH   3  19
ATOM     19  C   UNL     1     -35.674  22.387   2.904  0.00  0.00    +0.035 C 
ATOM     20  C   UNL     1     -35.515  22.265   4.288  0.00  0.00    +0.003 C 
ATOM     21  C   UNL     1     -35.764  23.659   2.331  0.00  0.00    +0.003 C 
ATOM     22  C   UNL     1     -35.538  24.671   4.514  0.00  0.00    +0.036 C 
ATOM     23  C   UNL     1     -35.447  23.404   5.091  0.00  0.00    +0.003 C 
ATOM     24  C   UNL     1     -35.696  24.798   3.134  0.00  0.00    +0.003 C 
BRANCH  22  26
ATOM     25  N   UNL     1     -36.615  26.634   5.554  0.00  0.00    -0.381 N 
ATOM     26  C   UNL     1     -35.467  25.857   5.350  0.00  0.00    +0.160 C 
ATOM     27  H   UNL     1     -36.571  27.438   6.121  0.00  0.00    +0.157 HD
ATOM     28  H   UNL     1     -37.465  26.375   5.131  0.00  0.00    +0.157 HD
BRANCH  26  29
ATOM     29  N   UNL     1     -34.302  26.174   5.897  0.00  0.00    -0.114 NA
BRANCH  29  30
ATOM     30  O   UNL     1     -33.260  26.184   4.957  0.00  0.00    -0.232 OA
ATOM     31  C   UNL     1     -32.899  27.535   4.716  0.00  0.00    +0.211 C 
ENDBRANCH  29  30
ENDBRANCH  26  29
ENDBRANCH  22  26
ENDBRANCH   3  19
TORSDOF 8
ENDMDL
MODEL 5
REMARK VINA RESULT:      -6.4      5.537      9.332
REMARK  Name = 5480200
REMARK  8 active torsions:
REMARK  status: ('A' for Active; 'I' for Inactive)
REMARK    1  A    between atoms: C_2  and  C_6
REMARK    2  A    between atoms: C_3  and  C_19
REMARK    3  A    between atoms: C_9  and  C_14
REMARK    4  A    between atoms: N_13  and  C_14
REMARK    5  A    between atoms: N_13  and  O_17
REMARK    6  A    between atoms: C_22  and  C_27
REMARK    7  A    between atoms: N_26  and  C_27
REMARK    8  A    between atoms: N_26  and  O_30
REMARK                            x       y       z     vdW  Elec       q    Type
REMARK                         _______ _______ _______ _____ _____    ______ ____
ROOT
ATOM      1  O   UNL     1     -34.024  28.539   3.626  0.00  0.00    -0.453 OA
ATOM      2  C   UNL     1     -33.309  27.629   4.331  0.00  0.00    +0.145 C 
ATOM      3  C   UNL     1     -33.315  29.699   3.668  0.00  0.00    +0.145 C 
ATOM      4  C   UNL     1     -32.156  28.183   4.824  0.00  0.00    +0.041 C 
ATOM      5  C   UNL     1     -32.160  29.531   4.394  0.00  0.00    +0.041 C 
ENDROOT
BRANCH   2   6
ATOM      6  C   UNL     1     -33.899  26.314   4.409  0.00  0.00    +0.035 C 
ATOM      7  C   UNL     1     -33.988  25.520   3.266  0.00  0.00    +0.003 C 
ATOM      8  C   UNL     1     -34.378  25.837   5.629  0.00  0.00    +0.003 C 
ATOM      9  C   UNL     1     -35.035  23.771   4.562  0.00  0.00    +0.036 C 
ATOM     10  C   UNL     1     -34.556  24.249   3.342  0.00  0.00    +0.003 C 
ATOM     11  C   UNL     1     -34.946  24.565   5.705  0.00  0.00    +0.003 C 
BRANCH   9  13
ATOM     12  N   UNL     1     -35.896  21.878   5.891  0.00  0.00    -0.381 N 
ATOM     13  C   UNL     1     -35.628  22.446   4.641  0.00  0.00    +0.160 C 
ATOM     14  H   UNL     1     -36.298  20.981   5.950  0.00  0.00    +0.157 HD
ATOM     15  H   UNL     1     -35.682  22.375   6.715  0.00  0.00    +0.157 HD
BRANCH  13  16
ATOM     16  N   UNL     1     -35.899  21.808   3.511  0.00  0.00    -0.114 NA
BRANCH  16  17
ATOM     17  O   UNL     1     -35.297  20.542   3.459  0.00  0.00    -0.232 OA
ATOM     18  C   UNL     1     -35.028  20.238   2.100  0.00  0.00    +0.211 C 
ENDBRANCH  16  17
ENDBRANCH  13  16
ENDBRANCH   9  13
ENDBRANCH   2   6
BRANCH   3  19
ATOM     19  C   UNL     1     -33.906  30.806   2.972  0.00  0.00    +0.035 C 
ATOM     20  C   UNL     1     -33.127  31.913   2.620  0.00  0.00    +0.003 C 
ATOM     21  C   UNL     1     -35.264  30.786   2.639  0.00  0.00    +0.003 C 
ATOM     22  C   UNL     1     -35.056  32.963   1.612  0.00  0.00    +0.036 C 
ATOM     23  C   UNL     1     -33.701  32.989   1.942  0.00  0.00    +0.003 C 
ATOM     24  C   UNL     1     -35.837  31.862   1.961  0.00  0.00    +0.003 C 
BRANCH  22  26
ATOM     25  N   UNL     1     -34.842  35.134   0.457  0.00  0.00    -0.381 N 
ATOM     26  C   UNL     1     -35.653  34.084   0.905  0.00  0.00    +0.160 C 
ATOM     27  H   UNL     1     -35.242  35.895  -0.024  0.00  0.00    +0.157 HD
ATOM     28  H   UNL     1     -33.872  35.111   0.620  0.00  0.00    +0.157 HD
BRANCH  26  29
ATOM     29  N   UNL     1     -36.964  34.080   0.709  0.00  0.00    -0.114 NA
BRANCH  29  30
ATOM     30  O   UNL     1     -37.629  34.986   1.549  0.00  0.00    -0.232 OA
ATOM     31  C   UNL     1     -38.766  34.332   2.089  0.00  0.00    +0.211 C 
ENDBRANCH  29  30
ENDBRANCH  26  29
ENDBRANCH  22  26
ENDBRANCH   3  19
TORSDOF 8
ENDMDL
MODEL 6
REMARK VINA RESULT:      -6.4      1.868      3.049
REMARK  Name = 5480200
REMARK  8 active torsions:
REMARK  status: ('A' for Active; 'I' for Inactive)
REMARK    1  A    between atoms: C_2  and  C_6
REMARK    2  A    between atoms: C_3  and  C_19
REMARK    3  A    between atoms: C_9  and  C_14
REMARK    4  A    between atoms: N_13  and  C_14
REMARK    5  A    between atoms: N_13  and  O_17
REMARK    6  A    between atoms: C_22  and  C_27
REMARK    7  A    between atoms: N_26  and  C_27
REMARK    8  A    between atoms: N_26  and  O_30
REMARK                            x       y       z     vdW  Elec       q    Type
REMARK                         _______ _______ _______ _____ _____    ______ ____
ROOT
ATOM      1  O   UNL     1     -35.184  22.207   2.671  0.00  0.00    -0.453 OA
ATOM      2  C   UNL     1     -36.056  21.353   2.081  0.00  0.00    +0.145 C 
ATOM      3  C   UNL     1     -35.930  23.219   3.189  0.00  0.00    +0.145 C 
ATOM      4  C   UNL     1     -37.346  21.799   2.210  0.00  0.00    +0.041 C 
ATOM      5  C   UNL     1     -37.265  23.014   2.931  0.00  0.00    +0.041 C 
ENDROOT
BRANCH   2   6
ATOM      6  C   UNL     1     -35.457  20.196   1.462  0.00  0.00    +0.035 C 
ATOM      7  C   UNL     1     -36.179  19.448   0.532  0.00  0.00    +0.003 C 
ATOM      8  C   UNL     1     -34.152  19.827   1.792  0.00  0.00    +0.003 C 
ATOM      9  C   UNL     1     -34.293  17.962   0.262  0.00  0.00    +0.036 C 
ATOM     10  C   UNL     1     -35.597  18.332  -0.067  0.00  0.00    +0.003 C 
ATOM     11  C   UNL     1     -33.571  18.709   1.192  0.00  0.00    +0.003 C 
BRANCH   9  13
ATOM     12  N   UNL     1     -34.502  15.771  -0.856  0.00  0.00    -0.381 N 
ATOM     13  C   UNL     1     -33.688  16.797  -0.363  0.00  0.00    +0.160 C 
ATOM     14  H   UNL     1     -34.097  14.980  -1.280  0.00  0.00    +0.157 HD
ATOM     15  H   UNL     1     -35.482  15.839  -0.778  0.00  0.00    +0.157 HD
BRANCH  13  16
ATOM     16  N   UNL     1     -32.366  16.741  -0.445  0.00  0.00    -0.114 NA
BRANCH  16  17
ATOM     17  O   UNL     1     -31.821  15.783   0.422  0.00  0.00    -0.232 OA
ATOM     18  C   UNL     1     -31.119  14.829  -0.360  0.00  0.00    +0.211 C 
ENDBRANCH  16  17
ENDBRANCH  13  16
ENDBRANCH   9  13
ENDBRANCH   2   6
BRANCH   3  19
ATOM     19  C   UNL     1     -35.189  24.244   3.867  0.00  0.00    +0.035 C 
ATOM     20  C   UNL     1     -34.297  25.054   3.158  0.00  0.00    +0.003 C 
ATOM     21  C   UNL     1     -35.355  24.441   5.241  0.00  0.00    +0.003 C 
ATOM     22  C   UNL     1     -33.746  26.243   5.188  0.00  0.00    +0.036 C 
ATOM     23  C   UNL     1     -33.577  26.052   3.817  0.00  0.00    +0.003 C 
ATOM     24  C   UNL     1     -34.635  25.438   5.900  0.00  0.00    +0.003 C 
BRANCH  22  26
ATOM     25  N   UNL     1     -32.616  27.098   7.209  0.00  0.00    -0.381 N 
ATOM     26  C   UNL     1     -32.997  27.283   5.874  0.00  0.00    +0.160 C 
ATOM     27  H   UNL     1     -32.108  27.800   7.677  0.00  0.00    +0.157 HD
ATOM     28  H   UNL     1     -32.856  26.267   7.679  0.00  0.00    +0.157 HD
BRANCH  26  29
ATOM     29  N   UNL     1     -32.697  28.388   5.207  0.00  0.00    -0.114 NA
BRANCH  29  30
ATOM     30  O   UNL     1     -32.315  29.435   6.061  0.00  0.00    -0.232 OA
ATOM     31  C   UNL     1     -31.986  30.558   5.260  0.00  0.00    +0.211 C 
ENDBRANCH  29  30
ENDBRANCH  26  29
ENDBRANCH  22  26
ENDBRANCH   3  19
TORSDOF 8
ENDMDL
MODEL 7
REMARK VINA RESULT:      -6.4      3.174     10.167
REMARK  Name = 5480200
REMARK  8 active torsions:
REMARK  status: ('A' for Active; 'I' for Inactive)
REMARK    1  A    between atoms: C_2  and  C_6
REMARK    2  A    between atoms: C_3  and  C_19
REMARK    3  A    between atoms: C_9  and  C_14
REMARK    4  A    between atoms: N_13  and  C_14
REMARK    5  A    between atoms: N_13  and  O_17
REMARK    6  A    between atoms: C_22  and  C_27
REMARK    7  A    between atoms: N_26  and  C_27
REMARK    8  A    between atoms: N_26  and  O_30
REMARK                            x       y       z     vdW  Elec       q    Type
REMARK                         _______ _______ _______ _____ _____    ______ ____
ROOT
ATOM      1  O   UNL     1     -34.242  24.939   4.267  0.00  0.00    -0.453 OA
ATOM      2  C   UNL     1     -34.542  25.966   5.101  0.00  0.00    +0.145 C 
ATOM      3  C   UNL     1     -35.371  24.189   4.162  0.00  0.00    +0.145 C 
ATOM      4  C   UNL     1     -35.841  25.886   5.531  0.00  0.00    +0.041 C 
ATOM      5  C   UNL     1     -36.382  24.730   4.920  0.00  0.00    +0.041 C 
ENDROOT
BRANCH   2   6
ATOM      6  C   UNL     1     -33.462  26.889   5.348  0.00  0.00    +0.035 C 
ATOM      7  C   UNL     1     -32.955  27.041   6.639  0.00  0.00    +0.003 C 
ATOM      8  C   UNL     1     -32.923  27.629   4.296  0.00  0.00    +0.003 C 
ATOM      9  C   UNL     1     -31.370  28.673   5.825  0.00  0.00    +0.036 C 
ATOM     10  C   UNL     1     -31.910  27.933   6.877  0.00  0.00    +0.003 C 
ATOM     11  C   UNL     1     -31.877  28.521   4.534  0.00  0.00    +0.003 C 
BRANCH   9  13
ATOM     12  N   UNL     1     -30.034  30.642   5.170  0.00  0.00    -0.381 N 
ATOM     13  C   UNL     1     -30.281  29.603   6.074  0.00  0.00    +0.160 C 
ATOM     14  H   UNL     1     -29.297  31.274   5.335  0.00  0.00    +0.157 HD
ATOM     15  H   UNL     1     -30.597  30.741   4.367  0.00  0.00    +0.157 HD
BRANCH  13  16
ATOM     16  N   UNL     1     -29.544  29.434   7.162  0.00  0.00    -0.114 NA
BRANCH  16  17
ATOM     17  O   UNL     1     -28.218  29.090   6.858  0.00  0.00    -0.232 OA
ATOM     18  C   UNL     1     -28.070  27.692   7.054  0.00  0.00    +0.211 C 
ENDBRANCH  16  17
ENDBRANCH  13  16
ENDBRANCH   9  13
ENDBRANCH   2   6
BRANCH   3  19
ATOM     19  C   UNL     1     -35.266  23.037   3.312  0.00  0.00    +0.035 C 
ATOM     20  C   UNL     1     -34.878  23.180   1.976  0.00  0.00    +0.003 C 
ATOM     21  C   UNL     1     -35.550  21.763   3.814  0.00  0.00    +0.003 C 
ATOM     22  C   UNL     1     -35.059  20.792   1.656  0.00  0.00    +0.036 C 
ATOM     23  C   UNL     1     -34.775  22.060   1.150  0.00  0.00    +0.003 C 
ATOM     24  C   UNL     1     -35.446  20.643   2.988  0.00  0.00    +0.003 C 
BRANCH  22  26
ATOM     25  N   UNL     1     -36.067  18.802   0.599  0.00  0.00    -0.381 N 
ATOM     26  C   UNL     1     -34.951  19.625   0.796  0.00  0.00    +0.160 C 
ATOM     27  H   UNL     1     -35.998  18.011   0.016  0.00  0.00    +0.157 HD
ATOM     28  H   UNL     1     -36.919  19.014   1.043  0.00  0.00    +0.157 HD
BRANCH  26  29
ATOM     29  N   UNL     1     -33.784  19.372   0.221  0.00  0.00    -0.114 NA
BRANCH  29  30
ATOM     30  O   UNL     1     -32.743  19.270   1.156  0.00  0.00    -0.232 OA
ATOM     31  C   UNL     1     -32.271  17.932   1.145  0.00  0.00    +0.211 C 
ENDBRANCH  29  30
ENDBRANCH  26  29
ENDBRANCH  22  26
ENDBRANCH   3  19
TORSDOF 8
ENDMDL
MODEL 8
REMARK VINA RESULT:      -6.4      5.595     12.505
REMARK  Name = 5480200
REMARK  8 active torsions:
REMARK  status: ('A' for Active; 'I' for Inactive)
REMARK    1  A    between atoms: C_2  and  C_6
REMARK    2  A    between atoms: C_3  and  C_19
REMARK    3  A    between atoms: C_9  and  C_14
REMARK    4  A    between atoms: N_13  and  C_14
REMARK    5  A    between atoms: N_13  and  O_17
REMARK    6  A    between atoms: C_22  and  C_27
REMARK    7  A    between atoms: N_26  and  C_27
REMARK    8  A    between atoms: N_26  and  O_30
REMARK                            x       y       z     vdW  Elec       q    Type
REMARK                         _______ _______ _______ _____ _____    ______ ____
ROOT
ATOM      1  O   UNL     1     -34.082  28.607   3.556  0.00  0.00    -0.453 OA
ATOM      2  C   UNL     1     -33.379  29.767   3.571  0.00  0.00    +0.145 C 
ATOM      3  C   UNL     1     -33.349  27.707   4.263  0.00  0.00    +0.145 C 
ATOM      4  C   UNL     1     -32.211  29.625   4.274  0.00  0.00    +0.041 C 
ATOM      5  C   UNL     1     -32.190  28.284   4.725  0.00  0.00    +0.041 C 
ENDROOT
BRANCH   2   6
ATOM      6  C   UNL     1     -33.994  30.863   2.863  0.00  0.00    +0.035 C 
ATOM      7  C   UNL     1     -35.337  30.793   2.497  0.00  0.00    +0.003 C 
ATOM      8  C   UNL     1     -33.243  31.996   2.547  0.00  0.00    +0.003 C 
ATOM      9  C   UNL     1     -35.181  32.988   1.499  0.00  0.00    +0.036 C 
ATOM     10  C   UNL     1     -35.931  31.855   1.815  0.00  0.00    +0.003 C 
ATOM     11  C   UNL     1     -33.838  33.058   1.865  0.00  0.00    +0.003 C 
BRANCH   9  13
ATOM     12  N   UNL     1     -34.998  35.049   0.154  0.00  0.00    -0.381 N 
ATOM     13  C   UNL     1     -35.801  34.094   0.788  0.00  0.00    +0.160 C 
ATOM     14  H   UNL     1     -35.413  35.800  -0.330  0.00  0.00    +0.157 HD
ATOM     15  H   UNL     1     -34.016  34.971   0.191  0.00  0.00    +0.157 HD
BRANCH  13  16
ATOM     16  N   UNL     1     -37.124  34.166   0.763  0.00  0.00    -0.114 NA
BRANCH  16  17
ATOM     17  O   UNL     1     -37.629  34.994   1.776  0.00  0.00    -0.232 OA
ATOM     18  C   UNL     1     -38.910  34.506   2.146  0.00  0.00    +0.211 C 
ENDBRANCH  16  17
ENDBRANCH  13  16
ENDBRANCH   9  13
ENDBRANCH   2   6
BRANCH   3  19
ATOM     19  C   UNL     1     -33.923  26.396   4.371  0.00  0.00    +0.035 C 
ATOM     20  C   UNL     1     -34.381  25.926   5.606  0.00  0.00    +0.003 C 
ATOM     21  C   UNL     1     -34.031  25.578   3.241  0.00  0.00    +0.003 C 
ATOM     22  C   UNL     1     -35.045  23.842   4.581  0.00  0.00    +0.036 C 
ATOM     23  C   UNL     1     -34.941  24.653   5.711  0.00  0.00    +0.003 C 
ATOM     24  C   UNL     1     -34.591  24.305   3.346  0.00  0.00    +0.003 C 
BRANCH  22  26
ATOM     25  N   UNL     1     -35.873  21.966   5.955  0.00  0.00    -0.381 N 
ATOM     26  C   UNL     1     -35.629  22.515   4.690  0.00  0.00    +0.160 C 
ATOM     27  H   UNL     1     -36.269  21.067   6.033  0.00  0.00    +0.157 HD
ATOM     28  H   UNL     1     -35.649  22.478   6.765  0.00  0.00    +0.157 HD
BRANCH  26  29
ATOM     29  N   UNL     1     -35.911  21.857   3.575  0.00  0.00    -0.114 NA
BRANCH  29  30
ATOM     30  O   UNL     1     -35.288  20.600   3.529  0.00  0.00    -0.232 OA
ATOM     31  C   UNL     1     -35.141  20.232   2.167  0.00  0.00    +0.211 C 
ENDBRANCH  29  30
ENDBRANCH  26  29
ENDBRANCH  22  26
ENDBRANCH   3  19
TORSDOF 8
ENDMDL
MODEL 9
REMARK VINA RESULT:      -6.2      3.915      6.260
REMARK  Name = 5480200
REMARK  8 active torsions:
REMARK  status: ('A' for Active; 'I' for Inactive)
REMARK    1  A    between atoms: C_2  and  C_6
REMARK    2  A    between atoms: C_3  and  C_19
REMARK    3  A    between atoms: C_9  and  C_14
REMARK    4  A    between atoms: N_13  and  C_14
REMARK    5  A    between atoms: N_13  and  O_17
REMARK    6  A    between atoms: C_22  and  C_27
REMARK    7  A    between atoms: N_26  and  C_27
REMARK    8  A    between atoms: N_26  and  O_30
REMARK                            x       y       z     vdW  Elec       q    Type
REMARK                         _______ _______ _______ _____ _____    ______ ____
ROOT
ATOM      1  O   UNL     1     -34.262  24.893   4.225  0.00  0.00    -0.453 OA
ATOM      2  C   UNL     1     -35.396  24.159   4.102  0.00  0.00    +0.145 C 
ATOM      3  C   UNL     1     -34.572  25.944   5.030  0.00  0.00    +0.145 C 
ATOM      4  C   UNL     1     -36.425  24.720   4.812  0.00  0.00    +0.041 C 
ATOM      5  C   UNL     1     -35.890  25.883   5.417  0.00  0.00    +0.041 C 
ENDROOT
BRANCH   2   6
ATOM      6  C   UNL     1     -35.277  22.983   3.275  0.00  0.00    +0.035 C 
ATOM      7  C   UNL     1     -34.899  23.106   1.938  0.00  0.00    +0.003 C 
ATOM      8  C   UNL     1     -35.538  21.723   3.813  0.00  0.00    +0.003 C 
ATOM      9  C   UNL     1     -35.044  20.708   1.677  0.00  0.00    +0.036 C 
ATOM     10  C   UNL     1     -34.782  21.969   1.139  0.00  0.00    +0.003 C 
ATOM     11  C   UNL     1     -35.422  20.586   3.013  0.00  0.00    +0.003 C 
BRANCH   9  13
ATOM     12  N   UNL     1     -33.913  18.590   1.104  0.00  0.00    -0.381 N 
ATOM     13  C   UNL     1     -34.923  19.523   0.843  0.00  0.00    +0.160 C 
ATOM     14  H   UNL     1     -33.827  17.786   0.543  0.00  0.00    +0.157 HD
ATOM     15  H   UNL     1     -33.286  18.737   1.850  0.00  0.00    +0.157 HD
BRANCH  13  16
ATOM     16  N   UNL     1     -35.782  19.362  -0.153  0.00  0.00    -0.114 NA
BRANCH  16  17
ATOM     17  O   UNL     1     -37.024  18.885   0.290  0.00  0.00    -0.232 OA
ATOM     18  C   UNL     1     -38.039  19.675  -0.310  0.00  0.00    +0.211 C 
ENDBRANCH  16  17
ENDBRANCH  13  16
ENDBRANCH   9  13
ENDBRANCH   2   6
BRANCH   3  19
ATOM     19  C   UNL     1     -33.496  26.856   5.292  0.00  0.00    +0.035 C 
ATOM     20  C   UNL     1     -32.929  27.595   4.249  0.00  0.00    +0.003 C 
ATOM     21  C   UNL     1     -33.006  27.013   6.592  0.00  0.00    +0.003 C 
ATOM     22  C   UNL     1     -31.398  28.635   5.802  0.00  0.00    +0.036 C 
ATOM     23  C   UNL     1     -31.883  28.483   4.503  0.00  0.00    +0.003 C 
ATOM     24  C   UNL     1     -31.960  27.901   6.847  0.00  0.00    +0.003 C 
BRANCH  22  26
ATOM     25  N   UNL     1     -30.045  30.599   5.165  0.00  0.00    -0.381 N 
ATOM     26  C   UNL     1     -30.309  29.561   6.067  0.00  0.00    +0.160 C 
ATOM     27  H   UNL     1     -29.309  31.229   5.342  0.00  0.00    +0.157 HD
ATOM     28  H   UNL     1     -30.597  30.700   4.356  0.00  0.00    +0.157 HD
BRANCH  26  29
ATOM     29  N   UNL     1     -29.588  29.387   7.165  0.00  0.00    -0.114 NA
BRANCH  29  30
ATOM     30  O   UNL     1     -28.267  29.010   6.878  0.00  0.00    -0.232 OA
ATOM     31  C   UNL     1     -28.180  27.598   6.984  0.00  0.00    +0.211 C 
ENDBRANCH  29  30
ENDBRANCH  26  29
ENDBRANCH  22  26
ENDBRANCH   3  19
TORSDOF 8
ENDMDL
