MODEL 1
REMARK VINA RESULT:      -6.7      0.000      0.000
REMARK  Name = 53392669
REMARK  7 active torsions:
REMARK  status: ('A' for Active; 'I' for Inactive)
REMARK    1  A    between atoms: C_4  and  C_23
REMARK    2  A    between atoms: C_10  and  O_19
REMARK    3  A    between atoms: C_17  and  O_21
REMARK    4  A    between atoms: C_23  and  O_24
REMARK    5  A    between atoms: C_23  and  C_26
REMARK    6  A    between atoms: C_26  and  C_27
REMARK    7  A    between atoms: C_28  and  C_32
REMARK                            x       y       z     vdW  Elec       q    Type
REMARK                         _______ _______ _______ _____ _____    ______ ____
ROOT
ATOM      1  O   UNL     1     -33.735  29.088   3.017  0.00  0.00    -0.479 OA
ATOM      2  O   UNL     1     -35.782  27.764   1.892  0.00  0.00    -0.287 OA
ATOM      3  O   UNL     1     -35.579  24.043   5.714  0.00  0.00    -0.283 OA
ATOM      4  C   UNL     1     -32.003  29.337   4.701  0.00  0.00    +0.086 C 
ATOM      5  C   UNL     1     -32.936  30.083   3.711  0.00  0.00    +0.172 C 
ATOM      6  C   UNL     1     -32.878  28.143   4.933  0.00  0.00    +0.051 C 
ATOM      7  C   UNL     1     -31.748  30.170   5.959  0.00  0.00    +0.011 C 
ATOM      8  C   UNL     1     -33.827  28.053   3.917  0.00  0.00    +0.141 C 
ATOM      9  C   UNL     1     -32.242  30.953   2.673  0.00  0.00    +0.048 C 
ATOM     10  C   UNL     1     -32.817  27.182   5.927  0.00  0.00    +0.133 C 
ATOM     11  C   UNL     1     -34.730  26.999   3.846  0.00  0.00    +0.076 C 
ATOM     12  C   UNL     1     -34.675  26.029   4.847  0.00  0.00    +0.051 C 
ATOM     13  C   UNL     1     -33.726  26.122   5.884  0.00  0.00    +0.040 C 
ATOM     14  C   UNL     1     -35.722  26.900   2.761  0.00  0.00    +0.198 C 
ATOM     15  C   UNL     1     -35.611  24.894   4.831  0.00  0.00    +0.229 C 
ATOM     16  C   UNL     1     -36.652  25.727   2.747  0.00  0.00    +0.054 C 
ATOM     17  C   UNL     1     -36.597  24.802   3.723  0.00  0.00    +0.176 C 
ATOM     18  C   UNL     1     -37.594  25.701   1.573  0.00  0.00    +0.038 C 
ENDROOT
BRANCH  10  19
ATOM     19  O   UNL     1     -31.921  27.253   6.943  0.00  0.00    -0.506 OA
ATOM     20  H   UNL     1     -31.584  26.468   7.328  0.00  0.00    +0.292 HD
ENDBRANCH  10  19
BRANCH  17  21
ATOM     21  O   UNL     1     -37.431  23.705   3.798  0.00  0.00    -0.468 OA
ATOM     22  C   UNL     1     -36.913  22.631   3.039  0.00  0.00    +0.253 C 
ENDBRANCH  17  21
BRANCH   4  23
ATOM     23  C   UNL     1     -30.669  28.880   4.091  0.00  0.00    +0.122 C 
BRANCH  23  24
ATOM     24  O   UNL     1     -30.695  27.460   3.977  0.00  0.00    -0.384 OA
ATOM     25  H   UNL     1     -31.020  27.212   3.097  0.00  0.00    +0.210 HD
ENDBRANCH  23  24
BRANCH  23  26
ATOM     26  C   UNL     1     -29.495  29.289   4.980  0.00  0.00    +0.055 C 
BRANCH  26  27
ATOM     27  C   UNL     1     -28.716  28.088   5.449  0.00  0.00    -0.023 C 
ATOM     28  C   UNL     1     -28.153  27.902   6.659  0.00  0.00    +0.027 C 
ATOM     29  C   UNL     1     -28.257  28.857   7.812  0.00  0.00    +0.035 C 
BRANCH  28  32
ATOM     30  O   UNL     1     -27.247  25.803   5.930  0.00  0.00    -0.271 OA
ATOM     31  N   UNL     1     -26.938  26.389   8.118  0.00  0.00    -0.326 N 
ATOM     32  C   UNL     1     -27.411  26.608   6.845  0.00  0.00    +0.238 C 
ATOM     33  H   UNL     1     -26.441  25.564   8.323  0.00  0.00    +0.145 HD
ATOM     34  H   UNL     1     -27.096  27.057   8.823  0.00  0.00    +0.145 HD
ENDBRANCH  28  32
ENDBRANCH  26  27
ENDBRANCH  23  26
ENDBRANCH   4  23
TORSDOF 7
ENDMDL
MODEL 2
REMARK VINA RESULT:      -6.6      4.156      9.153
REMARK  Name = 53392669
REMARK  7 active torsions:
REMARK  status: ('A' for Active; 'I' for Inactive)
REMARK    1  A    between atoms: C_4  and  C_23
REMARK    2  A    between atoms: C_10  and  O_19
REMARK    3  A    between atoms: C_17  and  O_21
REMARK    4  A    between atoms: C_23  and  O_24
REMARK    5  A    between atoms: C_23  and  C_26
REMARK    6  A    between atoms: C_26  and  C_27
REMARK    7  A    between atoms: C_28  and  C_32
REMARK                            x       y       z     vdW  Elec       q    Type
REMARK                         _______ _______ _______ _____ _____    ______ ____
ROOT
ATOM      1  O   UNL     1     -34.625  24.191   1.386  0.00  0.00    -0.479 OA
ATOM      2  O   UNL     1     -33.302  26.527   1.470  0.00  0.00    -0.287 OA
ATOM      3  O   UNL     1     -33.669  26.633   6.794  0.00  0.00    -0.283 OA
ATOM      4  C   UNL     1     -35.820  22.360   2.442  0.00  0.00    +0.086 C 
ATOM      5  C   UNL     1     -34.957  22.787   1.225  0.00  0.00    +0.172 C 
ATOM      6  C   UNL     1     -35.270  23.345   3.427  0.00  0.00    +0.051 C 
ATOM      7  C   UNL     1     -35.564  20.899   2.819  0.00  0.00    +0.011 C 
ATOM      8  C   UNL     1     -34.623  24.375   2.748  0.00  0.00    +0.141 C 
ATOM      9  C   UNL     1     -35.599  22.597  -0.142  0.00  0.00    +0.048 C 
ATOM     10  C   UNL     1     -35.371  23.366   4.807  0.00  0.00    +0.133 C 
ATOM     11  C   UNL     1     -34.073  25.464   3.415  0.00  0.00    +0.076 C 
ATOM     12  C   UNL     1     -34.169  25.488   4.807  0.00  0.00    +0.051 C 
ATOM     13  C   UNL     1     -34.812  24.442   5.499  0.00  0.00    +0.040 C 
ATOM     14  C   UNL     1     -33.403  26.558   2.692  0.00  0.00    +0.198 C 
ATOM     15  C   UNL     1     -33.600  26.609   5.569  0.00  0.00    +0.229 C 
ATOM     16  C   UNL     1     -32.849  27.703   3.481  0.00  0.00    +0.054 C 
ATOM     17  C   UNL     1     -32.938  27.712   4.824  0.00  0.00    +0.176 C 
ATOM     18  C   UNL     1     -32.224  28.785   2.642  0.00  0.00    +0.038 C 
ENDROOT
BRANCH  10  19
ATOM     19  O   UNL     1     -35.974  22.366   5.500  0.00  0.00    -0.506 OA
ATOM     20  H   UNL     1     -36.297  22.524   6.366  0.00  0.00    +0.292 HD
ENDBRANCH  10  19
BRANCH  17  21
ATOM     21  O   UNL     1     -32.434  28.715   5.628  0.00  0.00    -0.468 OA
ATOM     22  C   UNL     1     -31.066  28.496   5.902  0.00  0.00    +0.253 C 
ENDBRANCH  17  21
BRANCH   4  23
ATOM     23  C   UNL     1     -37.327  22.604   2.266  0.00  0.00    +0.122 C 
BRANCH  23  24
ATOM     24  O   UNL     1     -37.781  23.393   3.361  0.00  0.00    -0.384 OA
ATOM     25  H   UNL     1     -38.449  22.898   3.861  0.00  0.00    +0.210 HD
ENDBRANCH  23  24
BRANCH  23  26
ATOM     26  C   UNL     1     -38.094  21.282   2.249  0.00  0.00    +0.055 C 
BRANCH  26  27
ATOM     27  C   UNL     1     -39.367  21.395   1.452  0.00  0.00    -0.023 C 
ATOM     28  C   UNL     1     -39.573  20.998   0.182  0.00  0.00    +0.027 C 
ATOM     29  C   UNL     1     -38.562  20.291  -0.674  0.00  0.00    +0.035 C 
BRANCH  28  32
ATOM     30  O   UNL     1     -41.936  20.626  -0.006  0.00  0.00    -0.271 OA
ATOM     31  N   UNL     1     -41.009  22.246  -1.327  0.00  0.00    -0.326 N 
ATOM     32  C   UNL     1     -40.946  21.256  -0.372  0.00  0.00    +0.238 C 
ATOM     33  H   UNL     1     -41.873  22.477  -1.739  0.00  0.00    +0.145 HD
ATOM     34  H   UNL     1     -40.192  22.723  -1.595  0.00  0.00    +0.145 HD
ENDBRANCH  28  32
ENDBRANCH  26  27
ENDBRANCH  23  26
ENDBRANCH   4  23
TORSDOF 7
ENDMDL
MODEL 3
REMARK VINA RESULT:      -6.5      6.024      9.179
REMARK  Name = 53392669
REMARK  7 active torsions:
REMARK  status: ('A' for Active; 'I' for Inactive)
REMARK    1  A    between atoms: C_4  and  C_23
REMARK    2  A    between atoms: C_10  and  O_19
REMARK    3  A    between atoms: C_17  and  O_21
REMARK    4  A    between atoms: C_23  and  O_24
REMARK    5  A    between atoms: C_23  and  C_26
REMARK    6  A    between atoms: C_26  and  C_27
REMARK    7  A    between atoms: C_28  and  C_32
REMARK                            x       y       z     vdW  Elec       q    Type
REMARK                         _______ _______ _______ _____ _____    ______ ____
ROOT
ATOM      1  O   UNL     1     -33.302  22.312   0.496  0.00  0.00    -0.479 OA
ATOM      2  O   UNL     1     -30.912  21.452  -0.374  0.00  0.00    -0.287 OA
ATOM      3  O   UNL     1     -32.562  16.382  -0.141  0.00  0.00    -0.283 OA
ATOM      4  C   UNL     1     -35.560  21.928   1.303  0.00  0.00    +0.086 C 
ATOM      5  C   UNL     1     -34.619  22.919   0.567  0.00  0.00    +0.172 C 
ATOM      6  C   UNL     1     -34.853  20.665   0.916  0.00  0.00    +0.051 C 
ATOM      7  C   UNL     1     -36.992  22.023   0.770  0.00  0.00    +0.011 C 
ATOM      8  C   UNL     1     -33.561  20.962   0.490  0.00  0.00    +0.141 C 
ATOM      9  C   UNL     1     -34.482  24.297   1.200  0.00  0.00    +0.048 C 
ATOM     10  C   UNL     1     -35.289  19.353   0.982  0.00  0.00    +0.133 C 
ATOM     11  C   UNL     1     -32.658  19.968   0.133  0.00  0.00    +0.076 C 
ATOM     12  C   UNL     1     -33.092  18.644   0.194  0.00  0.00    +0.051 C 
ATOM     13  C   UNL     1     -34.403  18.338   0.613  0.00  0.00    +0.040 C 
ATOM     14  C   UNL     1     -31.287  20.287  -0.303  0.00  0.00    +0.198 C 
ATOM     15  C   UNL     1     -32.185  17.548  -0.180  0.00  0.00    +0.229 C 
ATOM     16  C   UNL     1     -30.369  19.159  -0.658  0.00  0.00    +0.054 C 
ATOM     17  C   UNL     1     -30.801  17.886  -0.605  0.00  0.00    +0.176 C 
ATOM     18  C   UNL     1     -28.981  19.593  -1.048  0.00  0.00    +0.038 C 
ENDROOT
BRANCH  10  19
ATOM     19  O   UNL     1     -36.549  19.031   1.370  0.00  0.00    -0.506 OA
ATOM     20  H   UNL     1     -37.262  19.606   1.172  0.00  0.00    +0.292 HD
ENDBRANCH  10  19
BRANCH  17  21
ATOM     21  O   UNL     1     -30.029  16.790  -0.937  0.00  0.00    -0.468 OA
ATOM     22  C   UNL     1     -29.283  16.349   0.179  0.00  0.00    +0.253 C 
ENDBRANCH  17  21
BRANCH   4  23
ATOM     23  C   UNL     1     -35.555  22.068   2.832  0.00  0.00    +0.122 C 
BRANCH  23  24
ATOM     24  O   UNL     1     -35.550  20.760   3.398  0.00  0.00    -0.384 OA
ATOM     25  H   UNL     1     -35.047  20.161   2.824  0.00  0.00    +0.210 HD
ENDBRANCH  23  24
BRANCH  23  26
ATOM     26  C   UNL     1     -36.796  22.817   3.315  0.00  0.00    +0.055 C 
BRANCH  26  27
ATOM     27  C   UNL     1     -36.431  24.126   3.964  0.00  0.00    -0.023 C 
ATOM     28  C   UNL     1     -35.775  24.306   5.127  0.00  0.00    +0.027 C 
ATOM     29  C   UNL     1     -35.218  23.203   5.980  0.00  0.00    +0.035 C 
BRANCH  28  32
ATOM     30  O   UNL     1     -34.499  26.137   6.007  0.00  0.00    -0.271 OA
ATOM     31  N   UNL     1     -36.659  26.552   5.387  0.00  0.00    -0.326 N 
ATOM     32  C   UNL     1     -35.565  25.733   5.547  0.00  0.00    +0.238 C 
ATOM     33  H   UNL     1     -36.603  27.502   5.638  0.00  0.00    +0.145 HD
ATOM     34  H   UNL     1     -37.496  26.188   5.019  0.00  0.00    +0.145 HD
ENDBRANCH  28  32
ENDBRANCH  26  27
ENDBRANCH  23  26
ENDBRANCH   4  23
TORSDOF 7
ENDMDL
MODEL 4
REMARK VINA RESULT:      -6.5      3.504      8.182
REMARK  Name = 53392669
REMARK  7 active torsions:
REMARK  status: ('A' for Active; 'I' for Inactive)
REMARK    1  A    between atoms: C_4  and  C_23
REMARK    2  A    between atoms: C_10  and  O_19
REMARK    3  A    between atoms: C_17  and  O_21
REMARK    4  A    between atoms: C_23  and  O_24
REMARK    5  A    between atoms: C_23  and  C_26
REMARK    6  A    between atoms: C_26  and  C_27
REMARK    7  A    between atoms: C_28  and  C_32
REMARK                            x       y       z     vdW  Elec       q    Type
REMARK                         _______ _______ _______ _____ _____    ______ ____
ROOT
ATOM      1  O   UNL     1     -34.760  23.861   1.511  0.00  0.00    -0.479 OA
ATOM      2  O   UNL     1     -33.500  26.231   1.424  0.00  0.00    -0.287 OA
ATOM      3  O   UNL     1     -33.702  26.625   6.743  0.00  0.00    -0.283 OA
ATOM      4  C   UNL     1     -35.871  22.062   2.705  0.00  0.00    +0.086 C 
ATOM      5  C   UNL     1     -35.058  22.443   1.438  0.00  0.00    +0.172 C 
ATOM      6  C   UNL     1     -35.316  23.114   3.616  0.00  0.00    +0.051 C 
ATOM      7  C   UNL     1     -35.563  20.631   3.153  0.00  0.00    +0.011 C 
ATOM      8  C   UNL     1     -34.720  24.121   2.861  0.00  0.00    +0.141 C 
ATOM      9  C   UNL     1     -35.737  22.161   0.105  0.00  0.00    +0.048 C 
ATOM     10  C   UNL     1     -35.375  23.209   4.996  0.00  0.00    +0.133 C 
ATOM     11  C   UNL     1     -34.180  25.259   3.449  0.00  0.00    +0.076 C 
ATOM     12  C   UNL     1     -34.233  25.358   4.839  0.00  0.00    +0.051 C 
ATOM     13  C   UNL     1     -34.825  24.337   5.609  0.00  0.00    +0.040 C 
ATOM     14  C   UNL     1     -33.563  26.328   2.645  0.00  0.00    +0.198 C 
ATOM     15  C   UNL     1     -33.671  26.535   5.520  0.00  0.00    +0.229 C 
ATOM     16  C   UNL     1     -33.016  27.529   3.351  0.00  0.00    +0.054 C 
ATOM     17  C   UNL     1     -33.063  27.611   4.694  0.00  0.00    +0.176 C 
ATOM     18  C   UNL     1     -32.448  28.579   2.434  0.00  0.00    +0.038 C 
ENDROOT
BRANCH  10  19
ATOM     19  O   UNL     1     -35.928  22.235   5.761  0.00  0.00    -0.506 OA
ATOM     20  H   UNL     1     -36.656  22.432   6.318  0.00  0.00    +0.292 HD
ENDBRANCH  10  19
BRANCH  17  21
ATOM     21  O   UNL     1     -32.562  28.669   5.425  0.00  0.00    -0.468 OA
ATOM     22  C   UNL     1     -31.192  28.476   5.710  0.00  0.00    +0.253 C 
ENDBRANCH  17  21
BRANCH   4  23
ATOM     23  C   UNL     1     -37.388  22.256   2.565  0.00  0.00    +0.122 C 
BRANCH  23  24
ATOM     24  O   UNL     1     -37.971  20.995   2.250  0.00  0.00    -0.384 OA
ATOM     25  H   UNL     1     -37.500  20.600   1.499  0.00  0.00    +0.210 HD
ENDBRANCH  23  24
BRANCH  23  26
ATOM     26  C   UNL     1     -37.709  23.248   1.448  0.00  0.00    +0.055 C 
BRANCH  26  27
ATOM     27  C   UNL     1     -38.816  24.188   1.848  0.00  0.00    -0.023 C 
ATOM     28  C   UNL     1     -38.715  25.505   2.109  0.00  0.00    +0.027 C 
ATOM     29  C   UNL     1     -37.456  26.313   1.984  0.00  0.00    +0.035 C 
BRANCH  28  32
ATOM     30  O   UNL     1     -40.552  27.014   1.788  0.00  0.00    -0.271 OA
ATOM     31  N   UNL     1     -40.472  25.844   3.750  0.00  0.00    -0.326 N 
ATOM     32  C   UNL     1     -39.989  26.194   2.510  0.00  0.00    +0.238 C 
ATOM     33  H   UNL     1     -41.303  26.251   4.086  0.00  0.00    +0.145 HD
ATOM     34  H   UNL     1     -39.988  25.187   4.299  0.00  0.00    +0.145 HD
ENDBRANCH  28  32
ENDBRANCH  26  27
ENDBRANCH  23  26
ENDBRANCH   4  23
TORSDOF 7
ENDMDL
MODEL 5
REMARK VINA RESULT:      -6.4      3.541      7.997
REMARK  Name = 53392669
REMARK  7 active torsions:
REMARK  status: ('A' for Active; 'I' for Inactive)
REMARK    1  A    between atoms: C_4  and  C_23
REMARK    2  A    between atoms: C_10  and  O_19
REMARK    3  A    between atoms: C_17  and  O_21
REMARK    4  A    between atoms: C_23  and  O_24
REMARK    5  A    between atoms: C_23  and  C_26
REMARK    6  A    between atoms: C_26  and  C_27
REMARK    7  A    between atoms: C_28  and  C_32
REMARK                            x       y       z     vdW  Elec       q    Type
REMARK                         _______ _______ _______ _____ _____    ______ ____
ROOT
ATOM      1  O   UNL     1     -34.479  24.816   5.557  0.00  0.00    -0.479 OA
ATOM      2  O   UNL     1     -32.851  26.700   6.563  0.00  0.00    -0.287 OA
ATOM      3  O   UNL     1     -33.356  29.620   2.124  0.00  0.00    -0.283 OA
ATOM      4  C   UNL     1     -35.853  23.889   3.782  0.00  0.00    +0.086 C 
ATOM      5  C   UNL     1     -35.617  23.948   5.315  0.00  0.00    +0.172 C 
ATOM      6  C   UNL     1     -35.295  25.238   3.447  0.00  0.00    +0.051 C 
ATOM      7  C   UNL     1     -37.340  23.735   3.454  0.00  0.00    +0.011 C 
ATOM      8  C   UNL     1     -34.501  25.692   4.497  0.00  0.00    +0.141 C 
ATOM      9  C   UNL     1     -35.359  22.613   5.999  0.00  0.00    +0.048 C 
ATOM     10  C   UNL     1     -35.430  25.988   2.291  0.00  0.00    +0.133 C 
ATOM     11  C   UNL     1     -33.804  26.892   4.427  0.00  0.00    +0.076 C 
ATOM     12  C   UNL     1     -33.939  27.654   3.266  0.00  0.00    +0.051 C 
ATOM     13  C   UNL     1     -34.751  27.205   2.205  0.00  0.00    +0.040 C 
ATOM     14  C   UNL     1     -32.954  27.361   5.535  0.00  0.00    +0.198 C 
ATOM     15  C   UNL     1     -33.233  28.938   3.136  0.00  0.00    +0.229 C 
ATOM     16  C   UNL     1     -32.224  28.658   5.377  0.00  0.00    +0.054 C 
ATOM     17  C   UNL     1     -32.369  29.390   4.257  0.00  0.00    +0.176 C 
ATOM     18  C   UNL     1     -31.351  29.022   6.548  0.00  0.00    +0.038 C 
ENDROOT
BRANCH  10  19
ATOM     19  O   UNL     1     -36.215  25.586   1.259  0.00  0.00    -0.506 OA
ATOM     20  H   UNL     1     -35.836  25.421   0.418  0.00  0.00    +0.292 HD
ENDBRANCH  10  19
BRANCH  17  21
ATOM     21  O   UNL     1     -31.753  30.606   4.040  0.00  0.00    -0.468 OA
ATOM     22  C   UNL     1     -30.465  30.422   3.488  0.00  0.00    +0.253 C 
ENDBRANCH  17  21
BRANCH   4  23
ATOM     23  C   UNL     1     -35.038  22.807   3.059  0.00  0.00    +0.122 C 
BRANCH  23  24
ATOM     24  O   UNL     1     -34.458  23.390   1.895  0.00  0.00    -0.384 OA
ATOM     25  H   UNL     1     -33.945  24.174   2.148  0.00  0.00    +0.210 HD
ENDBRANCH  23  24
BRANCH  23  26
ATOM     26  C   UNL     1     -35.932  21.640   2.640  0.00  0.00    +0.055 C 
BRANCH  26  27
ATOM     27  C   UNL     1     -35.119  20.416   2.307  0.00  0.00    -0.023 C 
ATOM     28  C   UNL     1     -34.770  19.977   1.083  0.00  0.00    +0.027 C 
ATOM     29  C   UNL     1     -35.082  20.681  -0.206  0.00  0.00    +0.035 C 
BRANCH  28  32
ATOM     30  O   UNL     1     -32.856  18.611   1.559  0.00  0.00    -0.271 OA
ATOM     31  N   UNL     1     -34.572  17.658   0.387  0.00  0.00    -0.326 N 
ATOM     32  C   UNL     1     -33.969  18.705   1.046  0.00  0.00    +0.238 C 
ATOM     33  H   UNL     1     -34.113  16.791   0.319  0.00  0.00    +0.145 HD
ATOM     34  H   UNL     1     -35.463  17.778  -0.015  0.00  0.00    +0.145 HD
ENDBRANCH  28  32
ENDBRANCH  26  27
ENDBRANCH  23  26
ENDBRANCH   4  23
TORSDOF 7
ENDMDL
MODEL 6
REMARK VINA RESULT:      -6.4      3.930      6.726
REMARK  Name = 53392669
REMARK  7 active torsions:
REMARK  status: ('A' for Active; 'I' for Inactive)
REMARK    1  A    between atoms: C_4  and  C_23
REMARK    2  A    between atoms: C_10  and  O_19
REMARK    3  A    between atoms: C_17  and  O_21
REMARK    4  A    between atoms: C_23  and  O_24
REMARK    5  A    between atoms: C_23  and  C_26
REMARK    6  A    between atoms: C_26  and  C_27
REMARK    7  A    between atoms: C_28  and  C_32
REMARK                            x       y       z     vdW  Elec       q    Type
REMARK                         _______ _______ _______ _____ _____    ______ ____
ROOT
ATOM      1  O   UNL     1     -33.223  28.214   4.394  0.00  0.00    -0.479 OA
ATOM      2  O   UNL     1     -33.830  25.889   5.592  0.00  0.00    -0.287 OA
ATOM      3  O   UNL     1     -37.201  24.642   1.646  0.00  0.00    -0.283 OA
ATOM      4  C   UNL     1     -33.493  29.851   2.620  0.00  0.00    +0.086 C 
ATOM      5  C   UNL     1     -32.525  29.273   3.687  0.00  0.00    +0.172 C 
ATOM      6  C   UNL     1     -34.305  28.611   2.402  0.00  0.00    +0.051 C 
ATOM      7  C   UNL     1     -32.734  30.320   1.377  0.00  0.00    +0.011 C 
ATOM      8  C   UNL     1     -34.119  27.735   3.468  0.00  0.00    +0.141 C 
ATOM      9  C   UNL     1     -31.995  30.267   4.710  0.00  0.00    +0.048 C 
ATOM     10  C   UNL     1     -35.179  28.297   1.375  0.00  0.00    +0.133 C 
ATOM     11  C   UNL     1     -34.806  26.530   3.557  0.00  0.00    +0.076 C 
ATOM     12  C   UNL     1     -35.685  26.206   2.523  0.00  0.00    +0.051 C 
ATOM     13  C   UNL     1     -35.868  27.084   1.436  0.00  0.00    +0.040 C 
ATOM     14  C   UNL     1     -34.617  25.612   4.694  0.00  0.00    +0.198 C 
ATOM     15  C   UNL     1     -36.435  24.940   2.557  0.00  0.00    +0.229 C 
ATOM     16  C   UNL     1     -35.404  24.339   4.724  0.00  0.00    +0.054 C 
ATOM     17  C   UNL     1     -36.242  24.032   3.717  0.00  0.00    +0.176 C 
ATOM     18  C   UNL     1     -35.167  23.497   5.949  0.00  0.00    +0.038 C 
ENDROOT
BRANCH  10  19
ATOM     19  O   UNL     1     -35.365  29.118   0.311  0.00  0.00    -0.506 OA
ATOM     20  H   UNL     1     -34.814  29.041  -0.444  0.00  0.00    +0.292 HD
ENDBRANCH  10  19
BRANCH  17  21
ATOM     21  O   UNL     1     -36.987  22.871   3.655  0.00  0.00    -0.468 OA
ATOM     22  C   UNL     1     -36.261  21.846   3.006  0.00  0.00    +0.253 C 
ENDBRANCH  17  21
BRANCH   4  23
ATOM     23  C   UNL     1     -34.406  30.974   3.137  0.00  0.00    +0.122 C 
BRANCH  23  24
ATOM     24  O   UNL     1     -35.557  30.376   3.725  0.00  0.00    -0.384 OA
ATOM     25  H   UNL     1     -35.297  29.890   4.523  0.00  0.00    +0.210 HD
ENDBRANCH  23  24
BRANCH  23  26
ATOM     26  C   UNL     1     -34.845  31.887   1.993  0.00  0.00    +0.055 C 
BRANCH  26  27
ATOM     27  C   UNL     1     -36.346  32.005   1.930  0.00  0.00    -0.023 C 
ATOM     28  C   UNL     1     -37.064  33.058   1.493  0.00  0.00    +0.027 C 
ATOM     29  C   UNL     1     -36.483  34.315   0.914  0.00  0.00    +0.035 C 
BRANCH  28  32
ATOM     30  O   UNL     1     -39.124  31.836   1.354  0.00  0.00    -0.271 OA
ATOM     31  N   UNL     1     -39.243  34.060   1.870  0.00  0.00    -0.326 N 
ATOM     32  C   UNL     1     -38.558  32.907   1.563  0.00  0.00    +0.238 C 
ATOM     33  H   UNL     1     -40.225  34.046   1.936  0.00  0.00    +0.145 HD
ATOM     34  H   UNL     1     -38.751  34.898   2.025  0.00  0.00    +0.145 HD
ENDBRANCH  28  32
ENDBRANCH  26  27
ENDBRANCH  23  26
ENDBRANCH   4  23
TORSDOF 7
ENDMDL
MODEL 7
REMARK VINA RESULT:      -6.3      3.209      7.807
REMARK  Name = 53392669
REMARK  7 active torsions:
REMARK  status: ('A' for Active; 'I' for Inactive)
REMARK    1  A    between atoms: C_4  and  C_23
REMARK    2  A    between atoms: C_10  and  O_19
REMARK    3  A    between atoms: C_17  and  O_21
REMARK    4  A    between atoms: C_23  and  O_24
REMARK    5  A    between atoms: C_23  and  C_26
REMARK    6  A    between atoms: C_26  and  C_27
REMARK    7  A    between atoms: C_28  and  C_32
REMARK                            x       y       z     vdW  Elec       q    Type
REMARK                         _______ _______ _______ _____ _____    ______ ____
ROOT
ATOM      1  O   UNL     1     -33.601  25.941   5.507  0.00  0.00    -0.479 OA
ATOM      2  O   UNL     1     -31.553  27.277   6.617  0.00  0.00    -0.287 OA
ATOM      3  O   UNL     1     -32.171  31.276   3.137  0.00  0.00    -0.283 OA
ATOM      4  C   UNL     1     -35.346  25.685   3.837  0.00  0.00    +0.086 C 
ATOM      5  C   UNL     1     -34.892  25.319   5.276  0.00  0.00    +0.172 C 
ATOM      6  C   UNL     1     -34.620  26.991   3.731  0.00  0.00    +0.051 C 
ATOM      7  C   UNL     1     -36.868  25.815   3.751  0.00  0.00    +0.011 C 
ATOM      8  C   UNL     1     -33.622  27.054   4.700  0.00  0.00    +0.141 C 
ATOM      9  C   UNL     1     -34.771  23.832   5.575  0.00  0.00    +0.048 C 
ATOM     10  C   UNL     1     -34.786  28.023   2.822  0.00  0.00    +0.133 C 
ATOM     11  C   UNL     1     -32.749  28.132   4.787  0.00  0.00    +0.076 C 
ATOM     12  C   UNL     1     -32.914  29.176   3.878  0.00  0.00    +0.051 C 
ATOM     13  C   UNL     1     -33.930  29.123   2.902  0.00  0.00    +0.040 C 
ATOM     14  C   UNL     1     -31.685  28.187   5.805  0.00  0.00    +0.198 C 
ATOM     15  C   UNL     1     -32.025  30.348   3.925  0.00  0.00    +0.229 C 
ATOM     16  C   UNL     1     -30.776  29.376   5.826  0.00  0.00    +0.054 C 
ATOM     17  C   UNL     1     -30.950  30.382   4.950  0.00  0.00    +0.176 C 
ATOM     18  C   UNL     1     -29.699  29.311   6.876  0.00  0.00    +0.038 C 
ENDROOT
BRANCH  10  19
ATOM     19  O   UNL     1     -35.763  28.003   1.881  0.00  0.00    -0.506 OA
ATOM     20  H   UNL     1     -35.541  28.062   0.973  0.00  0.00    +0.292 HD
ENDBRANCH  10  19
BRANCH  17  21
ATOM     21  O   UNL     1     -30.172  31.523   4.915  0.00  0.00    -0.468 OA
ATOM     22  C   UNL     1     -29.016  31.315   4.130  0.00  0.00    +0.253 C 
ENDBRANCH  17  21
BRANCH   4  23
ATOM     23  C   UNL     1     -34.834  24.728   2.751  0.00  0.00    +0.122 C 
BRANCH  23  24
ATOM     24  O   UNL     1     -34.114  25.492   1.788  0.00  0.00    -0.384 OA
ATOM     25  H   UNL     1     -33.162  25.408   1.956  0.00  0.00    +0.210 HD
ENDBRANCH  23  24
BRANCH  23  26
ATOM     26  C   UNL     1     -35.998  24.020   2.057  0.00  0.00    +0.055 C 
BRANCH  26  27
ATOM     27  C   UNL     1     -35.912  22.526   2.228  0.00  0.00    -0.023 C 
ATOM     28  C   UNL     1     -35.140  21.667   1.534  0.00  0.00    +0.027 C 
ATOM     29  C   UNL     1     -34.149  22.062   0.479  0.00  0.00    +0.035 C 
BRANCH  28  32
ATOM     30  O   UNL     1     -34.318  19.447   1.921  0.00  0.00    -0.271 OA
ATOM     31  N   UNL     1     -36.554  19.815   2.216  0.00  0.00    -0.326 N 
ATOM     32  C   UNL     1     -35.275  20.217   1.905  0.00  0.00    +0.238 C 
ATOM     33  H   UNL     1     -36.728  18.880   2.470  0.00  0.00    +0.145 HD
ATOM     34  H   UNL     1     -37.294  20.463   2.186  0.00  0.00    +0.145 HD
ENDBRANCH  28  32
ENDBRANCH  26  27
ENDBRANCH  23  26
ENDBRANCH   4  23
TORSDOF 7
ENDMDL
MODEL 8
REMARK VINA RESULT:      -6.2      3.885      8.787
REMARK  Name = 53392669
REMARK  7 active torsions:
REMARK  status: ('A' for Active; 'I' for Inactive)
REMARK    1  A    between atoms: C_4  and  C_23
REMARK    2  A    between atoms: C_10  and  O_19
REMARK    3  A    between atoms: C_17  and  O_21
REMARK    4  A    between atoms: C_23  and  O_24
REMARK    5  A    between atoms: C_23  and  C_26
REMARK    6  A    between atoms: C_26  and  C_27
REMARK    7  A    between atoms: C_28  and  C_32
REMARK                            x       y       z     vdW  Elec       q    Type
REMARK                         _______ _______ _______ _____ _____    ______ ____
ROOT
ATOM      1  O   UNL     1     -34.876  25.742   1.810  0.00  0.00    -0.479 OA
ATOM      2  O   UNL     1     -33.142  27.780   2.039  0.00  0.00    -0.287 OA
ATOM      3  O   UNL     1     -32.811  27.012   7.310  0.00  0.00    -0.283 OA
ATOM      4  C   UNL     1     -36.249  23.974   2.752  0.00  0.00    +0.086 C 
ATOM      5  C   UNL     1     -35.481  24.461   1.494  0.00  0.00    +0.172 C 
ATOM      6  C   UNL     1     -35.405  24.669   3.776  0.00  0.00    +0.051 C 
ATOM      7  C   UNL     1     -36.224  22.448   2.861  0.00  0.00    +0.011 C 
ATOM      8  C   UNL     1     -34.669  25.682   3.168  0.00  0.00    +0.141 C 
ATOM      9  C   UNL     1     -36.313  24.620   0.229  0.00  0.00    +0.048 C 
ATOM     10  C   UNL     1     -35.327  24.464   5.143  0.00  0.00    +0.133 C 
ATOM     11  C   UNL     1     -33.847  26.533   3.898  0.00  0.00    +0.076 C 
ATOM     12  C   UNL     1     -33.761  26.329   5.275  0.00  0.00    +0.051 C 
ATOM     13  C   UNL     1     -34.495  25.297   5.894  0.00  0.00    +0.040 C 
ATOM     14  C   UNL     1     -33.081  27.613   3.252  0.00  0.00    +0.198 C 
ATOM     15  C   UNL     1     -32.902  27.192   6.100  0.00  0.00    +0.229 C 
ATOM     16  C   UNL     1     -32.229  28.496   4.109  0.00  0.00    +0.054 C 
ATOM     17  C   UNL     1     -32.145  28.285   5.435  0.00  0.00    +0.176 C 
ATOM     18  C   UNL     1     -31.524  29.593   3.356  0.00  0.00    +0.038 C 
ENDROOT
BRANCH  10  19
ATOM     19  O   UNL     1     -36.013  23.470   5.763  0.00  0.00    -0.506 OA
ATOM     20  H   UNL     1     -36.695  23.016   5.307  0.00  0.00    +0.292 HD
ENDBRANCH  10  19
BRANCH  17  21
ATOM     21  O   UNL     1     -31.367  29.036   6.293  0.00  0.00    -0.468 OA
ATOM     22  C   UNL     1     -30.032  28.575   6.289  0.00  0.00    +0.253 C 
ENDBRANCH  17  21
BRANCH   4  23
ATOM     23  C   UNL     1     -37.693  24.487   2.848  0.00  0.00    +0.122 C 
BRANCH  23  24
ATOM     24  O   UNL     1     -37.912  24.954   4.177  0.00  0.00    -0.384 OA
ATOM     25  H   UNL     1     -37.069  24.965   4.658  0.00  0.00    +0.210 HD
ENDBRANCH  23  24
BRANCH  23  26
ATOM     26  C   UNL     1     -38.690  23.369   2.542  0.00  0.00    +0.055 C 
BRANCH  26  27
ATOM     27  C   UNL     1     -40.067  23.918   2.273  0.00  0.00    -0.023 C 
ATOM     28  C   UNL     1     -40.601  24.233   1.077  0.00  0.00    +0.027 C 
ATOM     29  C   UNL     1     -39.926  24.027  -0.248  0.00  0.00    +0.035 C 
BRANCH  28  32
ATOM     30  O   UNL     1     -42.295  25.796   1.743  0.00  0.00    -0.271 OA
ATOM     31  N   UNL     1     -42.921  24.071   0.380  0.00  0.00    -0.326 N 
ATOM     32  C   UNL     1     -41.998  24.786   1.108  0.00  0.00    +0.238 C 
ATOM     33  H   UNL     1     -43.859  24.368   0.349  0.00  0.00    +0.145 HD
ATOM     34  H   UNL     1     -42.643  23.265  -0.111  0.00  0.00    +0.145 HD
ENDBRANCH  28  32
ENDBRANCH  26  27
ENDBRANCH  23  26
ENDBRANCH   4  23
TORSDOF 7
ENDMDL
MODEL 9
REMARK VINA RESULT:      -6.0      6.594     10.771
REMARK  Name = 53392669
REMARK  7 active torsions:
REMARK  status: ('A' for Active; 'I' for Inactive)
REMARK    1  A    between atoms: C_4  and  C_23
REMARK    2  A    between atoms: C_10  and  O_19
REMARK    3  A    between atoms: C_17  and  O_21
REMARK    4  A    between atoms: C_23  and  O_24
REMARK    5  A    between atoms: C_23  and  C_26
REMARK    6  A    between atoms: C_26  and  C_27
REMARK    7  A    between atoms: C_28  and  C_32
REMARK                            x       y       z     vdW  Elec       q    Type
REMARK                         _______ _______ _______ _____ _____    ______ ____
ROOT
ATOM      1  O   UNL     1     -34.222  19.638   0.002  0.00  0.00    -0.479 OA
ATOM      2  O   UNL     1     -32.909  17.353  -0.513  0.00  0.00    -0.287 OA
ATOM      3  O   UNL     1     -37.526  14.726  -1.034  0.00  0.00    -0.283 OA
ATOM      4  C   UNL     1     -36.257  20.911   0.365  0.00  0.00    +0.086 C 
ATOM      5  C   UNL     1     -34.778  20.975  -0.102  0.00  0.00    +0.172 C 
ATOM      6  C   UNL     1     -36.518  19.484  -0.006  0.00  0.00    +0.051 C 
ATOM      7  C   UNL     1     -37.124  21.917  -0.397  0.00  0.00    +0.011 C 
ATOM      8  C   UNL     1     -35.308  18.814  -0.172  0.00  0.00    +0.141 C 
ATOM      9  C   UNL     1     -33.880  21.933   0.668  0.00  0.00    +0.048 C 
ATOM     10  C   UNL     1     -37.720  18.810  -0.137  0.00  0.00    +0.133 C 
ATOM     11  C   UNL     1     -35.253  17.454  -0.455  0.00  0.00    +0.076 C 
ATOM     12  C   UNL     1     -36.461  16.771  -0.592  0.00  0.00    +0.051 C 
ATOM     13  C   UNL     1     -37.688  17.446  -0.437  0.00  0.00    +0.040 C 
ATOM     14  C   UNL     1     -33.971  16.747  -0.615  0.00  0.00    +0.198 C 
ATOM     15  C   UNL     1     -36.468  15.332  -0.900  0.00  0.00    +0.229 C 
ATOM     16  C   UNL     1     -33.995  15.279  -0.906  0.00  0.00    +0.054 C 
ATOM     17  C   UNL     1     -35.166  14.631  -1.046  0.00  0.00    +0.176 C 
ATOM     18  C   UNL     1     -32.632  14.648  -1.008  0.00  0.00    +0.038 C 
ENDROOT
BRANCH  10  19
ATOM     19  O   UNL     1     -38.916  19.438  -0.005  0.00  0.00    -0.506 OA
ATOM     20  H   UNL     1     -39.310  19.857  -0.745  0.00  0.00    +0.292 HD
ENDBRANCH  10  19
BRANCH  17  21
ATOM     21  O   UNL     1     -35.278  13.286  -1.336  0.00  0.00    -0.468 OA
ATOM     22  C   UNL     1     -35.245  13.072  -2.732  0.00  0.00    +0.253 C 
ENDBRANCH  17  21
BRANCH   4  23
ATOM     23  C   UNL     1     -36.451  21.089   1.878  0.00  0.00    +0.122 C 
BRANCH  23  24
ATOM     24  O   UNL     1     -36.796  19.823   2.434  0.00  0.00    -0.384 OA
ATOM     25  H   UNL     1     -36.388  19.732   3.309  0.00  0.00    +0.210 HD
ENDBRANCH  23  24
BRANCH  23  26
ATOM     26  C   UNL     1     -37.571  22.086   2.171  0.00  0.00    +0.055 C 
BRANCH  26  27
ATOM     27  C   UNL     1     -37.223  22.976   3.336  0.00  0.00    -0.023 C 
ATOM     28  C   UNL     1     -36.549  24.142   3.300  0.00  0.00    +0.027 C 
ATOM     29  C   UNL     1     -36.064  24.817   2.050  0.00  0.00    +0.035 C 
BRANCH  28  32
ATOM     30  O   UNL     1     -35.747  24.255   5.558  0.00  0.00    -0.271 OA
ATOM     31  N   UNL     1     -36.826  26.090   4.724  0.00  0.00    -0.326 N 
ATOM     32  C   UNL     1     -36.325  24.811   4.627  0.00  0.00    +0.238 C 
ATOM     33  H   UNL     1     -36.720  26.597   5.560  0.00  0.00    +0.145 HD
ATOM     34  H   UNL     1     -37.287  26.496   3.955  0.00  0.00    +0.145 HD
ENDBRANCH  28  32
ENDBRANCH  26  27
ENDBRANCH  23  26
ENDBRANCH   4  23
TORSDOF 7
ENDMDL
