MODEL 1
REMARK VINA RESULT:      -6.6      0.000      0.000
REMARK  Name = 5496409
REMARK  8 active torsions:
REMARK  status: ('A' for Active; 'I' for Inactive)
REMARK    1  A    between atoms: N_1  and  C_4
REMARK    2  A    between atoms: N_1  and  N_16
REMARK    3  A    between atoms: C_4  and  N_5
REMARK    4  A    between atoms: N_5  and  N_7
REMARK    5  A    between atoms: C_8  and  C_11
REMARK    6  A    between atoms: N_16  and  C_19
REMARK    7  A    between atoms: C_19  and  N_20
REMARK    8  A    between atoms: N_20  and  C_23
REMARK                            x       y       z     vdW  Elec       q    Type
REMARK                         _______ _______ _______ _____ _____    ______ ____
ROOT
ATOM      1  N   UNL     1     -38.026  20.683   1.918  0.00  0.00    -0.245 N 
ATOM      2  H   UNL     1     -38.820  20.240   1.541  0.00  0.00    +0.172 HD
ENDROOT
BRANCH   1   4
ATOM      3  S   UNL     1     -38.353  23.013   0.737  0.00  0.00    -0.016 S 
ATOM      4  C   UNL     1     -38.069  22.040   2.080  0.00  0.00    +0.166 C 
BRANCH   4   5
ATOM      5  N   UNL     1     -37.883  22.633   3.300  0.00  0.00    -0.217 N 
ATOM      6  H   UNL     1     -38.373  22.273   4.073  0.00  0.00    +0.176 HD
BRANCH   5   7
ATOM      7  N   UNL     1     -37.064  23.686   3.497  0.00  0.00    -0.183 NA
ATOM      8  C   UNL     1     -35.957  23.499   4.151  0.00  0.00    +0.094 C 
ATOM      9  C   UNL     1     -35.501  22.172   4.719  0.00  0.00    +0.055 C 
BRANCH   8  11
ATOM     10  N   UNL     1     -34.614  25.231   3.237  0.00  0.00    -0.243 NA
ATOM     11  C   UNL     1     -35.078  24.678   4.363  0.00  0.00    +0.096 C 
ATOM     12  C   UNL     1     -34.819  25.093   5.641  0.00  0.00    +0.020 C 
ATOM     13  C   UNL     1     -33.990  26.200   5.783  0.00  0.00    +0.003 C 
ATOM     14  C   UNL     1     -33.473  26.824   4.652  0.00  0.00    +0.021 C 
ATOM     15  C   UNL     1     -33.812  26.304   3.413  0.00  0.00    +0.099 C 
ENDBRANCH   8  11
ENDBRANCH   5   7
ENDBRANCH   4   5
ENDBRANCH   1   4
BRANCH   1  16
ATOM     16  N   UNL     1     -36.944  19.897   2.249  0.00  0.00    -0.246 N 
ATOM     17  H   UNL     1     -36.906  19.492   3.146  0.00  0.00    +0.172 HD
BRANCH  16  19
ATOM     18  S   UNL     1     -36.123  19.248  -0.254  0.00  0.00    -0.017 S 
ATOM     19  C   UNL     1     -35.915  19.661   1.368  0.00  0.00    +0.151 C 
BRANCH  19  20
ATOM     20  N   UNL     1     -34.624  19.703   1.859  0.00  0.00    -0.294 N 
ATOM     21  H   UNL     1     -34.562  19.948   2.810  0.00  0.00    +0.154 HD
BRANCH  20  23
ATOM     22 CL   UNL     1     -33.497  21.961   0.162  0.00  0.00    -0.081 Cl
ATOM     23  C   UNL     1     -33.374  19.455   1.239  0.00  0.00    +0.060 C 
ATOM     24  C   UNL     1     -32.773  20.417   0.445  0.00  0.00    +0.071 C 
ATOM     25  C   UNL     1     -32.779  18.221   1.451  0.00  0.00    +0.016 C 
ATOM     26  C   UNL     1     -31.543  20.141  -0.153  0.00  0.00    +0.013 C 
ATOM     27  C   UNL     1     -31.549  17.944   0.853  0.00  0.00    +0.001 C 
ATOM     28  C   UNL     1     -30.932  18.904   0.052  0.00  0.00    +0.001 C 
ENDBRANCH  20  23
ENDBRANCH  19  20
ENDBRANCH  16  19
ENDBRANCH   1  16
TORSDOF 8
ENDMDL
MODEL 2
REMARK VINA RESULT:      -6.4      3.759      5.796
REMARK  Name = 5496409
REMARK  8 active torsions:
REMARK  status: ('A' for Active; 'I' for Inactive)
REMARK    1  A    between atoms: N_1  and  C_4
REMARK    2  A    between atoms: N_1  and  N_16
REMARK    3  A    between atoms: C_4  and  N_5
REMARK    4  A    between atoms: N_5  and  N_7
REMARK    5  A    between atoms: C_8  and  C_11
REMARK    6  A    between atoms: N_16  and  C_19
REMARK    7  A    between atoms: C_19  and  N_20
REMARK    8  A    between atoms: N_20  and  C_23
REMARK                            x       y       z     vdW  Elec       q    Type
REMARK                         _______ _______ _______ _____ _____    ______ ____
ROOT
ATOM      1  N   UNL     1     -37.214  26.547   2.951  0.00  0.00    -0.245 N 
ATOM      2  H   UNL     1     -38.077  26.431   2.492  0.00  0.00    +0.172 HD
ENDROOT
BRANCH   1   4
ATOM      3  S   UNL     1     -35.450  25.927   1.099  0.00  0.00    -0.016 S 
ATOM      4  C   UNL     1     -36.149  26.978   2.210  0.00  0.00    +0.166 C 
BRANCH   4   5
ATOM      5  N   UNL     1     -35.630  28.238   2.347  0.00  0.00    -0.217 N 
ATOM      6  H   UNL     1     -35.817  28.898   1.643  0.00  0.00    +0.176 HD
BRANCH   5   7
ATOM      7  N   UNL     1     -34.875  28.620   3.396  0.00  0.00    -0.183 NA
ATOM      8  C   UNL     1     -33.608  28.837   3.206  0.00  0.00    +0.094 C 
ATOM      9  C   UNL     1     -32.895  28.694   1.878  0.00  0.00    +0.055 C 
BRANCH   8  11
ATOM     10  N   UNL     1     -32.514  28.254   5.231  0.00  0.00    -0.243 NA
ATOM     11  C   UNL     1     -32.798  29.247   4.381  0.00  0.00    +0.096 C 
ATOM     12  C   UNL     1     -32.418  30.557   4.503  0.00  0.00    +0.020 C 
ATOM     13  C   UNL     1     -31.661  30.886   5.622  0.00  0.00    +0.003 C 
ATOM     14  C   UNL     1     -31.330  29.901   6.546  0.00  0.00    +0.021 C 
ATOM     15  C   UNL     1     -31.777  28.611   6.307  0.00  0.00    +0.099 C 
ENDBRANCH   8  11
ENDBRANCH   5   7
ENDBRANCH   4   5
ENDBRANCH   1   4
BRANCH   1  16
ATOM     16  N   UNL     1     -37.157  26.265   4.299  0.00  0.00    -0.246 N 
ATOM     17  H   UNL     1     -37.699  26.802   4.921  0.00  0.00    +0.172 HD
BRANCH  16  19
ATOM     18  S   UNL     1     -34.839  25.495   5.480  0.00  0.00    -0.017 S 
ATOM     19  C   UNL     1     -36.365  25.259   4.802  0.00  0.00    +0.151 C 
BRANCH  19  20
ATOM     20  N   UNL     1     -36.823  23.961   4.688  0.00  0.00    -0.294 N 
ATOM     21  H   UNL     1     -37.504  23.714   5.353  0.00  0.00    +0.154 HD
BRANCH  20  23
ATOM     22 CL   UNL     1     -34.986  21.789   5.763  0.00  0.00    -0.081 Cl
ATOM     23  C   UNL     1     -36.488  22.922   3.784  0.00  0.00    +0.060 C 
ATOM     24  C   UNL     1     -35.658  21.884   4.173  0.00  0.00    +0.071 C 
ATOM     25  C   UNL     1     -37.015  22.983   2.503  0.00  0.00    +0.016 C 
ATOM     26  C   UNL     1     -35.346  20.878   3.258  0.00  0.00    +0.013 C 
ATOM     27  C   UNL     1     -36.703  21.977   1.588  0.00  0.00    +0.001 C 
ATOM     28  C   UNL     1     -35.868  20.926   1.966  0.00  0.00    +0.001 C 
ENDBRANCH  20  23
ENDBRANCH  19  20
ENDBRANCH  16  19
ENDBRANCH   1  16
TORSDOF 8
ENDMDL
MODEL 3
REMARK VINA RESULT:      -6.3      2.047      6.143
REMARK  Name = 5496409
REMARK  8 active torsions:
REMARK  status: ('A' for Active; 'I' for Inactive)
REMARK    1  A    between atoms: N_1  and  C_4
REMARK    2  A    between atoms: N_1  and  N_16
REMARK    3  A    between atoms: C_4  and  N_5
REMARK    4  A    between atoms: N_5  and  N_7
REMARK    5  A    between atoms: C_8  and  C_11
REMARK    6  A    between atoms: N_16  and  C_19
REMARK    7  A    between atoms: C_19  and  N_20
REMARK    8  A    between atoms: N_20  and  C_23
REMARK                            x       y       z     vdW  Elec       q    Type
REMARK                         _______ _______ _______ _____ _____    ______ ____
ROOT
ATOM      1  N   UNL     1     -39.503  22.910   2.274  0.00  0.00    -0.245 N 
ATOM      2  H   UNL     1     -40.447  23.159   2.151  0.00  0.00    +0.172 HD
ENDROOT
BRANCH   1   4
ATOM      3  S   UNL     1     -39.728  21.296   0.208  0.00  0.00    -0.016 S 
ATOM      4  C   UNL     1     -39.063  21.759   1.681  0.00  0.00    +0.166 C 
BRANCH   4   5
ATOM      5  N   UNL     1     -38.100  20.969   2.250  0.00  0.00    -0.217 N 
ATOM      6  H   UNL     1     -38.256  20.627   3.159  0.00  0.00    +0.176 HD
BRANCH   5   7
ATOM      7  N   UNL     1     -36.951  20.635   1.630  0.00  0.00    -0.183 NA
ATOM      8  C   UNL     1     -35.829  21.063   2.127  0.00  0.00    +0.094 C 
ATOM      9  C   UNL     1     -35.703  21.920   3.369  0.00  0.00    +0.055 C 
BRANCH   8  11
ATOM     10  N   UNL     1     -34.066  21.658   0.652  0.00  0.00    -0.243 NA
ATOM     11  C   UNL     1     -34.578  20.689   1.419  0.00  0.00    +0.096 C 
ATOM     12  C   UNL     1     -34.063  19.433   1.596  0.00  0.00    +0.020 C 
ATOM     13  C   UNL     1     -32.891  19.135   0.909  0.00  0.00    +0.003 C 
ATOM     14  C   UNL     1     -32.306  20.098   0.094  0.00  0.00    +0.021 C 
ATOM     15  C   UNL     1     -32.928  21.333   0.000  0.00  0.00    +0.099 C 
ENDBRANCH   8  11
ENDBRANCH   5   7
ENDBRANCH   4   5
ENDBRANCH   1   4
BRANCH   1  16
ATOM     16  N   UNL     1     -38.710  23.742   3.034  0.00  0.00    -0.246 N 
ATOM     17  H   UNL     1     -37.946  23.357   3.522  0.00  0.00    +0.172 HD
BRANCH  16  19
ATOM     18  S   UNL     1     -40.302  25.870   2.488  0.00  0.00    -0.017 S 
ATOM     19  C   UNL     1     -38.952  25.092   3.134  0.00  0.00    +0.151 C 
BRANCH  19  20
ATOM     20  N   UNL     1     -37.994  25.875   3.750  0.00  0.00    -0.294 N 
ATOM     21  H   UNL     1     -38.319  26.758   4.037  0.00  0.00    +0.154 HD
BRANCH  20  23
ATOM     22 CL   UNL     1     -36.018  26.459   1.514  0.00  0.00    -0.081 Cl
ATOM     23  C   UNL     1     -36.629  25.632   4.043  0.00  0.00    +0.060 C 
ATOM     24  C   UNL     1     -35.648  25.866   3.094  0.00  0.00    +0.071 C 
ATOM     25  C   UNL     1     -36.313  25.153   5.305  0.00  0.00    +0.016 C 
ATOM     26  C   UNL     1     -34.314  25.615   3.414  0.00  0.00    +0.013 C 
ATOM     27  C   UNL     1     -34.978  24.902   5.625  0.00  0.00    +0.001 C 
ATOM     28  C   UNL     1     -33.980  25.133   4.680  0.00  0.00    +0.001 C 
ENDBRANCH  20  23
ENDBRANCH  19  20
ENDBRANCH  16  19
ENDBRANCH   1  16
TORSDOF 8
ENDMDL
MODEL 4
REMARK VINA RESULT:      -6.3      3.865      6.522
REMARK  Name = 5496409
REMARK  8 active torsions:
REMARK  status: ('A' for Active; 'I' for Inactive)
REMARK    1  A    between atoms: N_1  and  C_4
REMARK    2  A    between atoms: N_1  and  N_16
REMARK    3  A    between atoms: C_4  and  N_5
REMARK    4  A    between atoms: N_5  and  N_7
REMARK    5  A    between atoms: C_8  and  C_11
REMARK    6  A    between atoms: N_16  and  C_19
REMARK    7  A    between atoms: C_19  and  N_20
REMARK    8  A    between atoms: N_20  and  C_23
REMARK                            x       y       z     vdW  Elec       q    Type
REMARK                         _______ _______ _______ _____ _____    ______ ____
ROOT
ATOM      1  N   UNL     1     -35.593  27.209   4.154  0.00  0.00    -0.245 N 
ATOM      2  H   UNL     1     -35.953  28.047   3.784  0.00  0.00    +0.172 HD
ENDROOT
BRANCH   1   4
ATOM      3  S   UNL     1     -33.593  25.545   3.757  0.00  0.00    -0.016 S 
ATOM      4  C   UNL     1     -34.236  27.046   4.161  0.00  0.00    +0.166 C 
BRANCH   4   5
ATOM      5  N   UNL     1     -33.382  28.063   4.492  0.00  0.00    -0.217 N 
ATOM      6  H   UNL     1     -33.690  28.989   4.367  0.00  0.00    +0.176 HD
BRANCH   5   7
ATOM      7  N   UNL     1     -32.143  27.864   4.983  0.00  0.00    -0.183 NA
ATOM      8  C   UNL     1     -31.495  28.879   5.471  0.00  0.00    +0.094 C 
ATOM      9  C   UNL     1     -32.028  30.295   5.537  0.00  0.00    +0.055 C 
BRANCH   8  11
ATOM     10  N   UNL     1     -29.456  27.668   5.357  0.00  0.00    -0.243 NA
ATOM     11  C   UNL     1     -30.127  28.633   5.995  0.00  0.00    +0.096 C 
ATOM     12  C   UNL     1     -29.674  29.382   7.048  0.00  0.00    +0.020 C 
ATOM     13  C   UNL     1     -28.387  29.110   7.499  0.00  0.00    +0.003 C 
ATOM     14  C   UNL     1     -27.633  28.118   6.880  0.00  0.00    +0.021 C 
ATOM     15  C   UNL     1     -28.209  27.432   5.822  0.00  0.00    +0.099 C 
ENDBRANCH   8  11
ENDBRANCH   5   7
ENDBRANCH   4   5
ENDBRANCH   1   4
BRANCH   1  16
ATOM     16  N   UNL     1     -36.489  26.276   4.630  0.00  0.00    -0.246 N 
ATOM     17  H   UNL     1     -36.581  26.158   5.603  0.00  0.00    +0.172 HD
BRANCH  16  19
ATOM     18  S   UNL     1     -38.085  26.094   2.443  0.00  0.00    -0.017 S 
ATOM     19  C   UNL     1     -37.257  25.504   3.789  0.00  0.00    +0.151 C 
BRANCH  19  20
ATOM     20  N   UNL     1     -37.412  24.168   4.104  0.00  0.00    -0.294 N 
ATOM     21  H   UNL     1     -38.103  23.992   4.782  0.00  0.00    +0.154 HD
BRANCH  20  23
ATOM     22 CL   UNL     1     -35.320  22.954   5.946  0.00  0.00    -0.081 Cl
ATOM     23  C   UNL     1     -36.757  23.007   3.625  0.00  0.00    +0.060 C 
ATOM     24  C   UNL     1     -35.787  22.376   4.385  0.00  0.00    +0.071 C 
ATOM     25  C   UNL     1     -37.116  22.530   2.374  0.00  0.00    +0.016 C 
ATOM     26  C   UNL     1     -35.159  21.236   3.883  0.00  0.00    +0.013 C 
ATOM     27  C   UNL     1     -36.488  21.390   1.871  0.00  0.00    +0.001 C 
ATOM     28  C   UNL     1     -35.510  20.744   2.627  0.00  0.00    +0.001 C 
ENDBRANCH  20  23
ENDBRANCH  19  20
ENDBRANCH  16  19
ENDBRANCH   1  16
TORSDOF 8
ENDMDL
MODEL 5
REMARK VINA RESULT:      -6.3      5.259      7.296
REMARK  Name = 5496409
REMARK  8 active torsions:
REMARK  status: ('A' for Active; 'I' for Inactive)
REMARK    1  A    between atoms: N_1  and  C_4
REMARK    2  A    between atoms: N_1  and  N_16
REMARK    3  A    between atoms: C_4  and  N_5
REMARK    4  A    between atoms: N_5  and  N_7
REMARK    5  A    between atoms: C_8  and  C_11
REMARK    6  A    between atoms: N_16  and  C_19
REMARK    7  A    between atoms: C_19  and  N_20
REMARK    8  A    between atoms: N_20  and  C_23
REMARK                            x       y       z     vdW  Elec       q    Type
REMARK                         _______ _______ _______ _____ _____    ______ ____
ROOT
ATOM      1  N   UNL     1     -38.527  25.081   4.038  0.00  0.00    -0.245 N 
ATOM      2  H   UNL     1     -38.616  24.437   4.778  0.00  0.00    +0.172 HD
ENDROOT
BRANCH   1   4
ATOM      3  S   UNL     1     -39.438  23.469   2.168  0.00  0.00    -0.016 S 
ATOM      4  C   UNL     1     -39.369  24.946   2.969  0.00  0.00    +0.166 C 
BRANCH   4   5
ATOM      5  N   UNL     1     -40.154  25.976   2.527  0.00  0.00    -0.217 N 
ATOM      6  H   UNL     1     -40.110  26.220   1.575  0.00  0.00    +0.176 HD
BRANCH   5   7
ATOM      7  N   UNL     1     -40.985  26.674   3.327  0.00  0.00    -0.183 NA
ATOM      8  C   UNL     1     -42.255  26.681   3.050  0.00  0.00    +0.094 C 
ATOM      9  C   UNL     1     -42.890  25.958   1.882  0.00  0.00    +0.055 C 
BRANCH   8  11
ATOM     10  N   UNL     1     -44.297  26.856   4.248  0.00  0.00    -0.243 NA
ATOM     11  C   UNL     1     -43.147  27.466   3.942  0.00  0.00    +0.096 C 
ATOM     12  C   UNL     1     -42.742  28.703   4.366  0.00  0.00    +0.020 C 
ATOM     13  C   UNL     1     -43.616  29.395   5.198  0.00  0.00    +0.003 C 
ATOM     14  C   UNL     1     -44.830  28.818   5.557  0.00  0.00    +0.021 C 
ATOM     15  C   UNL     1     -45.120  27.558   5.059  0.00  0.00    +0.099 C 
ENDBRANCH   8  11
ENDBRANCH   5   7
ENDBRANCH   4   5
ENDBRANCH   1   4
BRANCH   1  16
ATOM     16  N   UNL     1     -37.564  26.060   4.147  0.00  0.00    -0.246 N 
ATOM     17  H   UNL     1     -37.689  26.780   4.806  0.00  0.00    +0.172 HD
BRANCH  16  19
ATOM     18  S   UNL     1     -36.275  26.922   1.920  0.00  0.00    -0.017 S 
ATOM     19  C   UNL     1     -36.433  26.063   3.363  0.00  0.00    +0.151 C 
BRANCH  19  20
ATOM     20  N   UNL     1     -35.379  25.259   3.750  0.00  0.00    -0.294 N 
ATOM     21  H   UNL     1     -34.494  25.677   3.647  0.00  0.00    +0.154 HD
BRANCH  20  23
ATOM     22 CL   UNL     1     -35.624  23.009   1.720  0.00  0.00    -0.081 Cl
ATOM     23  C   UNL     1     -35.343  23.942   4.271  0.00  0.00    +0.060 C 
ATOM     24  C   UNL     1     -35.446  22.845   3.431  0.00  0.00    +0.071 C 
ATOM     25  C   UNL     1     -35.204  23.790   5.642  0.00  0.00    +0.016 C 
ATOM     26  C   UNL     1     -35.410  21.561   3.976  0.00  0.00    +0.013 C 
ATOM     27  C   UNL     1     -35.168  22.506   6.187  0.00  0.00    +0.001 C 
ATOM     28  C   UNL     1     -35.271  21.392   5.354  0.00  0.00    +0.001 C 
ENDBRANCH  20  23
ENDBRANCH  19  20
ENDBRANCH  16  19
ENDBRANCH   1  16
TORSDOF 8
ENDMDL
MODEL 6
REMARK VINA RESULT:      -6.3      1.453      2.024
REMARK  Name = 5496409
REMARK  8 active torsions:
REMARK  status: ('A' for Active; 'I' for Inactive)
REMARK    1  A    between atoms: N_1  and  C_4
REMARK    2  A    between atoms: N_1  and  N_16
REMARK    3  A    between atoms: C_4  and  N_5
REMARK    4  A    between atoms: N_5  and  N_7
REMARK    5  A    between atoms: C_8  and  C_11
REMARK    6  A    between atoms: N_16  and  C_19
REMARK    7  A    between atoms: C_19  and  N_20
REMARK    8  A    between atoms: N_20  and  C_23
REMARK                            x       y       z     vdW  Elec       q    Type
REMARK                         _______ _______ _______ _____ _____    ______ ____
ROOT
ATOM      1  N   UNL     1     -39.076  21.000   1.786  0.00  0.00    -0.245 N 
ATOM      2  H   UNL     1     -39.669  20.216   1.733  0.00  0.00    +0.172 HD
ENDROOT
BRANCH   1   4
ATOM      3  S   UNL     1     -40.247  22.362  -0.138  0.00  0.00    -0.016 S 
ATOM      4  C   UNL     1     -39.581  22.210   1.399  0.00  0.00    +0.166 C 
BRANCH   4   5
ATOM      5  N   UNL     1     -39.557  23.305   2.220  0.00  0.00    -0.217 N 
ATOM      6  H   UNL     1     -40.255  23.988   2.107  0.00  0.00    +0.176 HD
BRANCH   5   7
ATOM      7  N   UNL     1     -38.626  23.496   3.177  0.00  0.00    -0.183 NA
ATOM      8  C   UNL     1     -37.705  24.390   2.980  0.00  0.00    +0.094 C 
ATOM      9  C   UNL     1     -37.587  25.253   1.741  0.00  0.00    +0.055 C 
BRANCH   8  11
ATOM     10  N   UNL     1     -36.312  23.440   4.652  0.00  0.00    -0.243 NA
ATOM     11  C   UNL     1     -36.686  24.572   4.045  0.00  0.00    +0.096 C 
ATOM     12  C   UNL     1     -36.226  25.832   4.317  0.00  0.00    +0.020 C 
ATOM     13  C   UNL     1     -35.274  25.946   5.324  0.00  0.00    +0.003 C 
ATOM     14  C   UNL     1     -34.840  24.808   5.996  0.00  0.00    +0.021 C 
ATOM     15  C   UNL     1     -35.385  23.589   5.624  0.00  0.00    +0.099 C 
ENDBRANCH   8  11
ENDBRANCH   5   7
ENDBRANCH   4   5
ENDBRANCH   1   4
BRANCH   1  16
ATOM     16  N   UNL     1     -37.792  20.807   2.246  0.00  0.00    -0.246 N 
ATOM     17  H   UNL     1     -37.551  21.144   3.139  0.00  0.00    +0.172 HD
BRANCH  16  19
ATOM     18  S   UNL     1     -37.140  19.372   0.038  0.00  0.00    -0.017 S 
ATOM     19  C   UNL     1     -36.836  20.162   1.497  0.00  0.00    +0.151 C 
BRANCH  19  20
ATOM     20  N   UNL     1     -35.552  20.102   2.003  0.00  0.00    -0.294 N 
ATOM     21  H   UNL     1     -35.506  20.111   2.986  0.00  0.00    +0.154 HD
BRANCH  20  23
ATOM     22 CL   UNL     1     -34.701  22.562   0.433  0.00  0.00    -0.081 Cl
ATOM     23  C   UNL     1     -34.291  20.028   1.362  0.00  0.00    +0.060 C 
ATOM     24  C   UNL     1     -33.809  21.094   0.621  0.00  0.00    +0.071 C 
ATOM     25  C   UNL     1     -33.562  18.856   1.499  0.00  0.00    +0.016 C 
ATOM     26  C   UNL     1     -32.564  20.988   0.000  0.00  0.00    +0.013 C 
ATOM     27  C   UNL     1     -32.317  18.750   0.878  0.00  0.00    +0.001 C 
ATOM     28  C   UNL     1     -31.819  19.816   0.129  0.00  0.00    +0.001 C 
ENDBRANCH  20  23
ENDBRANCH  19  20
ENDBRANCH  16  19
ENDBRANCH   1  16
TORSDOF 8
ENDMDL
MODEL 7
REMARK VINA RESULT:      -6.2      2.224      7.061
REMARK  Name = 5496409
REMARK  8 active torsions:
REMARK  status: ('A' for Active; 'I' for Inactive)
REMARK    1  A    between atoms: N_1  and  C_4
REMARK    2  A    between atoms: N_1  and  N_16
REMARK    3  A    between atoms: C_4  and  N_5
REMARK    4  A    between atoms: N_5  and  N_7
REMARK    5  A    between atoms: C_8  and  C_11
REMARK    6  A    between atoms: N_16  and  C_19
REMARK    7  A    between atoms: C_19  and  N_20
REMARK    8  A    between atoms: N_20  and  C_23
REMARK                            x       y       z     vdW  Elec       q    Type
REMARK                         _______ _______ _______ _____ _____    ______ ____
ROOT
ATOM      1  N   UNL     1     -37.611  19.984   1.047  0.00  0.00    -0.245 N 
ATOM      2  H   UNL     1     -38.418  20.514   0.853  0.00  0.00    +0.172 HD
ENDROOT
BRANCH   1   4
ATOM      3  S   UNL     1     -37.961  19.056  -1.391  0.00  0.00    -0.016 S 
ATOM      4  C   UNL     1     -37.203  19.076   0.110  0.00  0.00    +0.166 C 
BRANCH   4   5
ATOM      5  N   UNL     1     -36.199  18.179   0.356  0.00  0.00    -0.217 N 
ATOM      6  H   UNL     1     -36.443  17.241   0.527  0.00  0.00    +0.176 HD
BRANCH   5   7
ATOM      7  N   UNL     1     -34.893  18.512   0.377  0.00  0.00    -0.183 NA
ATOM      8  C   UNL     1     -34.009  17.581   0.175  0.00  0.00    +0.094 C 
ATOM      9  C   UNL     1     -34.332  16.125  -0.090  0.00  0.00    +0.055 C 
BRANCH   8  11
ATOM     10  N   UNL     1     -31.737  16.971   0.494  0.00  0.00    -0.243 NA
ATOM     11  C   UNL     1     -32.577  17.973   0.213  0.00  0.00    +0.096 C 
ATOM     12  C   UNL     1     -32.238  19.277  -0.031  0.00  0.00    +0.020 C 
ATOM     13  C   UNL     1     -30.884  19.590   0.019  0.00  0.00    +0.003 C 
ATOM     14  C   UNL     1     -29.956  18.594   0.305  0.00  0.00    +0.021 C 
ATOM     15  C   UNL     1     -30.430  17.312   0.533  0.00  0.00    +0.099 C 
ENDBRANCH   8  11
ENDBRANCH   5   7
ENDBRANCH   4   5
ENDBRANCH   1   4
BRANCH   1  16
ATOM     16  N   UNL     1     -36.967  20.205   2.245  0.00  0.00    -0.246 N 
ATOM     17  H   UNL     1     -36.942  19.481   2.913  0.00  0.00    +0.172 HD
BRANCH  16  19
ATOM     18  S   UNL     1     -35.041  22.036   1.698  0.00  0.00    -0.017 S 
ATOM     19  C   UNL     1     -36.359  21.403   2.539  0.00  0.00    +0.151 C 
BRANCH  19  20
ATOM     20  N   UNL     1     -36.818  22.107   3.636  0.00  0.00    -0.294 N 
ATOM     21  H   UNL     1     -37.564  21.674   4.109  0.00  0.00    +0.154 HD
BRANCH  20  23
ATOM     22 CL   UNL     1     -34.828  21.930   5.927  0.00  0.00    -0.081 Cl
ATOM     23  C   UNL     1     -36.406  23.339   4.202  0.00  0.00    +0.060 C 
ATOM     24  C   UNL     1     -35.502  23.370   5.250  0.00  0.00    +0.071 C 
ATOM     25  C   UNL     1     -36.939  24.505   3.674  0.00  0.00    +0.016 C 
ATOM     26  C   UNL     1     -35.119  24.600   5.786  0.00  0.00    +0.013 C 
ATOM     27  C   UNL     1     -36.556  25.734   4.210  0.00  0.00    +0.001 C 
ATOM     28  C   UNL     1     -35.646  25.781   5.266  0.00  0.00    +0.001 C 
ENDBRANCH  20  23
ENDBRANCH  19  20
ENDBRANCH  16  19
ENDBRANCH   1  16
TORSDOF 8
ENDMDL
MODEL 8
REMARK VINA RESULT:      -6.2      4.235      7.164
REMARK  Name = 5496409
REMARK  8 active torsions:
REMARK  status: ('A' for Active; 'I' for Inactive)
REMARK    1  A    between atoms: N_1  and  C_4
REMARK    2  A    between atoms: N_1  and  N_16
REMARK    3  A    between atoms: C_4  and  N_5
REMARK    4  A    between atoms: N_5  and  N_7
REMARK    5  A    between atoms: C_8  and  C_11
REMARK    6  A    between atoms: N_16  and  C_19
REMARK    7  A    between atoms: C_19  and  N_20
REMARK    8  A    between atoms: N_20  and  C_23
REMARK                            x       y       z     vdW  Elec       q    Type
REMARK                         _______ _______ _______ _____ _____    ______ ____
ROOT
ATOM      1  N   UNL     1     -34.231  28.016   2.912  0.00  0.00    -0.245 N 
ATOM      2  H   UNL     1     -34.198  27.978   1.928  0.00  0.00    +0.172 HD
ENDROOT
BRANCH   1   4
ATOM      3  S   UNL     1     -32.167  29.643   2.769  0.00  0.00    -0.016 S 
ATOM      4  C   UNL     1     -33.149  28.536   3.567  0.00  0.00    +0.166 C 
BRANCH   4   5
ATOM      5  N   UNL     1     -32.837  28.180   4.851  0.00  0.00    -0.217 N 
ATOM      6  H   UNL     1     -33.571  28.084   5.500  0.00  0.00    +0.176 HD
BRANCH   5   7
ATOM      7  N   UNL     1     -31.577  27.952   5.274  0.00  0.00    -0.183 NA
ATOM      8  C   UNL     1     -31.050  28.776   6.129  0.00  0.00    +0.094 C 
ATOM      9  C   UNL     1     -31.745  29.993   6.702  0.00  0.00    +0.055 C 
BRANCH   8  11
ATOM     10  N   UNL     1     -29.153  27.347   6.135  0.00  0.00    -0.243 NA
ATOM     11  C   UNL     1     -29.657  28.507   6.570  0.00  0.00    +0.096 C 
ATOM     12  C   UNL     1     -29.019  29.429   7.357  0.00  0.00    +0.020 C 
ATOM     13  C   UNL     1     -27.717  29.127   7.742  0.00  0.00    +0.003 C 
ATOM     14  C   UNL     1     -27.132  27.937   7.324  0.00  0.00    +0.021 C 
ATOM     15  C   UNL     1     -27.886  27.089   6.528  0.00  0.00    +0.099 C 
ENDBRANCH   8  11
ENDBRANCH   5   7
ENDBRANCH   4   5
ENDBRANCH   1   4
BRANCH   1  16
ATOM     16  N   UNL     1     -35.363  27.542   3.538  0.00  0.00    -0.246 N 
ATOM     17  H   UNL     1     -35.854  28.138   4.149  0.00  0.00    +0.172 HD
BRANCH  16  19
ATOM     18  S   UNL     1     -37.427  25.876   2.968  0.00  0.00    -0.017 S 
ATOM     19  C   UNL     1     -35.828  26.263   3.339  0.00  0.00    +0.151 C 
BRANCH  19  20
ATOM     20  N   UNL     1     -34.940  25.220   3.518  0.00  0.00    -0.294 N 
ATOM     21  H   UNL     1     -34.053  25.373   3.121  0.00  0.00    +0.154 HD
BRANCH  20  23
ATOM     22 CL   UNL     1     -35.267  22.793   1.716  0.00  0.00    -0.081 Cl
ATOM     23  C   UNL     1     -35.078  23.970   4.172  0.00  0.00    +0.060 C 
ATOM     24  C   UNL     1     -35.232  22.802   3.444  0.00  0.00    +0.071 C 
ATOM     25  C   UNL     1     -35.056  23.958   5.558  0.00  0.00    +0.016 C 
ATOM     26  C   UNL     1     -35.368  21.589   4.118  0.00  0.00    +0.013 C 
ATOM     27  C   UNL     1     -35.192  22.744   6.232  0.00  0.00    +0.001 C 
ATOM     28  C   UNL     1     -35.348  21.560   5.512  0.00  0.00    +0.001 C 
ENDBRANCH  20  23
ENDBRANCH  19  20
ENDBRANCH  16  19
ENDBRANCH   1  16
TORSDOF 8
ENDMDL
MODEL 9
REMARK VINA RESULT:      -6.1      3.706      8.320
REMARK  Name = 5496409
REMARK  8 active torsions:
REMARK  status: ('A' for Active; 'I' for Inactive)
REMARK    1  A    between atoms: N_1  and  C_4
REMARK    2  A    between atoms: N_1  and  N_16
REMARK    3  A    between atoms: C_4  and  N_5
REMARK    4  A    between atoms: N_5  and  N_7
REMARK    5  A    between atoms: C_8  and  C_11
REMARK    6  A    between atoms: N_16  and  C_19
REMARK    7  A    between atoms: C_19  and  N_20
REMARK    8  A    between atoms: N_20  and  C_23
REMARK                            x       y       z     vdW  Elec       q    Type
REMARK                         _______ _______ _______ _____ _____    ______ ____
ROOT
ATOM      1  N   UNL     1     -36.712  19.864   2.188  0.00  0.00    -0.245 N 
ATOM      2  H   UNL     1     -36.600  19.462   3.080  0.00  0.00    +0.172 HD
ENDROOT
BRANCH   1   4
ATOM      3  S   UNL     1     -34.377  20.484   1.144  0.00  0.00    -0.016 S 
ATOM      4  C   UNL     1     -35.782  19.564   1.231  0.00  0.00    +0.166 C 
BRANCH   4   5
ATOM      5  N   UNL     1     -35.960  18.542   0.339  0.00  0.00    -0.217 N 
ATOM      6  H   UNL     1     -35.167  18.168  -0.106  0.00  0.00    +0.176 HD
BRANCH   5   7
ATOM      7  N   UNL     1     -37.166  18.020   0.037  0.00  0.00    -0.183 NA
ATOM      8  C   UNL     1     -37.238  16.764  -0.288  0.00  0.00    +0.094 C 
ATOM      9  C   UNL     1     -36.057  15.819  -0.356  0.00  0.00    +0.055 C 
BRANCH   8  11
ATOM     10  N   UNL     1     -38.795  14.975  -0.182  0.00  0.00    -0.243 NA
ATOM     11  C   UNL     1     -38.577  16.218  -0.625  0.00  0.00    +0.096 C 
ATOM     12  C   UNL     1     -39.453  16.995  -1.334  0.00  0.00    +0.020 C 
ATOM     13  C   UNL     1     -40.693  16.435  -1.624  0.00  0.00    +0.003 C 
ATOM     14  C   UNL     1     -40.985  15.145  -1.192  0.00  0.00    +0.021 C 
ATOM     15  C   UNL     1     -40.010  14.464  -0.481  0.00  0.00    +0.099 C 
ENDBRANCH   8  11
ENDBRANCH   5   7
ENDBRANCH   4   5
ENDBRANCH   1   4
BRANCH   1  16
ATOM     16  N   UNL     1     -37.794  20.691   1.984  0.00  0.00    -0.246 N 
ATOM     17  H   UNL     1     -38.677  20.288   1.818  0.00  0.00    +0.172 HD
BRANCH  16  19
ATOM     18  S   UNL     1     -37.391  23.016   0.644  0.00  0.00    -0.017 S 
ATOM     19  C   UNL     1     -37.681  22.062   2.005  0.00  0.00    +0.151 C 
BRANCH  19  20
ATOM     20  N   UNL     1     -37.745  22.696   3.230  0.00  0.00    -0.294 N 
ATOM     21  H   UNL     1     -38.627  22.645   3.665  0.00  0.00    +0.154 HD
BRANCH  20  23
ATOM     22 CL   UNL     1     -38.040  25.721   3.290  0.00  0.00    -0.081 Cl
ATOM     23  C   UNL     1     -36.769  23.404   3.975  0.00  0.00    +0.060 C 
ATOM     24  C   UNL     1     -36.812  24.785   4.066  0.00  0.00    +0.071 C 
ATOM     25  C   UNL     1     -35.774  22.670   4.602  0.00  0.00    +0.016 C 
ATOM     26  C   UNL     1     -35.834  25.452   4.805  0.00  0.00    +0.013 C 
ATOM     27  C   UNL     1     -34.797  23.337   5.341  0.00  0.00    +0.001 C 
ATOM     28  C   UNL     1     -34.827  24.728   5.442  0.00  0.00    +0.001 C 
ENDBRANCH  20  23
ENDBRANCH  19  20
ENDBRANCH  16  19
ENDBRANCH   1  16
TORSDOF 8
ENDMDL
