MODEL 1
REMARK VINA RESULT:      -8.4      0.000      0.000
REMARK  Name = 197398
REMARK  2 active torsions:
REMARK  status: ('A' for Active; 'I' for Inactive)
REMARK    1  A    between atoms: C_16  and  O_34
REMARK    2  A    between atoms: C_31  and  O_36
REMARK                            x       y       z     vdW  Elec       q    Type
REMARK                         _______ _______ _______ _____ _____    ______ ____
ROOT
ATOM      1  O   UNL     1     -36.779  23.845   1.533  0.00  0.00    -0.438 OA
ATOM      2  O   UNL     1     -39.732  23.349  -0.436  0.00  0.00    -0.436 OA
ATOM      3  O   UNL     1     -35.751  26.134   2.106  0.00  0.00    -0.446 OA
ATOM      4  O   UNL     1     -43.521  25.369   0.835  0.00  0.00    -0.286 OA
ATOM      5  O   UNL     1     -37.813  27.151   2.069  0.00  0.00    -0.246 OA
ATOM      6  O   UNL     1     -36.912  22.546  -0.365  0.00  0.00    -0.246 OA
ATOM      7  O   UNL     1     -32.790  26.250   5.311  0.00  0.00    -0.451 OA
ATOM      8  C   UNL     1     -37.676  24.706   2.282  0.00  0.00    +0.247 C 
ATOM      9  C   UNL     1     -38.960  24.532   1.545  0.00  0.00    +0.053 C 
ATOM     10  C   UNL     1     -40.264  25.065   1.803  0.00  0.00    +0.009 C 
ATOM     11  C   UNL     1     -41.231  24.750   0.935  0.00  0.00    +0.110 C 
ATOM     12  C   UNL     1     -40.698  25.928   2.940  0.00  0.00    +0.003 C 
ATOM     13  C   UNL     1     -37.724  24.197   3.750  0.00  0.00    +0.082 C 
ATOM     14  C   UNL     1     -38.801  23.734   0.485  0.00  0.00    +0.289 C 
ATOM     15  C   UNL     1     -42.171  26.226   2.649  0.00  0.00    +0.042 C 
ATOM     16  C   UNL     1     -41.066  23.886  -0.268  0.00  0.00    +0.292 C 
ATOM     17  C   UNL     1     -42.441  25.434   1.401  0.00  0.00    +0.202 C 
ATOM     18  C   UNL     1     -37.123  26.140   2.120  0.00  0.00    +0.358 C 
ATOM     19  C   UNL     1     -37.413  23.289   0.461  0.00  0.00    +0.363 C 
ATOM     20  C   UNL     1     -36.469  24.557   4.515  0.00  0.00    -0.018 C 
ATOM     21  C   UNL     1     -36.428  25.751   5.250  0.00  0.00    -0.001 C 
ATOM     22  C   UNL     1     -35.292  23.824   4.315  0.00  0.00    -0.001 C 
ATOM     23  C   UNL     1     -35.089  27.413   2.200  0.00  0.00    +0.213 C 
ATOM     24  C   UNL     1     -33.597  27.192   2.500  0.00  0.00    +0.077 C 
ATOM     25  C   UNL     1     -35.205  26.300   5.617  0.00  0.00    +0.037 C 
ATOM     26  C   UNL     1     -34.067  24.371   4.685  0.00  0.00    +0.037 C 
ATOM     27  C   UNL     1     -34.027  25.652   5.239  0.00  0.00    +0.145 C 
ATOM     28  C   UNL     1     -33.078  28.053   3.634  0.00  0.00    +0.019 C 
ATOM     29  C   UNL     1     -32.717  27.573   4.913  0.00  0.00    +0.175 C 
ATOM     30  C   UNL     1     -32.928  29.430   3.384  0.00  0.00    -0.001 C 
ATOM     31  C   UNL     1     -32.188  28.444   5.877  0.00  0.00    +0.168 C 
ATOM     32  C   UNL     1     -32.424  30.296   4.356  0.00  0.00    +0.003 C 
ATOM     33  C   UNL     1     -32.048  29.802   5.599  0.00  0.00    +0.040 C 
ENDROOT
BRANCH  16  34
ATOM     34  O   UNL     1     -42.007  22.819  -0.186  0.00  0.00    -0.480 OA
ATOM     35  H   UNL     1     -41.538  21.985  -0.030  0.00  0.00    +0.295 HD
ENDBRANCH  16  34
BRANCH  31  36
ATOM     36  O   UNL     1     -31.812  27.981   7.103  0.00  0.00    -0.503 OA
ATOM     37  H   UNL     1     -32.069  27.124   7.380  0.00  0.00    +0.292 HD
ENDBRANCH  31  36
TORSDOF 2
ENDMDL
MODEL 2
REMARK VINA RESULT:      -8.0      2.686      8.729
REMARK  Name = 197398
REMARK  2 active torsions:
REMARK  status: ('A' for Active; 'I' for Inactive)
REMARK    1  A    between atoms: C_16  and  O_34
REMARK    2  A    between atoms: C_31  and  O_36
REMARK                            x       y       z     vdW  Elec       q    Type
REMARK                         _______ _______ _______ _____ _____    ______ ____
ROOT
ATOM      1  O   UNL     1     -36.089  22.372   4.077  0.00  0.00    -0.438 OA
ATOM      2  O   UNL     1     -34.786  25.011   6.121  0.00  0.00    -0.436 OA
ATOM      3  O   UNL     1     -38.008  22.624   2.381  0.00  0.00    -0.446 OA
ATOM      4  O   UNL     1     -33.293  28.732   4.125  0.00  0.00    -0.286 OA
ATOM      5  O   UNL     1     -37.448  24.815   1.963  0.00  0.00    -0.246 OA
ATOM      6  O   UNL     1     -35.937  22.327   6.375  0.00  0.00    -0.246 OA
ATOM      7  O   UNL     1     -38.539  19.417  -0.531  0.00  0.00    -0.451 OA
ATOM      8  C   UNL     1     -35.802  23.329   3.024  0.00  0.00    +0.247 C 
ATOM      9  C   UNL     1     -35.213  24.465   3.789  0.00  0.00    +0.053 C 
ATOM     10  C   UNL     1     -34.666  25.709   3.339  0.00  0.00    +0.009 C 
ATOM     11  C   UNL     1     -34.232  26.556   4.278  0.00  0.00    +0.110 C 
ATOM     12  C   UNL     1     -34.500  26.189   1.936  0.00  0.00    +0.003 C 
ATOM     13  C   UNL     1     -34.812  22.669   2.024  0.00  0.00    +0.082 C 
ATOM     14  C   UNL     1     -35.223  24.216   5.102  0.00  0.00    +0.289 C 
ATOM     15  C   UNL     1     -33.925  27.600   2.083  0.00  0.00    +0.042 C 
ATOM     16  C   UNL     1     -34.262  26.308   5.747  0.00  0.00    +0.292 C 
ATOM     17  C   UNL     1     -33.756  27.748   3.569  0.00  0.00    +0.202 C 
ATOM     18  C   UNL     1     -37.170  23.710   2.413  0.00  0.00    +0.358 C 
ATOM     19  C   UNL     1     -35.782  22.884   5.303  0.00  0.00    +0.363 C 
ATOM     20  C   UNL     1     -35.496  21.648   1.141  0.00  0.00    -0.018 C 
ATOM     21  C   UNL     1     -36.011  22.046  -0.101  0.00  0.00    -0.001 C 
ATOM     22  C   UNL     1     -35.807  20.379   1.647  0.00  0.00    -0.001 C 
ATOM     23  C   UNL     1     -39.230  22.762   1.625  0.00  0.00    +0.213 C 
ATOM     24  C   UNL     1     -39.866  21.375   1.431  0.00  0.00    +0.077 C 
ATOM     25  C   UNL     1     -36.970  21.267  -0.738  0.00  0.00    +0.037 C 
ATOM     26  C   UNL     1     -36.765  19.597   1.009  0.00  0.00    +0.037 C 
ATOM     27  C   UNL     1     -37.414  20.095  -0.122  0.00  0.00    +0.145 C 
ATOM     28  C   UNL     1     -40.280  21.099  -0.001  0.00  0.00    +0.019 C 
ATOM     29  C   UNL     1     -39.639  20.186  -0.867  0.00  0.00    +0.175 C 
ATOM     30  C   UNL     1     -41.401  21.795  -0.494  0.00  0.00    -0.001 C 
ATOM     31  C   UNL     1     -40.139  19.957  -2.158  0.00  0.00    +0.168 C 
ATOM     32  C   UNL     1     -41.879  21.580  -1.788  0.00  0.00    +0.003 C 
ATOM     33  C   UNL     1     -41.251  20.658  -2.617  0.00  0.00    +0.040 C 
ENDROOT
BRANCH  16  34
ATOM     34  O   UNL     1     -32.938  26.455   6.253  0.00  0.00    -0.480 OA
ATOM     35  H   UNL     1     -32.738  25.723   6.855  0.00  0.00    +0.295 HD
ENDBRANCH  16  34
BRANCH  31  36
ATOM     36  O   UNL     1     -39.540  19.056  -2.987  0.00  0.00    -0.503 OA
ATOM     37  H   UNL     1     -40.029  18.659  -3.681  0.00  0.00    +0.292 HD
ENDBRANCH  31  36
TORSDOF 2
ENDMDL
MODEL 3
REMARK VINA RESULT:      -8.0      3.384      8.684
REMARK  Name = 197398
REMARK  2 active torsions:
REMARK  status: ('A' for Active; 'I' for Inactive)
REMARK    1  A    between atoms: C_16  and  O_34
REMARK    2  A    between atoms: C_31  and  O_36
REMARK                            x       y       z     vdW  Elec       q    Type
REMARK                         _______ _______ _______ _____ _____    ______ ____
ROOT
ATOM      1  O   UNL     1     -34.656  28.183   3.159  0.00  0.00    -0.438 OA
ATOM      2  O   UNL     1     -32.511  31.032   3.508  0.00  0.00    -0.436 OA
ATOM      3  O   UNL     1     -33.950  25.911   2.176  0.00  0.00    -0.446 OA
ATOM      4  O   UNL     1     -28.700  30.577   5.816  0.00  0.00    -0.286 OA
ATOM      5  O   UNL     1     -31.790  26.180   2.918  0.00  0.00    -0.246 OA
ATOM      6  O   UNL     1     -35.070  30.276   2.293  0.00  0.00    -0.246 OA
ATOM      7  O   UNL     1     -36.597  22.515   2.885  0.00  0.00    -0.451 OA
ATOM      8  C   UNL     1     -33.582  27.545   3.900  0.00  0.00    +0.247 C 
ATOM      9  C   UNL     1     -32.644  28.682   4.125  0.00  0.00    +0.053 C 
ATOM     10  C   UNL     1     -31.408  28.743   4.845  0.00  0.00    +0.009 C 
ATOM     11  C   UNL     1     -30.765  29.916   4.849  0.00  0.00    +0.110 C 
ATOM     12  C   UNL     1     -30.737  27.657   5.618  0.00  0.00    +0.003 C 
ATOM     13  C   UNL     1     -34.178  26.957   5.209  0.00  0.00    +0.082 C 
ATOM     14  C   UNL     1     -33.090  29.797   3.538  0.00  0.00    +0.289 C 
ATOM     15  C   UNL     1     -29.433  28.290   6.108  0.00  0.00    +0.042 C 
ATOM     16  C   UNL     1     -31.233  31.161   4.176  0.00  0.00    +0.292 C 
ATOM     17  C   UNL     1     -29.533  29.708   5.616  0.00  0.00    +0.202 C 
ATOM     18  C   UNL     1     -32.973  26.494   2.945  0.00  0.00    +0.358 C 
ATOM     19  C   UNL     1     -34.373  29.494   2.914  0.00  0.00    +0.363 C 
ATOM     20  C   UNL     1     -34.975  25.697   4.952  0.00  0.00    -0.018 C 
ATOM     21  C   UNL     1     -34.339  24.450   5.040  0.00  0.00    -0.001 C 
ATOM     22  C   UNL     1     -36.268  25.781   4.419  0.00  0.00    -0.001 C 
ATOM     23  C   UNL     1     -33.572  24.748   1.409  0.00  0.00    +0.213 C 
ATOM     24  C   UNL     1     -34.840  24.051   0.886  0.00  0.00    +0.077 C 
ATOM     25  C   UNL     1     -34.907  23.335   4.434  0.00  0.00    +0.037 C 
ATOM     26  C   UNL     1     -36.840  24.665   3.815  0.00  0.00    +0.037 C 
ATOM     27  C   UNL     1     -36.109  23.479   3.736  0.00  0.00    +0.145 C 
ATOM     28  C   UNL     1     -34.848  22.555   1.130  0.00  0.00    +0.019 C 
ATOM     29  C   UNL     1     -35.677  21.891   2.061  0.00  0.00    +0.175 C 
ATOM     30  C   UNL     1     -33.973  21.771   0.354  0.00  0.00    -0.001 C 
ATOM     31  C   UNL     1     -35.651  20.493   2.167  0.00  0.00    +0.168 C 
ATOM     32  C   UNL     1     -33.935  20.381   0.482  0.00  0.00    +0.003 C 
ATOM     33  C   UNL     1     -34.778  19.743   1.384  0.00  0.00    +0.040 C 
ENDROOT
BRANCH  16  34
ATOM     34  O   UNL     1     -31.302  32.197   5.151  0.00  0.00    -0.480 OA
ATOM     35  H   UNL     1     -31.635  31.835   5.986  0.00  0.00    +0.295 HD
ENDBRANCH  16  34
BRANCH  31  36
ATOM     36  O   UNL     1     -36.470  19.845   3.044  0.00  0.00    -0.503 OA
ATOM     37  H   UNL     1     -36.195  19.040   3.436  0.00  0.00    +0.292 HD
ENDBRANCH  31  36
TORSDOF 2
ENDMDL
MODEL 4
REMARK VINA RESULT:      -8.0      4.077      6.659
REMARK  Name = 197398
REMARK  2 active torsions:
REMARK  status: ('A' for Active; 'I' for Inactive)
REMARK    1  A    between atoms: C_16  and  O_34
REMARK    2  A    between atoms: C_31  and  O_36
REMARK                            x       y       z     vdW  Elec       q    Type
REMARK                         _______ _______ _______ _____ _____    ______ ____
ROOT
ATOM      1  O   UNL     1     -38.160  21.088  -0.086  0.00  0.00    -0.438 OA
ATOM      2  O   UNL     1     -38.896  17.645  -0.750  0.00  0.00    -0.436 OA
ATOM      3  O   UNL     1     -37.057  21.978   2.062  0.00  0.00    -0.446 OA
ATOM      4  O   UNL     1     -35.563  14.661  -0.548  0.00  0.00    -0.286 OA
ATOM      5  O   UNL     1     -35.875  20.027   2.350  0.00  0.00    -0.246 OA
ATOM      6  O   UNL     1     -40.236  20.250  -0.628  0.00  0.00    -0.246 OA
ATOM      7  O   UNL     1     -35.483  26.047   1.966  0.00  0.00    -0.451 OA
ATOM      8  C   UNL     1     -36.835  20.543   0.146  0.00  0.00    +0.247 C 
ATOM      9  C   UNL     1     -37.039  19.096  -0.146  0.00  0.00    +0.053 C 
ATOM     10  C   UNL     1     -36.110  18.006  -0.159  0.00  0.00    +0.009 C 
ATOM     11  C   UNL     1     -36.602  16.793  -0.435  0.00  0.00    +0.110 C 
ATOM     12  C   UNL     1     -34.639  18.047   0.084  0.00  0.00    +0.003 C 
ATOM     13  C   UNL     1     -35.844  21.243  -0.824  0.00  0.00    +0.082 C 
ATOM     14  C   UNL     1     -38.317  18.841  -0.441  0.00  0.00    +0.289 C 
ATOM     15  C   UNL     1     -34.200  16.583  -0.000  0.00  0.00    +0.042 C 
ATOM     16  C   UNL     1     -38.028  16.486  -0.737  0.00  0.00    +0.292 C 
ATOM     17  C   UNL     1     -35.471  15.864  -0.357  0.00  0.00    +0.202 C 
ATOM     18  C   UNL     1     -36.536  20.779   1.645  0.00  0.00    +0.358 C 
ATOM     19  C   UNL     1     -39.047  20.103  -0.404  0.00  0.00    +0.363 C 
ATOM     20  C   UNL     1     -35.524  22.655  -0.385  0.00  0.00    -0.018 C 
ATOM     21  C   UNL     1     -34.409  22.887   0.434  0.00  0.00    -0.001 C 
ATOM     22  C   UNL     1     -36.446  23.686  -0.608  0.00  0.00    -0.001 C 
ATOM     23  C   UNL     1     -36.658  22.446   3.368  0.00  0.00    +0.213 C 
ATOM     24  C   UNL     1     -37.063  23.922   3.524  0.00  0.00    +0.077 C 
ATOM     25  C   UNL     1     -34.318  24.063   1.169  0.00  0.00    +0.037 C 
ATOM     26  C   UNL     1     -36.355  24.866   0.123  0.00  0.00    +0.037 C 
ATOM     27  C   UNL     1     -35.350  25.001   1.082  0.00  0.00    +0.145 C 
ATOM     28  C   UNL     1     -35.947  24.798   4.056  0.00  0.00    +0.019 C 
ATOM     29  C   UNL     1     -35.248  25.766   3.300  0.00  0.00    +0.175 C 
ATOM     30  C   UNL     1     -35.596  24.645   5.411  0.00  0.00    -0.001 C 
ATOM     31  C   UNL     1     -34.271  26.571   3.903  0.00  0.00    +0.168 C 
ATOM     32  C   UNL     1     -34.605  25.433   5.999  0.00  0.00    +0.003 C 
ATOM     33  C   UNL     1     -33.947  26.399   5.247  0.00  0.00    +0.040 C 
ENDROOT
BRANCH  16  34
ATOM     34  O   UNL     1     -38.086  15.828  -2.000  0.00  0.00    -0.480 OA
ATOM     35  H   UNL     1     -38.873  16.122  -2.482  0.00  0.00    +0.295 HD
ENDBRANCH  16  34
BRANCH  31  36
ATOM     36  O   UNL     1     -33.613  27.526   3.185  0.00  0.00    -0.503 OA
ATOM     37  H   UNL     1     -34.027  28.348   3.009  0.00  0.00    +0.292 HD
ENDBRANCH  31  36
TORSDOF 2
ENDMDL
MODEL 5
REMARK VINA RESULT:      -7.9      4.857      7.801
REMARK  Name = 197398
REMARK  2 active torsions:
REMARK  status: ('A' for Active; 'I' for Inactive)
REMARK    1  A    between atoms: C_16  and  O_34
REMARK    2  A    between atoms: C_31  and  O_36
REMARK                            x       y       z     vdW  Elec       q    Type
REMARK                         _______ _______ _______ _____ _____    ______ ____
ROOT
ATOM      1  O   UNL     1     -36.788  19.740  -0.065  0.00  0.00    -0.438 OA
ATOM      2  O   UNL     1     -36.109  16.245  -0.477  0.00  0.00    -0.436 OA
ATOM      3  O   UNL     1     -36.192  21.127   2.020  0.00  0.00    -0.446 OA
ATOM      4  O   UNL     1     -31.889  14.814  -0.032  0.00  0.00    -0.286 OA
ATOM      5  O   UNL     1     -34.357  19.813   2.459  0.00  0.00    -0.246 OA
ATOM      6  O   UNL     1     -38.356  18.127  -0.557  0.00  0.00    -0.246 OA
ATOM      7  O   UNL     1     -36.314  25.472   1.633  0.00  0.00    -0.451 OA
ATOM      8  C   UNL     1     -35.364  19.770   0.217  0.00  0.00    +0.247 C 
ATOM      9  C   UNL     1     -34.981  18.341   0.031  0.00  0.00    +0.053 C 
ATOM     10  C   UNL     1     -33.703  17.700   0.105  0.00  0.00    +0.009 C 
ATOM     11  C   UNL     1     -33.676  16.376  -0.083  0.00  0.00    +0.110 C 
ATOM     12  C   UNL     1     -32.372  18.326   0.355  0.00  0.00    +0.003 C 
ATOM     13  C   UNL     1     -34.688  20.735  -0.796  0.00  0.00    +0.082 C 
ATOM     14  C   UNL     1     -36.050  17.590  -0.253  0.00  0.00    +0.289 C 
ATOM     15  C   UNL     1     -31.397  17.145   0.382  0.00  0.00    +0.042 C 
ATOM     16  C   UNL     1     -34.860  15.519  -0.372  0.00  0.00    +0.292 C 
ATOM     17  C   UNL     1     -32.277  15.967   0.071  0.00  0.00    +0.202 C 
ATOM     18  C   UNL     1     -35.233  20.200   1.696  0.00  0.00    +0.358 C 
ATOM     19  C   UNL     1     -37.212  18.468  -0.315  0.00  0.00    +0.363 C 
ATOM     20  C   UNL     1     -34.956  22.185  -0.461  0.00  0.00    -0.018 C 
ATOM     21  C   UNL     1     -34.047  22.885   0.347  0.00  0.00    -0.001 C 
ATOM     22  C   UNL     1     -36.197  22.759  -0.766  0.00  0.00    -0.001 C 
ATOM     23  C   UNL     1     -36.051  21.798   3.290  0.00  0.00    +0.213 C 
ATOM     24  C   UNL     1     -37.001  23.007   3.334  0.00  0.00    +0.077 C 
ATOM     25  C   UNL     1     -34.444  24.050   0.993  0.00  0.00    +0.037 C 
ATOM     26  C   UNL     1     -36.595  23.927  -0.123  0.00  0.00    +0.037 C 
ATOM     27  C   UNL     1     -35.755  24.504   0.831  0.00  0.00    +0.145 C 
ATOM     28  C   UNL     1     -36.331  24.281   3.807  0.00  0.00    +0.019 C 
ATOM     29  C   UNL     1     -36.036  25.392   2.986  0.00  0.00    +0.175 C 
ATOM     30  C   UNL     1     -35.997  24.366   5.171  0.00  0.00    -0.001 C 
ATOM     31  C   UNL     1     -35.469  26.552   3.535  0.00  0.00    +0.168 C 
ATOM     32  C   UNL     1     -35.410  25.514   5.707  0.00  0.00    +0.003 C 
ATOM     33  C   UNL     1     -35.151  26.608   4.890  0.00  0.00    +0.040 C 
ENDROOT
BRANCH  16  34
ATOM     34  O   UNL     1     -34.614  14.809  -1.583  0.00  0.00    -0.480 OA
ATOM     35  H   UNL     1     -33.746  15.059  -1.935  0.00  0.00    +0.295 HD
ENDBRANCH  16  34
BRANCH  31  36
ATOM     36  O   UNL     1     -35.208  27.638   2.752  0.00  0.00    -0.503 OA
ATOM     37  H   UNL     1     -34.484  27.624   2.157  0.00  0.00    +0.292 HD
ENDBRANCH  31  36
TORSDOF 2
ENDMDL
MODEL 6
REMARK VINA RESULT:      -7.8      3.491      5.486
REMARK  Name = 197398
REMARK  2 active torsions:
REMARK  status: ('A' for Active; 'I' for Inactive)
REMARK    1  A    between atoms: C_16  and  O_34
REMARK    2  A    between atoms: C_31  and  O_36
REMARK                            x       y       z     vdW  Elec       q    Type
REMARK                         _______ _______ _______ _____ _____    ______ ____
ROOT
ATOM      1  O   UNL     1     -39.692  26.902   0.069  0.00  0.00    -0.438 OA
ATOM      2  O   UNL     1     -42.259  29.397  -0.089  0.00  0.00    -0.436 OA
ATOM      3  O   UNL     1     -38.562  26.077   2.230  0.00  0.00    -0.446 OA
ATOM      4  O   UNL     1     -45.994  28.786   2.306  0.00  0.00    -0.286 OA
ATOM      5  O   UNL     1     -40.466  26.463   3.459  0.00  0.00    -0.246 OA
ATOM      6  O   UNL     1     -39.600  28.831  -1.186  0.00  0.00    -0.246 OA
ATOM      7  O   UNL     1     -36.257  22.378   1.995  0.00  0.00    -0.451 OA
ATOM      8  C   UNL     1     -40.621  26.305   1.011  0.00  0.00    +0.247 C 
ATOM      9  C   UNL     1     -41.756  27.271   0.983  0.00  0.00    +0.053 C 
ATOM     10  C   UNL     1     -43.024  27.242   1.647  0.00  0.00    +0.009 C 
ATOM     11  C   UNL     1     -43.838  28.284   1.447  0.00  0.00    +0.110 C 
ATOM     12  C   UNL     1     -43.572  26.179   2.538  0.00  0.00    +0.003 C 
ATOM     13  C   UNL     1     -40.994  24.888   0.494  0.00  0.00    +0.082 C 
ATOM     14  C   UNL     1     -41.483  28.309   0.185  0.00  0.00    +0.289 C 
ATOM     15  C   UNL     1     -44.927  26.727   2.994  0.00  0.00    +0.042 C 
ATOM     16  C   UNL     1     -43.539  29.462   0.584  0.00  0.00    +0.292 C 
ATOM     17  C   UNL     1     -45.038  28.029   2.249  0.00  0.00    +0.202 C 
ATOM     18  C   UNL     1     -39.905  26.318   2.381  0.00  0.00    +0.358 C 
ATOM     19  C   UNL     1     -40.167  28.089  -0.404  0.00  0.00    +0.363 C 
ATOM     20  C   UNL     1     -39.875  23.893   0.710  0.00  0.00    -0.018 C 
ATOM     21  C   UNL     1     -39.851  23.126   1.884  0.00  0.00    -0.001 C 
ATOM     22  C   UNL     1     -38.761  23.894  -0.140  0.00  0.00    -0.001 C 
ATOM     23  C   UNL     1     -37.803  25.823   3.431  0.00  0.00    +0.213 C 
ATOM     24  C   UNL     1     -36.423  25.260   3.050  0.00  0.00    +0.077 C 
ATOM     25  C   UNL     1     -38.669  22.523   2.297  0.00  0.00    +0.037 C 
ATOM     26  C   UNL     1     -37.578  23.287   0.269  0.00  0.00    +0.037 C 
ATOM     27  C   UNL     1     -37.513  22.697   1.532  0.00  0.00    +0.145 C 
ATOM     28  C   UNL     1     -36.041  24.023   3.838  0.00  0.00    +0.019 C 
ATOM     29  C   UNL     1     -35.977  22.714   3.308  0.00  0.00    +0.175 C 
ATOM     30  C   UNL     1     -35.708  24.198   5.194  0.00  0.00    -0.001 C 
ATOM     31  C   UNL     1     -35.551  21.643   4.107  0.00  0.00    +0.168 C 
ATOM     32  C   UNL     1     -35.309  23.123   5.990  0.00  0.00    +0.003 C 
ATOM     33  C   UNL     1     -35.225  21.848   5.445  0.00  0.00    +0.040 C 
ENDROOT
BRANCH  16  34
ATOM     34  O   UNL     1     -44.583  29.588  -0.378  0.00  0.00    -0.480 OA
ATOM     35  H   UNL     1     -45.391  29.178  -0.035  0.00  0.00    +0.295 HD
ENDBRANCH  16  34
BRANCH  31  36
ATOM     36  O   UNL     1     -35.460  20.383   3.592  0.00  0.00    -0.503 OA
ATOM     37  H   UNL     1     -35.798  19.654   4.074  0.00  0.00    +0.292 HD
ENDBRANCH  31  36
TORSDOF 2
ENDMDL
MODEL 7
REMARK VINA RESULT:      -7.7      1.366      1.658
REMARK  Name = 197398
REMARK  2 active torsions:
REMARK  status: ('A' for Active; 'I' for Inactive)
REMARK    1  A    between atoms: C_16  and  O_34
REMARK    2  A    between atoms: C_31  and  O_36
REMARK                            x       y       z     vdW  Elec       q    Type
REMARK                         _______ _______ _______ _____ _____    ______ ____
ROOT
ATOM      1  O   UNL     1     -36.100  22.528   2.387  0.00  0.00    -0.438 OA
ATOM      2  O   UNL     1     -38.613  21.076   0.284  0.00  0.00    -0.436 OA
ATOM      3  O   UNL     1     -35.078  24.868   2.070  0.00  0.00    -0.446 OA
ATOM      4  O   UNL     1     -42.456  23.297  -0.312  0.00  0.00    -0.286 OA
ATOM      5  O   UNL     1     -37.025  25.674   1.150  0.00  0.00    -0.246 OA
ATOM      6  O   UNL     1     -35.920  20.508   1.295  0.00  0.00    -0.246 OA
ATOM      7  O   UNL     1     -32.833  26.540   5.419  0.00  0.00    -0.451 OA
ATOM      8  C   UNL     1     -37.080  23.597   2.464  0.00  0.00    +0.247 C 
ATOM      9  C   UNL     1     -38.194  23.057   1.634  0.00  0.00    +0.053 C 
ATOM     10  C   UNL     1     -39.489  23.596   1.346  0.00  0.00    +0.009 C 
ATOM     11  C   UNL     1     -40.275  22.883   0.532  0.00  0.00    +0.110 C 
ATOM     12  C   UNL     1     -40.094  24.861   1.855  0.00  0.00    +0.003 C 
ATOM     13  C   UNL     1     -37.456  23.805   3.956  0.00  0.00    +0.082 C 
ATOM     14  C   UNL     1     -37.869  21.874   1.104  0.00  0.00    +0.289 C 
ATOM     15  C   UNL     1     -41.457  24.935   1.161  0.00  0.00    +0.042 C 
ATOM     16  C   UNL     1     -39.919  21.577  -0.090  0.00  0.00    +0.292 C 
ATOM     17  C   UNL     1     -41.513  23.654   0.376  0.00  0.00    +0.202 C 
ATOM     18  C   UNL     1     -36.421  24.824   1.793  0.00  0.00    +0.358 C 
ATOM     19  C   UNL     1     -36.534  21.523   1.574  0.00  0.00    +0.363 C 
ATOM     20  C   UNL     1     -36.365  24.522   4.721  0.00  0.00    -0.018 C 
ATOM     21  C   UNL     1     -36.404  25.920   4.831  0.00  0.00    -0.001 C 
ATOM     22  C   UNL     1     -35.217  23.827   5.123  0.00  0.00    -0.001 C 
ATOM     23  C   UNL     1     -34.375  26.078   1.714  0.00  0.00    +0.213 C 
ATOM     24  C   UNL     1     -32.991  26.077   2.385  0.00  0.00    +0.077 C 
ATOM     25  C   UNL     1     -35.252  26.625   5.158  0.00  0.00    +0.037 C 
ATOM     26  C   UNL     1     -34.063  24.531   5.454  0.00  0.00    +0.037 C 
ATOM     27  C   UNL     1     -34.062  25.924   5.367  0.00  0.00    +0.145 C 
ATOM     28  C   UNL     1     -32.665  27.378   3.092  0.00  0.00    +0.019 C 
ATOM     29  C   UNL     1     -32.602  27.543   4.494  0.00  0.00    +0.175 C 
ATOM     30  C   UNL     1     -32.387  28.498   2.287  0.00  0.00    -0.001 C 
ATOM     31  C   UNL     1     -32.230  28.776   5.050  0.00  0.00    +0.168 C 
ATOM     32  C   UNL     1     -32.041  29.729   2.846  0.00  0.00    +0.003 C 
ATOM     33  C   UNL     1     -31.957  29.866   4.227  0.00  0.00    +0.040 C 
ENDROOT
BRANCH  16  34
ATOM     34  O   UNL     1     -40.918  20.625   0.265  0.00  0.00    -0.480 OA
ATOM     35  H   UNL     1     -40.668  20.185   1.091  0.00  0.00    +0.295 HD
ENDBRANCH  16  34
BRANCH  31  36
ATOM     36  O   UNL     1     -32.141  28.932   6.401  0.00  0.00    -0.503 OA
ATOM     37  H   UNL     1     -31.349  29.255   6.785  0.00  0.00    +0.292 HD
ENDBRANCH  31  36
TORSDOF 2
ENDMDL
MODEL 8
REMARK VINA RESULT:      -7.0      9.048     11.888
REMARK  Name = 197398
REMARK  2 active torsions:
REMARK  status: ('A' for Active; 'I' for Inactive)
REMARK    1  A    between atoms: C_16  and  O_34
REMARK    2  A    between atoms: C_31  and  O_36
REMARK                            x       y       z     vdW  Elec       q    Type
REMARK                         _______ _______ _______ _____ _____    ______ ____
ROOT
ATOM      1  O   UNL     1     -43.015  32.435   1.608  0.00  0.00    -0.438 OA
ATOM      2  O   UNL     1     -42.952  35.498  -0.252  0.00  0.00    -0.436 OA
ATOM      3  O   UNL     1     -43.965  32.168   3.986  0.00  0.00    -0.446 OA
ATOM      4  O   UNL     1     -46.807  37.672  -0.935  0.00  0.00    -0.286 OA
ATOM      5  O   UNL     1     -45.511  33.834   3.634  0.00  0.00    -0.246 OA
ATOM      6  O   UNL     1     -41.133  33.406   0.704  0.00  0.00    -0.246 OA
ATOM      7  O   UNL     1     -44.713  28.106   5.395  0.00  0.00    -0.451 OA
ATOM      8  C   UNL     1     -44.426  32.766   1.703  0.00  0.00    +0.247 C 
ATOM      9  C   UNL     1     -44.502  34.028   0.914  0.00  0.00    +0.053 C 
ATOM     10  C   UNL     1     -45.625  34.847   0.569  0.00  0.00    +0.009 C 
ATOM     11  C   UNL     1     -45.375  35.955  -0.137  0.00  0.00    +0.110 C 
ATOM     12  C   UNL     1     -47.065  34.616   0.885  0.00  0.00    +0.003 C 
ATOM     13  C   UNL     1     -45.242  31.595   1.090  0.00  0.00    +0.082 C 
ATOM     14  C   UNL     1     -43.293  34.400   0.484  0.00  0.00    +0.289 C 
ATOM     15  C   UNL     1     -47.780  35.845   0.318  0.00  0.00    +0.042 C 
ATOM     16  C   UNL     1     -44.030  36.400  -0.600  0.00  0.00    +0.292 C 
ATOM     17  C   UNL     1     -46.667  36.620  -0.331  0.00  0.00    +0.202 C 
ATOM     18  C   UNL     1     -44.702  33.021   3.203  0.00  0.00    +0.358 C 
ATOM     19  C   UNL     1     -42.331  33.395   0.922  0.00  0.00    +0.363 C 
ATOM     20  C   UNL     1     -45.289  30.395   2.009  0.00  0.00    -0.018 C 
ATOM     21  C   UNL     1     -46.353  30.260   2.914  0.00  0.00    -0.001 C 
ATOM     22  C   UNL     1     -44.179  29.546   2.114  0.00  0.00    -0.001 C 
ATOM     23  C   UNL     1     -44.291  32.123   5.391  0.00  0.00    +0.213 C 
ATOM     24  C   UNL     1     -43.609  30.902   6.031  0.00  0.00    +0.077 C 
ATOM     25  C   UNL     1     -46.227  29.423   4.016  0.00  0.00    +0.037 C 
ATOM     26  C   UNL     1     -44.053  28.705   3.215  0.00  0.00    +0.037 C 
ATOM     27  C   UNL     1     -45.031  28.729   4.210  0.00  0.00    +0.145 C 
ATOM     28  C   UNL     1     -44.543  30.075   6.892  0.00  0.00    +0.019 C 
ATOM     29  C   UNL     1     -45.025  28.789   6.557  0.00  0.00    +0.175 C 
ATOM     30  C   UNL     1     -44.943  30.625   8.124  0.00  0.00    -0.001 C 
ATOM     31  C   UNL     1     -45.838  28.078   7.453  0.00  0.00    +0.168 C 
ATOM     32  C   UNL     1     -45.773  29.923   9.000  0.00  0.00    +0.003 C 
ATOM     33  C   UNL     1     -46.215  28.648   8.667  0.00  0.00    +0.040 C 
ENDROOT
BRANCH  16  34
ATOM     34  O   UNL     1     -44.077  36.569  -2.015  0.00  0.00    -0.480 OA
ATOM     35  H   UNL     1     -44.995  36.504  -2.318  0.00  0.00    +0.295 HD
ENDBRANCH  16  34
BRANCH  31  36
ATOM     36  O   UNL     1     -46.282  26.826   7.147  0.00  0.00    -0.503 OA
ATOM     37  H   UNL     1     -46.055  26.435   6.326  0.00  0.00    +0.292 HD
ENDBRANCH  31  36
TORSDOF 2
ENDMDL
MODEL 9
REMARK VINA RESULT:      -6.9      3.117      7.922
REMARK  Name = 197398
REMARK  2 active torsions:
REMARK  status: ('A' for Active; 'I' for Inactive)
REMARK    1  A    between atoms: C_16  and  O_34
REMARK    2  A    between atoms: C_31  and  O_36
REMARK                            x       y       z     vdW  Elec       q    Type
REMARK                         _______ _______ _______ _____ _____    ______ ____
ROOT
ATOM      1  O   UNL     1     -37.199  25.673   1.346  0.00  0.00    -0.438 OA
ATOM      2  O   UNL     1     -36.370  29.119   1.880  0.00  0.00    -0.436 OA
ATOM      3  O   UNL     1     -35.746  23.985   0.056  0.00  0.00    -0.446 OA
ATOM      4  O   UNL     1     -32.471  30.106   3.849  0.00  0.00    -0.286 OA
ATOM      5  O   UNL     1     -33.813  25.066   0.673  0.00  0.00    -0.246 OA
ATOM      6  O   UNL     1     -38.521  27.467   0.764  0.00  0.00    -0.246 OA
ATOM      7  O   UNL     1     -36.692  19.752   0.540  0.00  0.00    -0.451 OA
ATOM      8  C   UNL     1     -35.884  25.483   1.931  0.00  0.00    +0.247 C 
ATOM      9  C   UNL     1     -35.469  26.884   2.224  0.00  0.00    +0.053 C 
ATOM     10  C   UNL     1     -34.292  27.396   2.858  0.00  0.00    +0.009 C 
ATOM     11  C   UNL     1     -34.184  28.726   2.956  0.00  0.00    +0.110 C 
ATOM     12  C   UNL     1     -33.156  26.629   3.449  0.00  0.00    +0.003 C 
ATOM     13  C   UNL     1     -36.039  24.599   3.199  0.00  0.00    +0.082 C 
ATOM     14  C   UNL     1     -36.391  27.756   1.804  0.00  0.00    +0.289 C 
ATOM     15  C   UNL     1     -32.175  27.706   3.919  0.00  0.00    +0.042 C 
ATOM     16  C   UNL     1     -35.188  29.713   2.468  0.00  0.00    +0.292 C 
ATOM     17  C   UNL     1     -32.896  28.987   3.606  0.00  0.00    +0.202 C 
ATOM     18  C   UNL     1     -35.011  24.858   0.819  0.00  0.00    +0.358 C 
ATOM     19  C   UNL     1     -37.501  26.999   1.239  0.00  0.00    +0.363 C 
ATOM     20  C   UNL     1     -36.280  23.147   2.851  0.00  0.00    -0.018 C 
ATOM     21  C   UNL     1     -35.188  22.273   2.747  0.00  0.00    -0.001 C 
ATOM     22  C   UNL     1     -37.546  22.728   2.423  0.00  0.00    -0.001 C 
ATOM     23  C   UNL     1     -35.018  23.148  -0.867  0.00  0.00    +0.213 C 
ATOM     24  C   UNL     1     -35.943  22.032  -1.379  0.00  0.00    +0.077 C 
ATOM     25  C   UNL     1     -35.318  21.075   2.055  0.00  0.00    +0.037 C 
ATOM     26  C   UNL     1     -37.680  21.527   1.733  0.00  0.00    +0.037 C 
ATOM     27  C   UNL     1     -36.545  20.761   1.464  0.00  0.00    +0.145 C 
ATOM     28  C   UNL     1     -35.316  20.653  -1.314  0.00  0.00    +0.019 C 
ATOM     29  C   UNL     1     -35.695  19.634  -0.412  0.00  0.00    +0.175 C 
ATOM     30  C   UNL     1     -34.291  20.367  -2.236  0.00  0.00    -0.001 C 
ATOM     31  C   UNL     1     -35.093  18.369  -0.474  0.00  0.00    +0.168 C 
ATOM     32  C   UNL     1     -33.679  19.113  -2.276  0.00  0.00    +0.003 C 
ATOM     33  C   UNL     1     -34.084  18.113  -1.399  0.00  0.00    +0.040 C 
ENDROOT
BRANCH  16  34
ATOM     34  O   UNL     1     -35.562  30.547   3.562  0.00  0.00    -0.480 OA
ATOM     35  H   UNL     1     -36.481  30.364   3.808  0.00  0.00    +0.295 HD
ENDBRANCH  16  34
BRANCH  31  36
ATOM     36  O   UNL     1     -35.476  17.373   0.375  0.00  0.00    -0.503 OA
ATOM     37  H   UNL     1     -36.217  16.839   0.168  0.00  0.00    +0.292 HD
ENDBRANCH  31  36
TORSDOF 2
ENDMDL
