MODEL 1
REMARK VINA RESULT:      -5.7      0.000      0.000
REMARK  Name = 54672087
REMARK  15 active torsions:
REMARK  status: ('A' for Active; 'I' for Inactive)
REMARK    1  A    between atoms: C_1  and  C_4
REMARK    2  A    between atoms: C_2  and  C_16
REMARK    3  A    between atoms: C_4  and  C_5
REMARK    4  A    between atoms: C_5  and  C_6
REMARK    5  A    between atoms: C_6  and  C_9
REMARK    6  A    between atoms: C_6  and  O_14
REMARK    7  A    between atoms: C_16  and  O_17
REMARK    8  A    between atoms: C_16  and  C_19
REMARK    9  A    between atoms: C_19  and  C_20
REMARK   10  A    between atoms: C_21  and  C_23
REMARK   11  A    between atoms: C_23  and  C_24
REMARK   12  A    between atoms: C_24  and  C_25
REMARK   13  A    between atoms: C_25  and  C_27
REMARK   14  A    between atoms: C_27  and  C_28
REMARK   15  A    between atoms: C_28  and  O_29
REMARK                            x       y       z     vdW  Elec       q    Type
REMARK                         _______ _______ _______ _____ _____    ______ ____
ROOT
ATOM      1  C   UNL     1     -35.517  22.319   4.793  0.00  0.00    -0.046 C 
ATOM      2  C   UNL     1     -35.669  21.955   3.504  0.00  0.00    -0.006 C 
ATOM      3  C   UNL     1     -35.005  21.421   5.886  0.00  0.00    +0.026 C 
ENDROOT
BRANCH   1   4
ATOM      4  C   UNL     1     -35.906  23.717   5.234  0.00  0.00    +0.024 C 
BRANCH   4   5
ATOM      5  C   UNL     1     -35.049  24.803   4.567  0.00  0.00    +0.037 C 
BRANCH   5   6
ATOM      6  C   UNL     1     -35.900  25.963   4.041  0.00  0.00    +0.147 C 
BRANCH   6   9
ATOM      7  O   UNL     1     -34.712  28.059   3.936  0.00  0.00    -0.453 OA
ATOM      8  O   UNL     1     -32.891  29.449   4.068  0.00  0.00    -0.250 OA
ATOM      9  C   UNL     1     -35.074  26.899   3.164  0.00  0.00    +0.161 C 
ATOM     10  C   UNL     1     -33.739  26.286   2.774  0.00  0.00    +0.054 C 
ATOM     11  C   UNL     1     -32.831  27.489   2.647  0.00  0.00    +0.113 C 
ATOM     12  C   UNL     1     -35.889  27.354   1.951  0.00  0.00    +0.046 C 
ATOM     13  C   UNL     1     -33.436  28.448   3.627  0.00  0.00    +0.317 C 
ENDBRANCH   6   9
BRANCH   6  14
ATOM     14  O   UNL     1     -36.414  26.703   5.144  0.00  0.00    -0.381 OA
ATOM     15  H   UNL     1     -36.097  26.310   5.973  0.00  0.00    +0.210 HD
ENDBRANCH   6  14
ENDBRANCH   5   6
ENDBRANCH   4   5
ENDBRANCH   1   4
BRANCH   2  16
ATOM     16  C   UNL     1     -35.352  20.627   2.869  0.00  0.00    +0.136 C 
BRANCH  16  17
ATOM     17  O   UNL     1     -36.579  19.905   2.714  0.00  0.00    -0.380 OA
ATOM     18  H   UNL     1     -37.273  20.510   2.407  0.00  0.00    +0.211 HD
ENDBRANCH  16  17
BRANCH  16  19
ATOM     19  C   UNL     1     -34.708  20.775   1.480  0.00  0.00    +0.055 C 
BRANCH  19  20
ATOM     20  C   UNL     1     -35.128  22.018   0.718  0.00  0.00    -0.045 C 
ATOM     21  C   UNL     1     -36.315  22.044   0.081  0.00  0.00    -0.034 C 
ATOM     22  C   UNL     1     -34.154  23.163   0.773  0.00  0.00    +0.026 C 
BRANCH  21  23
ATOM     23  C   UNL     1     -36.939  23.178  -0.685  0.00  0.00    +0.026 C 
BRANCH  23  24
ATOM     24  C   UNL     1     -38.101  23.841   0.066  0.00  0.00    +0.012 C 
BRANCH  24  25
ATOM     25  C   UNL     1     -37.803  24.148   1.534  0.00  0.00    +0.068 C 
BRANCH  25  27
ATOM     26  O   UNL     1     -39.132  24.279   3.545  0.00  0.00    -0.293 OA
ATOM     27  C   UNL     1     -38.901  23.700   2.485  0.00  0.00    +0.180 C 
BRANCH  27  28
ATOM     28  C   UNL     1     -39.670  22.462   2.068  0.00  0.00    +0.202 C 
BRANCH  28  29
ATOM     29  O   UNL     1     -38.929  21.293   2.351  0.00  0.00    -0.375 OA
ATOM     30  H   UNL     1     -38.617  20.899   1.521  0.00  0.00    +0.211 HD
ENDBRANCH  28  29
ENDBRANCH  27  28
ENDBRANCH  25  27
ENDBRANCH  24  25
ENDBRANCH  23  24
ENDBRANCH  21  23
ENDBRANCH  19  20
ENDBRANCH  16  19
ENDBRANCH   2  16
TORSDOF 15
ENDMDL
MODEL 2
REMARK VINA RESULT:      -5.7      2.154      5.911
REMARK  Name = 54672087
REMARK  15 active torsions:
REMARK  status: ('A' for Active; 'I' for Inactive)
REMARK    1  A    between atoms: C_1  and  C_4
REMARK    2  A    between atoms: C_2  and  C_16
REMARK    3  A    between atoms: C_4  and  C_5
REMARK    4  A    between atoms: C_5  and  C_6
REMARK    5  A    between atoms: C_6  and  C_9
REMARK    6  A    between atoms: C_6  and  O_14
REMARK    7  A    between atoms: C_16  and  O_17
REMARK    8  A    between atoms: C_16  and  C_19
REMARK    9  A    between atoms: C_19  and  C_20
REMARK   10  A    between atoms: C_21  and  C_23
REMARK   11  A    between atoms: C_23  and  C_24
REMARK   12  A    between atoms: C_24  and  C_25
REMARK   13  A    between atoms: C_25  and  C_27
REMARK   14  A    between atoms: C_27  and  C_28
REMARK   15  A    between atoms: C_28  and  O_29
REMARK                            x       y       z     vdW  Elec       q    Type
REMARK                         _______ _______ _______ _____ _____    ______ ____
ROOT
ATOM      1  C   UNL     1     -35.185  22.461   5.064  0.00  0.00    -0.046 C 
ATOM      2  C   UNL     1     -34.860  23.696   4.633  0.00  0.00    -0.006 C 
ATOM      3  C   UNL     1     -35.414  22.085   6.502  0.00  0.00    +0.026 C 
ENDROOT
BRANCH   1   4
ATOM      4  C   UNL     1     -35.311  21.322   4.070  0.00  0.00    +0.024 C 
BRANCH   4   5
ATOM      5  C   UNL     1     -35.444  21.818   2.623  0.00  0.00    +0.037 C 
BRANCH   5   6
ATOM      6  C   UNL     1     -36.386  20.935   1.798  0.00  0.00    +0.147 C 
BRANCH   6   9
ATOM      7  O   UNL     1     -38.542  20.825   0.723  0.00  0.00    -0.453 OA
ATOM      8  O   UNL     1     -40.831  20.728   0.616  0.00  0.00    -0.250 OA
ATOM      9  C   UNL     1     -37.570  21.737   1.266  0.00  0.00    +0.161 C 
ATOM     10  C   UNL     1     -38.319  22.454   2.378  0.00  0.00    +0.054 C 
ATOM     11  C   UNL     1     -39.741  22.493   1.865  0.00  0.00    +0.113 C 
ATOM     12  C   UNL     1     -37.116  22.687   0.155  0.00  0.00    +0.046 C 
ATOM     13  C   UNL     1     -39.807  21.259   1.017  0.00  0.00    +0.317 C 
ENDBRANCH   6   9
BRANCH   6  14
ATOM     14  O   UNL     1     -36.879  19.882   2.620  0.00  0.00    -0.381 OA
ATOM     15  H   UNL     1     -37.751  19.601   2.298  0.00  0.00    +0.210 HD
ENDBRANCH   6  14
ENDBRANCH   5   6
ENDBRANCH   4   5
ENDBRANCH   1   4
BRANCH   2  16
ATOM     16  C   UNL     1     -34.683  24.949   5.448  0.00  0.00    +0.136 C 
BRANCH  16  17
ATOM     17  O   UNL     1     -33.425  25.536   5.091  0.00  0.00    -0.380 OA
ATOM     18  H   UNL     1     -32.727  24.866   5.158  0.00  0.00    +0.211 HD
ENDBRANCH  16  17
BRANCH  16  19
ATOM     19  C   UNL     1     -35.785  25.988   5.182  0.00  0.00    +0.055 C 
BRANCH  19  20
ATOM     20  C   UNL     1     -35.991  26.331   3.719  0.00  0.00    -0.045 C 
ATOM     21  C   UNL     1     -37.022  25.790   3.042  0.00  0.00    -0.034 C 
ATOM     22  C   UNL     1     -35.001  27.308   3.145  0.00  0.00    +0.026 C 
BRANCH  21  23
ATOM     23  C   UNL     1     -37.431  26.030   1.615  0.00  0.00    +0.026 C 
BRANCH  23  24
ATOM     24  C   UNL     1     -38.951  26.127   1.435  0.00  0.00    +0.012 C 
BRANCH  24  25
ATOM     25  C   UNL     1     -39.744  26.005   2.736  0.00  0.00    +0.068 C 
BRANCH  25  27
ATOM     26  O   UNL     1     -41.700  26.777   1.549  0.00  0.00    -0.293 OA
ATOM     27  C   UNL     1     -41.171  26.519   2.629  0.00  0.00    +0.180 C 
BRANCH  27  28
ATOM     28  C   UNL     1     -41.894  26.737   3.944  0.00  0.00    +0.202 C 
BRANCH  28  29
ATOM     29  O   UNL     1     -41.563  27.995   4.493  0.00  0.00    -0.375 OA
ATOM     30  H   UNL     1     -41.153  27.870   5.363  0.00  0.00    +0.211 HD
ENDBRANCH  28  29
ENDBRANCH  27  28
ENDBRANCH  25  27
ENDBRANCH  24  25
ENDBRANCH  23  24
ENDBRANCH  21  23
ENDBRANCH  19  20
ENDBRANCH  16  19
ENDBRANCH   2  16
TORSDOF 15
ENDMDL
MODEL 3
REMARK VINA RESULT:      -5.6      2.655      4.491
REMARK  Name = 54672087
REMARK  15 active torsions:
REMARK  status: ('A' for Active; 'I' for Inactive)
REMARK    1  A    between atoms: C_1  and  C_4
REMARK    2  A    between atoms: C_2  and  C_16
REMARK    3  A    between atoms: C_4  and  C_5
REMARK    4  A    between atoms: C_5  and  C_6
REMARK    5  A    between atoms: C_6  and  C_9
REMARK    6  A    between atoms: C_6  and  O_14
REMARK    7  A    between atoms: C_16  and  O_17
REMARK    8  A    between atoms: C_16  and  C_19
REMARK    9  A    between atoms: C_19  and  C_20
REMARK   10  A    between atoms: C_21  and  C_23
REMARK   11  A    between atoms: C_23  and  C_24
REMARK   12  A    between atoms: C_24  and  C_25
REMARK   13  A    between atoms: C_25  and  C_27
REMARK   14  A    between atoms: C_27  and  C_28
REMARK   15  A    between atoms: C_28  and  O_29
REMARK                            x       y       z     vdW  Elec       q    Type
REMARK                         _______ _______ _______ _____ _____    ______ ____
ROOT
ATOM      1  C   UNL     1     -35.539  22.375   4.765  0.00  0.00    -0.046 C 
ATOM      2  C   UNL     1     -35.741  22.054   3.471  0.00  0.00    -0.006 C 
ATOM      3  C   UNL     1     -35.015  21.432   5.813  0.00  0.00    +0.026 C 
ENDROOT
BRANCH   1   4
ATOM      4  C   UNL     1     -35.879  23.768   5.260  0.00  0.00    +0.024 C 
BRANCH   4   5
ATOM      5  C   UNL     1     -34.862  24.820   4.797  0.00  0.00    +0.037 C 
BRANCH   5   6
ATOM      6  C   UNL     1     -35.544  26.045   4.179  0.00  0.00    +0.147 C 
BRANCH   6   9
ATOM      7  O   UNL     1     -33.897  27.750   4.627  0.00  0.00    -0.453 OA
ATOM      8  O   UNL     1     -31.803  28.587   5.042  0.00  0.00    -0.250 OA
ATOM      9  C   UNL     1     -34.520  26.998   3.569  0.00  0.00    +0.161 C 
ATOM     10  C   UNL     1     -33.365  26.253   2.919  0.00  0.00    +0.054 C 
ATOM     11  C   UNL     1     -32.200  27.201   3.096  0.00  0.00    +0.113 C 
ATOM     12  C   UNL     1     -35.204  27.975   2.610  0.00  0.00    +0.046 C 
ATOM     13  C   UNL     1     -32.565  27.920   4.360  0.00  0.00    +0.317 C 
ENDBRANCH   6   9
BRANCH   6  14
ATOM     14  O   UNL     1     -36.267  26.738   5.192  0.00  0.00    -0.381 OA
ATOM     15  H   UNL     1     -37.026  27.194   4.793  0.00  0.00    +0.210 HD
ENDBRANCH   6  14
ENDBRANCH   5   6
ENDBRANCH   4   5
ENDBRANCH   1   4
BRANCH   2  16
ATOM     16  C   UNL     1     -35.477  20.739   2.787  0.00  0.00    +0.136 C 
BRANCH  16  17
ATOM     17  O   UNL     1     -36.668  19.948   2.872  0.00  0.00    -0.380 OA
ATOM     18  H   UNL     1     -36.735  19.561   3.759  0.00  0.00    +0.211 HD
ENDBRANCH  16  17
BRANCH  16  19
ATOM     19  C   UNL     1     -35.123  20.908   1.300  0.00  0.00    +0.055 C 
BRANCH  19  20
ATOM     20  C   UNL     1     -33.765  20.360   0.906  0.00  0.00    -0.045 C 
ATOM     21  C   UNL     1     -33.379  19.145   1.345  0.00  0.00    -0.034 C 
ATOM     22  C   UNL     1     -32.953  21.245   0.001  0.00  0.00    +0.026 C 
BRANCH  21  23
ATOM     23  C   UNL     1     -32.109  18.401   1.040  0.00  0.00    +0.026 C 
BRANCH  23  24
ATOM     24  C   UNL     1     -32.320  17.220   0.085  0.00  0.00    +0.012 C 
BRANCH  24  25
ATOM     25  C   UNL     1     -33.574  16.395   0.379  0.00  0.00    +0.068 C 
BRANCH  25  27
ATOM     26  O   UNL     1     -34.544  17.223  -1.671  0.00  0.00    -0.293 OA
ATOM     27  C   UNL     1     -34.589  16.406  -0.753  0.00  0.00    +0.180 C 
BRANCH  27  28
ATOM     28  C   UNL     1     -35.694  15.374  -0.658  0.00  0.00    +0.202 C 
BRANCH  28  29
ATOM     29  O   UNL     1     -36.139  15.236   0.675  0.00  0.00    -0.375 OA
ATOM     30  H   UNL     1     -36.196  14.295   0.902  0.00  0.00    +0.211 HD
ENDBRANCH  28  29
ENDBRANCH  27  28
ENDBRANCH  25  27
ENDBRANCH  24  25
ENDBRANCH  23  24
ENDBRANCH  21  23
ENDBRANCH  19  20
ENDBRANCH  16  19
ENDBRANCH   2  16
TORSDOF 15
ENDMDL
MODEL 4
REMARK VINA RESULT:      -5.4      2.025      5.400
REMARK  Name = 54672087
REMARK  15 active torsions:
REMARK  status: ('A' for Active; 'I' for Inactive)
REMARK    1  A    between atoms: C_1  and  C_4
REMARK    2  A    between atoms: C_2  and  C_16
REMARK    3  A    between atoms: C_4  and  C_5
REMARK    4  A    between atoms: C_5  and  C_6
REMARK    5  A    between atoms: C_6  and  C_9
REMARK    6  A    between atoms: C_6  and  O_14
REMARK    7  A    between atoms: C_16  and  O_17
REMARK    8  A    between atoms: C_16  and  C_19
REMARK    9  A    between atoms: C_19  and  C_20
REMARK   10  A    between atoms: C_21  and  C_23
REMARK   11  A    between atoms: C_23  and  C_24
REMARK   12  A    between atoms: C_24  and  C_25
REMARK   13  A    between atoms: C_25  and  C_27
REMARK   14  A    between atoms: C_27  and  C_28
REMARK   15  A    between atoms: C_28  and  O_29
REMARK                            x       y       z     vdW  Elec       q    Type
REMARK                         _______ _______ _______ _____ _____    ______ ____
ROOT
ATOM      1  C   UNL     1     -35.056  22.565   5.378  0.00  0.00    -0.046 C 
ATOM      2  C   UNL     1     -34.679  23.768   4.901  0.00  0.00    -0.006 C 
ATOM      3  C   UNL     1     -35.510  22.303   6.788  0.00  0.00    +0.026 C 
ENDROOT
BRANCH   1   4
ATOM      4  C   UNL     1     -35.009  21.346   4.476  0.00  0.00    +0.024 C 
BRANCH   4   5
ATOM      5  C   UNL     1     -35.691  21.590   3.123  0.00  0.00    +0.037 C 
BRANCH   5   6
ATOM      6  C   UNL     1     -36.041  20.280   2.411  0.00  0.00    +0.147 C 
BRANCH   6   9
ATOM      7  O   UNL     1     -34.827  21.370   0.635  0.00  0.00    -0.453 OA
ATOM      8  O   UNL     1     -32.996  22.277  -0.406  0.00  0.00    -0.250 OA
ATOM      9  C   UNL     1     -35.182  20.080   1.166  0.00  0.00    +0.161 C 
ATOM     10  C   UNL     1     -33.844  19.437   1.494  0.00  0.00    +0.054 C 
ATOM     11  C   UNL     1     -32.920  20.010   0.443  0.00  0.00    +0.113 C 
ATOM     12  C   UNL     1     -35.960  19.308   0.098  0.00  0.00    +0.046 C 
ATOM     13  C   UNL     1     -33.540  21.348   0.171  0.00  0.00    +0.317 C 
ENDBRANCH   6   9
BRANCH   6  14
ATOM     14  O   UNL     1     -37.411  20.311   2.022  0.00  0.00    -0.381 OA
ATOM     15  H   UNL     1     -37.689  19.423   1.745  0.00  0.00    +0.210 HD
ENDBRANCH   6  14
ENDBRANCH   5   6
ENDBRANCH   4   5
ENDBRANCH   1   4
BRANCH   2  16
ATOM     16  C   UNL     1     -34.648  25.088   5.625  0.00  0.00    +0.136 C 
BRANCH  16  17
ATOM     17  O   UNL     1     -33.493  25.810   5.181  0.00  0.00    -0.380 OA
ATOM     18  H   UNL     1     -33.108  26.293   5.928  0.00  0.00    +0.211 HD
ENDBRANCH  16  17
BRANCH  16  19
ATOM     19  C   UNL     1     -35.888  25.949   5.337  0.00  0.00    +0.055 C 
BRANCH  19  20
ATOM     20  C   UNL     1     -36.470  25.775   3.946  0.00  0.00    -0.045 C 
ATOM     21  C   UNL     1     -37.483  24.910   3.746  0.00  0.00    -0.034 C 
ATOM     22  C   UNL     1     -35.856  26.643   2.882  0.00  0.00    +0.026 C 
BRANCH  21  23
ATOM     23  C   UNL     1     -38.228  24.622   2.473  0.00  0.00    +0.026 C 
BRANCH  23  24
ATOM     24  C   UNL     1     -39.639  24.073   2.715  0.00  0.00    +0.012 C 
BRANCH  24  25
ATOM     25  C   UNL     1     -40.373  23.650   1.441  0.00  0.00    +0.068 C 
BRANCH  25  27
ATOM     26  O   UNL     1     -40.223  21.242   1.520  0.00  0.00    -0.293 OA
ATOM     27  C   UNL     1     -39.955  22.283   0.923  0.00  0.00    +0.180 C 
BRANCH  27  28
ATOM     28  C   UNL     1     -39.145  22.282  -0.358  0.00  0.00    +0.202 C 
BRANCH  28  29
ATOM     29  O   UNL     1     -37.762  22.299  -0.076  0.00  0.00    -0.375 OA
ATOM     30  H   UNL     1     -37.628  22.367   0.882  0.00  0.00    +0.211 HD
ENDBRANCH  28  29
ENDBRANCH  27  28
ENDBRANCH  25  27
ENDBRANCH  24  25
ENDBRANCH  23  24
ENDBRANCH  21  23
ENDBRANCH  19  20
ENDBRANCH  16  19
ENDBRANCH   2  16
TORSDOF 15
ENDMDL
MODEL 5
REMARK VINA RESULT:      -5.4      3.251      8.150
REMARK  Name = 54672087
REMARK  15 active torsions:
REMARK  status: ('A' for Active; 'I' for Inactive)
REMARK    1  A    between atoms: C_1  and  C_4
REMARK    2  A    between atoms: C_2  and  C_16
REMARK    3  A    between atoms: C_4  and  C_5
REMARK    4  A    between atoms: C_5  and  C_6
REMARK    5  A    between atoms: C_6  and  C_9
REMARK    6  A    between atoms: C_6  and  O_14
REMARK    7  A    between atoms: C_16  and  O_17
REMARK    8  A    between atoms: C_16  and  C_19
REMARK    9  A    between atoms: C_19  and  C_20
REMARK   10  A    between atoms: C_21  and  C_23
REMARK   11  A    between atoms: C_23  and  C_24
REMARK   12  A    between atoms: C_24  and  C_25
REMARK   13  A    between atoms: C_25  and  C_27
REMARK   14  A    between atoms: C_27  and  C_28
REMARK   15  A    between atoms: C_28  and  O_29
REMARK                            x       y       z     vdW  Elec       q    Type
REMARK                         _______ _______ _______ _____ _____    ______ ____
ROOT
ATOM      1  C   UNL     1     -33.515  20.202   0.930  0.00  0.00    -0.046 C 
ATOM      2  C   UNL     1     -34.430  19.892   1.870  0.00  0.00    -0.006 C 
ATOM      3  C   UNL     1     -33.609  21.374  -0.008  0.00  0.00    +0.026 C 
ENDROOT
BRANCH   1   4
ATOM      4  C   UNL     1     -32.296  19.318   0.742  0.00  0.00    +0.024 C 
BRANCH   4   5
ATOM      5  C   UNL     1     -32.573  17.852   1.102  0.00  0.00    +0.037 C 
BRANCH   5   6
ATOM      6  C   UNL     1     -32.396  16.922  -0.102  0.00  0.00    +0.147 C 
BRANCH   6   9
ATOM      7  O   UNL     1     -34.798  16.989   0.105  0.00  0.00    -0.453 OA
ATOM      8  O   UNL     1     -36.896  17.898  -0.082  0.00  0.00    -0.250 OA
ATOM      9  C   UNL     1     -33.728  16.663  -0.800  0.00  0.00    +0.161 C 
ATOM     10  C   UNL     1     -33.945  17.598  -1.979  0.00  0.00    +0.054 C 
ATOM     11  C   UNL     1     -35.448  17.760  -2.018  0.00  0.00    +0.113 C 
ATOM     12  C   UNL     1     -33.849  15.188  -1.190  0.00  0.00    +0.046 C 
ATOM     13  C   UNL     1     -35.824  17.585  -0.578  0.00  0.00    +0.317 C 
ENDBRANCH   6   9
BRANCH   6  14
ATOM     14  O   UNL     1     -31.863  15.678   0.343  0.00  0.00    -0.381 OA
ATOM     15  H   UNL     1     -32.529  14.981   0.229  0.00  0.00    +0.210 HD
ENDBRANCH   6  14
ENDBRANCH   5   6
ENDBRANCH   4   5
ENDBRANCH   1   4
BRANCH   2  16
ATOM     16  C   UNL     1     -35.699  20.628   2.212  0.00  0.00    +0.136 C 
BRANCH  16  17
ATOM     17  O   UNL     1     -36.725  19.656   2.447  0.00  0.00    -0.380 OA
ATOM     18  H   UNL     1     -37.421  19.754   1.779  0.00  0.00    +0.211 HD
ENDBRANCH  16  17
BRANCH  16  19
ATOM     19  C   UNL     1     -35.560  21.489   3.478  0.00  0.00    +0.055 C 
BRANCH  19  20
ATOM     20  C   UNL     1     -35.980  22.936   3.308  0.00  0.00    -0.045 C 
ATOM     21  C   UNL     1     -36.307  23.671   4.389  0.00  0.00    -0.034 C 
ATOM     22  C   UNL     1     -35.964  23.446   1.893  0.00  0.00    +0.026 C 
BRANCH  21  23
ATOM     23  C   UNL     1     -36.701  25.121   4.449  0.00  0.00    +0.026 C 
BRANCH  23  24
ATOM     24  C   UNL     1     -35.960  25.900   5.543  0.00  0.00    +0.012 C 
BRANCH  24  25
ATOM     25  C   UNL     1     -34.481  25.537   5.677  0.00  0.00    +0.068 C 
BRANCH  25  27
ATOM     26  O   UNL     1     -32.990  27.404   6.024  0.00  0.00    -0.293 OA
ATOM     27  C   UNL     1     -33.539  26.643   5.229  0.00  0.00    +0.180 C 
BRANCH  27  28
ATOM     28  C   UNL     1     -33.350  26.782   3.732  0.00  0.00    +0.202 C 
BRANCH  28  29
ATOM     29  O   UNL     1     -31.978  26.778   3.397  0.00  0.00    -0.375 OA
ATOM     30  H   UNL     1     -31.864  26.410   2.507  0.00  0.00    +0.211 HD
ENDBRANCH  28  29
ENDBRANCH  27  28
ENDBRANCH  25  27
ENDBRANCH  24  25
ENDBRANCH  23  24
ENDBRANCH  21  23
ENDBRANCH  19  20
ENDBRANCH  16  19
ENDBRANCH   2  16
TORSDOF 15
ENDMDL
MODEL 6
REMARK VINA RESULT:      -5.4      3.321      5.437
REMARK  Name = 54672087
REMARK  15 active torsions:
REMARK  status: ('A' for Active; 'I' for Inactive)
REMARK    1  A    between atoms: C_1  and  C_4
REMARK    2  A    between atoms: C_2  and  C_16
REMARK    3  A    between atoms: C_4  and  C_5
REMARK    4  A    between atoms: C_5  and  C_6
REMARK    5  A    between atoms: C_6  and  C_9
REMARK    6  A    between atoms: C_6  and  O_14
REMARK    7  A    between atoms: C_16  and  O_17
REMARK    8  A    between atoms: C_16  and  C_19
REMARK    9  A    between atoms: C_19  and  C_20
REMARK   10  A    between atoms: C_21  and  C_23
REMARK   11  A    between atoms: C_23  and  C_24
REMARK   12  A    between atoms: C_24  and  C_25
REMARK   13  A    between atoms: C_25  and  C_27
REMARK   14  A    between atoms: C_27  and  C_28
REMARK   15  A    between atoms: C_28  and  O_29
REMARK                            x       y       z     vdW  Elec       q    Type
REMARK                         _______ _______ _______ _____ _____    ______ ____
ROOT
ATOM      1  C   UNL     1     -35.476  22.476   4.983  0.00  0.00    -0.046 C 
ATOM      2  C   UNL     1     -35.645  22.290   3.659  0.00  0.00    -0.006 C 
ATOM      3  C   UNL     1     -35.069  21.405   5.958  0.00  0.00    +0.026 C 
ENDROOT
BRANCH   1   4
ATOM      4  C   UNL     1     -35.734  23.841   5.593  0.00  0.00    +0.024 C 
BRANCH   4   5
ATOM      5  C   UNL     1     -34.777  24.914   5.056  0.00  0.00    +0.037 C 
BRANCH   5   6
ATOM      6  C   UNL     1     -35.515  25.997   4.262  0.00  0.00    +0.147 C 
BRANCH   6   9
ATOM      7  O   UNL     1     -33.900  27.768   4.523  0.00  0.00    -0.453 OA
ATOM      8  O   UNL     1     -31.815  28.683   4.804  0.00  0.00    -0.250 OA
ATOM      9  C   UNL     1     -34.535  26.922   3.547  0.00  0.00    +0.161 C 
ATOM     10  C   UNL     1     -33.383  26.156   2.918  0.00  0.00    +0.054 C 
ATOM     11  C   UNL     1     -32.237  27.142   2.984  0.00  0.00    +0.113 C 
ATOM     12  C   UNL     1     -35.273  27.806   2.539  0.00  0.00    +0.046 C 
ATOM     13  C   UNL     1     -32.581  27.948   4.200  0.00  0.00    +0.317 C 
ENDBRANCH   6   9
BRANCH   6  14
ATOM     14  O   UNL     1     -36.310  26.772   5.155  0.00  0.00    -0.381 OA
ATOM     15  H   UNL     1     -35.844  27.596   5.370  0.00  0.00    +0.210 HD
ENDBRANCH   6  14
ENDBRANCH   5   6
ENDBRANCH   4   5
ENDBRANCH   1   4
BRANCH   2  16
ATOM     16  C   UNL     1     -35.448  21.025   2.866  0.00  0.00    +0.136 C 
BRANCH  16  17
ATOM     17  O   UNL     1     -36.678  20.292   2.889  0.00  0.00    -0.380 OA
ATOM     18  H   UNL     1     -37.304  20.730   3.488  0.00  0.00    +0.211 HD
ENDBRANCH  16  17
BRANCH  16  19
ATOM     19  C   UNL     1     -35.087  21.301   1.396  0.00  0.00    +0.055 C 
BRANCH  19  20
ATOM     20  C   UNL     1     -34.022  20.383   0.825  0.00  0.00    -0.045 C 
ATOM     21  C   UNL     1     -34.042  19.068   1.118  0.00  0.00    -0.034 C 
ATOM     22  C   UNL     1     -33.020  21.050  -0.078  0.00  0.00    +0.026 C 
BRANCH  21  23
ATOM     23  C   UNL     1     -33.120  17.988   0.625  0.00  0.00    +0.026 C 
BRANCH  23  24
ATOM     24  C   UNL     1     -31.765  17.981   1.345  0.00  0.00    +0.012 C 
BRANCH  24  25
ATOM     25  C   UNL     1     -30.564  17.809   0.415  0.00  0.00    +0.068 C 
BRANCH  25  27
ATOM     26  O   UNL     1     -29.023  15.999   0.840  0.00  0.00    -0.293 OA
ATOM     27  C   UNL     1     -30.071  16.374   0.316  0.00  0.00    +0.180 C 
BRANCH  27  28
ATOM     28  C   UNL     1     -30.929  15.438  -0.511  0.00  0.00    +0.202 C 
BRANCH  28  29
ATOM     29  O   UNL     1     -31.585  14.499   0.315  0.00  0.00    -0.375 OA
ATOM     30  H   UNL     1     -31.081  13.670   0.324  0.00  0.00    +0.211 HD
ENDBRANCH  28  29
ENDBRANCH  27  28
ENDBRANCH  25  27
ENDBRANCH  24  25
ENDBRANCH  23  24
ENDBRANCH  21  23
ENDBRANCH  19  20
ENDBRANCH  16  19
ENDBRANCH   2  16
TORSDOF 15
ENDMDL
MODEL 7
REMARK VINA RESULT:      -5.4      2.732      4.213
REMARK  Name = 54672087
REMARK  15 active torsions:
REMARK  status: ('A' for Active; 'I' for Inactive)
REMARK    1  A    between atoms: C_1  and  C_4
REMARK    2  A    between atoms: C_2  and  C_16
REMARK    3  A    between atoms: C_4  and  C_5
REMARK    4  A    between atoms: C_5  and  C_6
REMARK    5  A    between atoms: C_6  and  C_9
REMARK    6  A    between atoms: C_6  and  O_14
REMARK    7  A    between atoms: C_16  and  O_17
REMARK    8  A    between atoms: C_16  and  C_19
REMARK    9  A    between atoms: C_19  and  C_20
REMARK   10  A    between atoms: C_21  and  C_23
REMARK   11  A    between atoms: C_23  and  C_24
REMARK   12  A    between atoms: C_24  and  C_25
REMARK   13  A    between atoms: C_25  and  C_27
REMARK   14  A    between atoms: C_27  and  C_28
REMARK   15  A    between atoms: C_28  and  O_29
REMARK                            x       y       z     vdW  Elec       q    Type
REMARK                         _______ _______ _______ _____ _____    ______ ____
ROOT
ATOM      1  C   UNL     1     -34.276  20.359   1.400  0.00  0.00    -0.046 C 
ATOM      2  C   UNL     1     -33.788  19.132   1.670  0.00  0.00    -0.006 C 
ATOM      3  C   UNL     1     -33.908  21.187   0.200  0.00  0.00    +0.026 C 
ENDROOT
BRANCH   1   4
ATOM      4  C   UNL     1     -35.249  21.014   2.364  0.00  0.00    +0.024 C 
BRANCH   4   5
ATOM      5  C   UNL     1     -35.077  22.538   2.426  0.00  0.00    +0.037 C 
BRANCH   5   6
ATOM      6  C   UNL     1     -36.164  23.204   3.275  0.00  0.00    +0.147 C 
BRANCH   6   9
ATOM      7  O   UNL     1     -34.274  24.358   4.231  0.00  0.00    -0.453 OA
ATOM      8  O   UNL     1     -33.039  26.175   4.891  0.00  0.00    -0.250 OA
ATOM      9  C   UNL     1     -35.575  23.825   4.539  0.00  0.00    +0.161 C 
ATOM     10  C   UNL     1     -36.369  25.035   5.002  0.00  0.00    +0.054 C 
ATOM     11  C   UNL     1     -35.320  25.904   5.660  0.00  0.00    +0.113 C 
ATOM     12  C   UNL     1     -35.423  22.766   5.634  0.00  0.00    +0.046 C 
ATOM     13  C   UNL     1     -34.081  25.538   4.898  0.00  0.00    +0.317 C 
ENDBRANCH   6   9
BRANCH   6  14
ATOM     14  O   UNL     1     -37.128  22.225   3.652  0.00  0.00    -0.381 OA
ATOM     15  H   UNL     1     -36.884  21.366   3.271  0.00  0.00    +0.210 HD
ENDBRANCH   6  14
ENDBRANCH   5   6
ENDBRANCH   4   5
ENDBRANCH   1   4
BRANCH   2  16
ATOM     16  C   UNL     1     -32.819  18.317   0.855  0.00  0.00    +0.136 C 
BRANCH  16  17
ATOM     17  O   UNL     1     -31.866  17.734   1.753  0.00  0.00    -0.380 OA
ATOM     18  H   UNL     1     -32.166  16.849   2.011  0.00  0.00    +0.211 HD
ENDBRANCH  16  17
BRANCH  16  19
ATOM     19  C   UNL     1     -33.507  17.177   0.086  0.00  0.00    +0.055 C 
BRANCH  19  20
ATOM     20  C   UNL     1     -34.642  17.619  -0.818  0.00  0.00    -0.045 C 
ATOM     21  C   UNL     1     -35.919  17.403  -0.446  0.00  0.00    -0.034 C 
ATOM     22  C   UNL     1     -34.220  18.314  -2.084  0.00  0.00    +0.026 C 
BRANCH  21  23
ATOM     23  C   UNL     1     -37.180  17.799  -1.161  0.00  0.00    +0.026 C 
BRANCH  23  24
ATOM     24  C   UNL     1     -37.939  18.931  -0.458  0.00  0.00    +0.012 C 
BRANCH  24  25
ATOM     25  C   UNL     1     -37.557  20.332  -0.938  0.00  0.00    +0.068 C 
BRANCH  25  27
ATOM     26  O   UNL     1     -37.498  22.528   0.063  0.00  0.00    -0.293 OA
ATOM     27  C   UNL     1     -38.072  21.445  -0.039  0.00  0.00    +0.180 C 
BRANCH  27  28
ATOM     28  C   UNL     1     -39.316  21.122   0.764  0.00  0.00    +0.202 C 
BRANCH  28  29
ATOM     29  O   UNL     1     -39.008  20.999   2.137  0.00  0.00    -0.375 OA
ATOM     30  H   UNL     1     -38.598  21.820   2.451  0.00  0.00    +0.211 HD
ENDBRANCH  28  29
ENDBRANCH  27  28
ENDBRANCH  25  27
ENDBRANCH  24  25
ENDBRANCH  23  24
ENDBRANCH  21  23
ENDBRANCH  19  20
ENDBRANCH  16  19
ENDBRANCH   2  16
TORSDOF 15
ENDMDL
MODEL 8
REMARK VINA RESULT:      -5.4      3.125      5.137
REMARK  Name = 54672087
REMARK  15 active torsions:
REMARK  status: ('A' for Active; 'I' for Inactive)
REMARK    1  A    between atoms: C_1  and  C_4
REMARK    2  A    between atoms: C_2  and  C_16
REMARK    3  A    between atoms: C_4  and  C_5
REMARK    4  A    between atoms: C_5  and  C_6
REMARK    5  A    between atoms: C_6  and  C_9
REMARK    6  A    between atoms: C_6  and  O_14
REMARK    7  A    between atoms: C_16  and  O_17
REMARK    8  A    between atoms: C_16  and  C_19
REMARK    9  A    between atoms: C_19  and  C_20
REMARK   10  A    between atoms: C_21  and  C_23
REMARK   11  A    between atoms: C_23  and  C_24
REMARK   12  A    between atoms: C_24  and  C_25
REMARK   13  A    between atoms: C_25  and  C_27
REMARK   14  A    between atoms: C_27  and  C_28
REMARK   15  A    between atoms: C_28  and  O_29
REMARK                            x       y       z     vdW  Elec       q    Type
REMARK                         _______ _______ _______ _____ _____    ______ ____
ROOT
ATOM      1  C   UNL     1     -35.753  22.567   4.553  0.00  0.00    -0.046 C 
ATOM      2  C   UNL     1     -35.920  22.068   3.312  0.00  0.00    -0.006 C 
ATOM      3  C   UNL     1     -35.156  21.813   5.709  0.00  0.00    +0.026 C 
ENDROOT
BRANCH   1   4
ATOM      4  C   UNL     1     -36.213  23.978   4.868  0.00  0.00    +0.024 C 
BRANCH   4   5
ATOM      5  C   UNL     1     -35.972  24.948   3.704  0.00  0.00    +0.037 C 
BRANCH   5   6
ATOM      6  C   UNL     1     -35.634  26.360   4.193  0.00  0.00    +0.147 C 
BRANCH   6   9
ATOM      7  O   UNL     1     -33.742  27.852   4.295  0.00  0.00    -0.453 OA
ATOM      8  O   UNL     1     -32.277  29.319   5.277  0.00  0.00    -0.250 OA
ATOM      9  C   UNL     1     -34.150  26.491   4.521  0.00  0.00    +0.161 C 
ATOM     10  C   UNL     1     -33.871  26.264   5.998  0.00  0.00    +0.054 C 
ATOM     11  C   UNL     1     -32.667  27.141   6.260  0.00  0.00    +0.113 C 
ATOM     12  C   UNL     1     -33.320  25.575   3.619  0.00  0.00    +0.046 C 
ATOM     13  C   UNL     1     -32.852  28.242   5.260  0.00  0.00    +0.317 C 
ENDBRANCH   6   9
BRANCH   6  14
ATOM     14  O   UNL     1     -36.390  26.641   5.367  0.00  0.00    -0.381 OA
ATOM     15  H   UNL     1     -35.941  27.330   5.884  0.00  0.00    +0.210 HD
ENDBRANCH   6  14
ENDBRANCH   5   6
ENDBRANCH   4   5
ENDBRANCH   1   4
BRANCH   2  16
ATOM     16  C   UNL     1     -35.541  20.704   2.799  0.00  0.00    +0.136 C 
BRANCH  16  17
ATOM     17  O   UNL     1     -36.718  19.888   2.800  0.00  0.00    -0.380 OA
ATOM     18  H   UNL     1     -37.412  20.321   2.277  0.00  0.00    +0.211 HD
ENDBRANCH  16  17
BRANCH  16  19
ATOM     19  C   UNL     1     -34.992  20.745   1.363  0.00  0.00    +0.055 C 
BRANCH  19  20
ATOM     20  C   UNL     1     -34.360  19.450   0.890  0.00  0.00    -0.045 C 
ATOM     21  C   UNL     1     -33.196  19.036   1.429  0.00  0.00    -0.034 C 
ATOM     22  C   UNL     1     -35.140  18.701  -0.156  0.00  0.00    +0.026 C 
BRANCH  21  23
ATOM     23  C   UNL     1     -32.431  17.774   1.142  0.00  0.00    +0.026 C 
BRANCH  23  24
ATOM     24  C   UNL     1     -31.012  18.037   0.622  0.00  0.00    +0.012 C 
BRANCH  24  25
ATOM     25  C   UNL     1     -30.817  19.425   0.013  0.00  0.00    +0.068 C 
BRANCH  25  27
ATOM     26  O   UNL     1     -29.682  19.359  -2.117  0.00  0.00    -0.293 OA
ATOM     27  C   UNL     1     -30.748  19.419  -1.506  0.00  0.00    +0.180 C 
BRANCH  27  28
ATOM     28  C   UNL     1     -32.076  19.538  -2.227  0.00  0.00    +0.202 C 
BRANCH  28  29
ATOM     29  O   UNL     1     -32.586  18.262  -2.551  0.00  0.00    -0.375 OA
ATOM     30  H   UNL     1     -32.747  17.762  -1.736  0.00  0.00    +0.211 HD
ENDBRANCH  28  29
ENDBRANCH  27  28
ENDBRANCH  25  27
ENDBRANCH  24  25
ENDBRANCH  23  24
ENDBRANCH  21  23
ENDBRANCH  19  20
ENDBRANCH  16  19
ENDBRANCH   2  16
TORSDOF 15
ENDMDL
MODEL 9
REMARK VINA RESULT:      -5.4      2.006      6.464
REMARK  Name = 54672087
REMARK  15 active torsions:
REMARK  status: ('A' for Active; 'I' for Inactive)
REMARK    1  A    between atoms: C_1  and  C_4
REMARK    2  A    between atoms: C_2  and  C_16
REMARK    3  A    between atoms: C_4  and  C_5
REMARK    4  A    between atoms: C_5  and  C_6
REMARK    5  A    between atoms: C_6  and  C_9
REMARK    6  A    between atoms: C_6  and  O_14
REMARK    7  A    between atoms: C_16  and  O_17
REMARK    8  A    between atoms: C_16  and  C_19
REMARK    9  A    between atoms: C_19  and  C_20
REMARK   10  A    between atoms: C_21  and  C_23
REMARK   11  A    between atoms: C_23  and  C_24
REMARK   12  A    between atoms: C_24  and  C_25
REMARK   13  A    between atoms: C_25  and  C_27
REMARK   14  A    between atoms: C_27  and  C_28
REMARK   15  A    between atoms: C_28  and  O_29
REMARK                            x       y       z     vdW  Elec       q    Type
REMARK                         _______ _______ _______ _____ _____    ______ ____
ROOT
ATOM      1  C   UNL     1     -35.207  22.442   5.064  0.00  0.00    -0.046 C 
ATOM      2  C   UNL     1     -34.822  23.668   4.660  0.00  0.00    -0.006 C 
ATOM      3  C   UNL     1     -35.577  22.077   6.475  0.00  0.00    +0.026 C 
ENDROOT
BRANCH   1   4
ATOM      4  C   UNL     1     -35.257  21.299   4.066  0.00  0.00    +0.024 C 
BRANCH   4   5
ATOM      5  C   UNL     1     -35.391  21.790   2.618  0.00  0.00    +0.037 C 
BRANCH   5   6
ATOM      6  C   UNL     1     -36.373  20.935   1.811  0.00  0.00    +0.147 C 
BRANCH   6   9
ATOM      7  O   UNL     1     -38.508  20.892   0.690  0.00  0.00    -0.453 OA
ATOM      8  O   UNL     1     -40.794  20.792   0.533  0.00  0.00    -0.250 OA
ATOM      9  C   UNL     1     -37.551  21.768   1.315  0.00  0.00    +0.161 C 
ATOM     10  C   UNL     1     -38.324  22.400   2.460  0.00  0.00    +0.054 C 
ATOM     11  C   UNL     1     -39.737  22.469   1.925  0.00  0.00    +0.113 C 
ATOM     12  C   UNL     1     -37.082  22.796   0.283  0.00  0.00    +0.046 C 
ATOM     13  C   UNL     1     -39.780  21.298   0.990  0.00  0.00    +0.317 C 
ENDBRANCH   6   9
BRANCH   6  14
ATOM     14  O   UNL     1     -36.869  19.886   2.637  0.00  0.00    -0.381 OA
ATOM     15  H   UNL     1     -37.838  19.931   2.671  0.00  0.00    +0.210 HD
ENDBRANCH   6  14
ENDBRANCH   5   6
ENDBRANCH   4   5
ENDBRANCH   1   4
BRANCH   2  16
ATOM     16  C   UNL     1     -34.702  24.923   5.484  0.00  0.00    +0.136 C 
BRANCH  16  17
ATOM     17  O   UNL     1     -33.497  25.594   5.097  0.00  0.00    -0.380 OA
ATOM     18  H   UNL     1     -32.747  25.215   5.582  0.00  0.00    +0.211 HD
ENDBRANCH  16  17
BRANCH  16  19
ATOM     19  C   UNL     1     -35.877  25.890   5.262  0.00  0.00    +0.055 C 
BRANCH  19  20
ATOM     20  C   UNL     1     -36.349  25.992   3.824  0.00  0.00    -0.045 C 
ATOM     21  C   UNL     1     -35.527  26.493   2.882  0.00  0.00    -0.034 C 
ATOM     22  C   UNL     1     -37.738  25.474   3.568  0.00  0.00    +0.026 C 
BRANCH  21  23
ATOM     23  C   UNL     1     -35.775  26.637   1.406  0.00  0.00    +0.026 C 
BRANCH  23  24
ATOM     24  C   UNL     1     -34.685  25.983   0.548  0.00  0.00    +0.012 C 
BRANCH  24  25
ATOM     25  C   UNL     1     -33.698  25.123   1.338  0.00  0.00    +0.068 C 
BRANCH  25  27
ATOM     26  O   UNL     1     -31.752  24.660  -0.013  0.00  0.00    -0.293 OA
ATOM     27  C   UNL     1     -32.252  25.305   0.907  0.00  0.00    +0.180 C 
BRANCH  27  28
ATOM     28  C   UNL     1     -31.444  26.301   1.714  0.00  0.00    +0.202 C 
BRANCH  28  29
ATOM     29  O   UNL     1     -31.993  26.465   3.004  0.00  0.00    -0.375 OA
ATOM     30  H   UNL     1     -32.237  25.598   3.364  0.00  0.00    +0.211 HD
ENDBRANCH  28  29
ENDBRANCH  27  28
ENDBRANCH  25  27
ENDBRANCH  24  25
ENDBRANCH  23  24
ENDBRANCH  21  23
ENDBRANCH  19  20
ENDBRANCH  16  19
ENDBRANCH   2  16
TORSDOF 15
ENDMDL
