MODEL 1
REMARK VINA RESULT:      -5.7      0.000      0.000
REMARK  Name = 5280889
REMARK  16 active torsions:
REMARK  status: ('A' for Active; 'I' for Inactive)
REMARK    1  A    between atoms: C_2  and  C_9
REMARK    2  A    between atoms: C_3  and  C_19
REMARK    3  A    between atoms: C_4  and  O_7
REMARK    4  A    between atoms: C_10  and  C_11
REMARK    5  A    between atoms: C_11  and  O_12
REMARK    6  A    between atoms: C_11  and  C_14
REMARK    7  A    between atoms: C_14  and  C_15
REMARK    8  A    between atoms: C_15  and  C_16
REMARK    9  A    between atoms: C_16  and  C_17
REMARK   10  A    between atoms: C_19  and  C_21
REMARK   11  A    between atoms: C_21  and  C_22
REMARK   12  A    between atoms: C_22  and  C_23
REMARK   13  A    between atoms: C_23  and  C_24
REMARK   14  A    between atoms: C_24  and  C_25
REMARK   15  A    between atoms: C_25  and  C_27
REMARK   16  A    between atoms: C_27  and  O_28
REMARK                            x       y       z     vdW  Elec       q    Type
REMARK                         _______ _______ _______ _____ _____    ______ ____
ROOT
ATOM      1  O   UNL     1     -40.170  26.596   3.026  0.00  0.00    -0.296 OA
ATOM      2  C   UNL     1     -38.396  24.066   1.309  0.00  0.00    +0.056 C 
ATOM      3  C   UNL     1     -38.349  25.098   2.446  0.00  0.00    +0.071 C 
ATOM      4  C   UNL     1     -39.795  23.449   1.431  0.00  0.00    +0.122 C 
ATOM      5  C   UNL     1     -40.710  24.632   1.740  0.00  0.00    +0.094 C 
ATOM      6  C   UNL     1     -39.788  25.574   2.471  0.00  0.00    +0.154 C 
ENDROOT
BRANCH   4   7
ATOM      7  O   UNL     1     -40.168  22.839   0.205  0.00  0.00    -0.384 OA
ATOM      8  H   UNL     1     -39.769  21.956   0.149  0.00  0.00    +0.210 HD
ENDBRANCH   4   7
BRANCH   2   9
ATOM      9  C   UNL     1     -37.301  23.052   1.408  0.00  0.00    -0.026 C 
ATOM     10  C   UNL     1     -37.415  21.895   2.078  0.00  0.00    -0.002 C 
BRANCH  10  11
ATOM     11  C   UNL     1     -36.312  20.879   2.175  0.00  0.00    +0.132 C 
BRANCH  11  12
ATOM     12  O   UNL     1     -36.883  19.635   2.590  0.00  0.00    -0.380 OA
ATOM     13  H   UNL     1     -36.195  18.952   2.604  0.00  0.00    +0.211 HD
ENDBRANCH  11  12
BRANCH  11  14
ATOM     14  C   UNL     1     -35.604  20.635   0.837  0.00  0.00    +0.034 C 
BRANCH  14  15
ATOM     15  C   UNL     1     -34.185  21.212   0.791  0.00  0.00    +0.003 C 
BRANCH  15  16
ATOM     16  C   UNL     1     -33.102  20.145   0.595  0.00  0.00    +0.000 C 
BRANCH  16  17
ATOM     17  C   UNL     1     -33.299  18.909   1.474  0.00  0.00    +0.000 C 
ATOM     18  C   UNL     1     -32.453  17.743   0.985  0.00  0.00    +0.000 C 
ENDBRANCH  16  17
ENDBRANCH  15  16
ENDBRANCH  14  15
ENDBRANCH  11  14
ENDBRANCH  10  11
ENDBRANCH   2   9
BRANCH   3  19
ATOM     19  C   UNL     1     -37.367  26.229   2.195  0.00  0.00    +0.072 C 
BRANCH  19  21
ATOM     20  O   UNL     1     -35.216  26.911   3.060  0.00  0.00    -0.296 OA
ATOM     21  C   UNL     1     -36.259  26.281   3.232  0.00  0.00    +0.151 C 
BRANCH  21  22
ATOM     22  C   UNL     1     -36.510  25.537   4.529  0.00  0.00    +0.065 C 
BRANCH  22  23
ATOM     23  C   UNL     1     -35.269  25.578   5.415  0.00  0.00    +0.008 C 
BRANCH  23  24
ATOM     24  C   UNL     1     -34.453  24.281   5.383  0.00  0.00    +0.012 C 
BRANCH  24  25
ATOM     25  C   UNL     1     -35.174  23.078   4.772  0.00  0.00    +0.109 C 
BRANCH  25  27
ATOM     26  O   UNL     1     -36.141  22.086   6.776  0.00  0.00    -0.250 OA
ATOM     27  C   UNL     1     -35.452  21.977   5.771  0.00  0.00    +0.314 C 
BRANCH  27  28
ATOM     28  O   UNL     1     -34.861  20.810   5.403  0.00  0.00    -0.480 OA
ATOM     29  H   UNL     1     -35.390  20.071   5.169  0.00  0.00    +0.295 HD
ENDBRANCH  27  28
ENDBRANCH  25  27
ENDBRANCH  24  25
ENDBRANCH  23  24
ENDBRANCH  22  23
ENDBRANCH  21  22
ENDBRANCH  19  21
ENDBRANCH   3  19
TORSDOF 16
ENDMDL
MODEL 2
REMARK VINA RESULT:      -5.5      2.101      4.422
REMARK  Name = 5280889
REMARK  16 active torsions:
REMARK  status: ('A' for Active; 'I' for Inactive)
REMARK    1  A    between atoms: C_2  and  C_9
REMARK    2  A    between atoms: C_3  and  C_19
REMARK    3  A    between atoms: C_4  and  O_7
REMARK    4  A    between atoms: C_10  and  C_11
REMARK    5  A    between atoms: C_11  and  O_12
REMARK    6  A    between atoms: C_11  and  C_14
REMARK    7  A    between atoms: C_14  and  C_15
REMARK    8  A    between atoms: C_15  and  C_16
REMARK    9  A    between atoms: C_16  and  C_17
REMARK   10  A    between atoms: C_19  and  C_21
REMARK   11  A    between atoms: C_21  and  C_22
REMARK   12  A    between atoms: C_22  and  C_23
REMARK   13  A    between atoms: C_23  and  C_24
REMARK   14  A    between atoms: C_24  and  C_25
REMARK   15  A    between atoms: C_25  and  C_27
REMARK   16  A    between atoms: C_27  and  O_28
REMARK                            x       y       z     vdW  Elec       q    Type
REMARK                         _______ _______ _______ _____ _____    ______ ____
ROOT
ATOM      1  O   UNL     1     -35.745  25.271   5.622  0.00  0.00    -0.296 OA
ATOM      2  C   UNL     1     -35.866  22.076   4.113  0.00  0.00    +0.056 C 
ATOM      3  C   UNL     1     -35.675  23.582   3.878  0.00  0.00    +0.071 C 
ATOM      4  C   UNL     1     -35.056  21.798   5.386  0.00  0.00    +0.122 C 
ATOM      5  C   UNL     1     -35.346  22.992   6.293  0.00  0.00    +0.094 C 
ATOM      6  C   UNL     1     -35.611  24.096   5.302  0.00  0.00    +0.154 C 
ENDROOT
BRANCH   4   7
ATOM      7  O   UNL     1     -35.499  20.593   5.992  0.00  0.00    -0.384 OA
ATOM      8  H   UNL     1     -35.133  20.530   6.888  0.00  0.00    +0.210 HD
ENDBRANCH   4   7
BRANCH   2   9
ATOM      9  C   UNL     1     -35.420  21.252   2.948  0.00  0.00    -0.026 C 
ATOM     10  C   UNL     1     -36.240  20.468   2.231  0.00  0.00    -0.002 C 
BRANCH  10  11
ATOM     11  C   UNL     1     -35.788  19.641   1.061  0.00  0.00    +0.132 C 
BRANCH  11  12
ATOM     12  O   UNL     1     -36.839  18.733   0.719  0.00  0.00    -0.380 OA
ATOM     13  H   UNL     1     -36.924  18.686  -0.246  0.00  0.00    +0.211 HD
ENDBRANCH  11  12
BRANCH  11  14
ATOM     14  C   UNL     1     -35.484  20.483  -0.185  0.00  0.00    +0.034 C 
BRANCH  14  15
ATOM     15  C   UNL     1     -34.055  20.299  -0.705  0.00  0.00    +0.003 C 
BRANCH  15  16
ATOM     16  C   UNL     1     -32.991  20.407   0.393  0.00  0.00    +0.000 C 
BRANCH  16  17
ATOM     17  C   UNL     1     -32.027  19.221   0.425  0.00  0.00    +0.000 C 
ATOM     18  C   UNL     1     -32.484  18.163   1.418  0.00  0.00    +0.000 C 
ENDBRANCH  16  17
ENDBRANCH  15  16
ENDBRANCH  14  15
ENDBRANCH  11  14
ENDBRANCH  10  11
ENDBRANCH   2   9
BRANCH   3  19
ATOM     19  C   UNL     1     -36.803  24.216   3.082  0.00  0.00    +0.072 C 
BRANCH  19  21
ATOM     20  O   UNL     1     -37.356  24.166   0.730  0.00  0.00    -0.296 OA
ATOM     21  C   UNL     1     -36.493  24.300   1.598  0.00  0.00    +0.151 C 
BRANCH  21  22
ATOM     22  C   UNL     1     -35.055  24.594   1.221  0.00  0.00    +0.065 C 
BRANCH  22  23
ATOM     23  C   UNL     1     -34.958  25.931   0.492  0.00  0.00    +0.008 C 
BRANCH  23  24
ATOM     24  C   UNL     1     -34.107  26.969   1.232  0.00  0.00    +0.012 C 
BRANCH  24  25
ATOM     25  C   UNL     1     -33.583  26.522   2.598  0.00  0.00    +0.109 C 
BRANCH  25  27
ATOM     26  O   UNL     1     -33.332  27.974   4.538  0.00  0.00    -0.250 OA
ATOM     27  C   UNL     1     -34.055  27.398   3.737  0.00  0.00    +0.314 C 
BRANCH  27  28
ATOM     28  O   UNL     1     -35.410  27.504   3.754  0.00  0.00    -0.480 OA
ATOM     29  H   UNL     1     -35.941  26.740   3.635  0.00  0.00    +0.295 HD
ENDBRANCH  27  28
ENDBRANCH  25  27
ENDBRANCH  24  25
ENDBRANCH  23  24
ENDBRANCH  22  23
ENDBRANCH  21  22
ENDBRANCH  19  21
ENDBRANCH   3  19
TORSDOF 16
ENDMDL
MODEL 3
REMARK VINA RESULT:      -5.4      2.013      5.390
REMARK  Name = 5280889
REMARK  16 active torsions:
REMARK  status: ('A' for Active; 'I' for Inactive)
REMARK    1  A    between atoms: C_2  and  C_9
REMARK    2  A    between atoms: C_3  and  C_19
REMARK    3  A    between atoms: C_4  and  O_7
REMARK    4  A    between atoms: C_10  and  C_11
REMARK    5  A    between atoms: C_11  and  O_12
REMARK    6  A    between atoms: C_11  and  C_14
REMARK    7  A    between atoms: C_14  and  C_15
REMARK    8  A    between atoms: C_15  and  C_16
REMARK    9  A    between atoms: C_16  and  C_17
REMARK   10  A    between atoms: C_19  and  C_21
REMARK   11  A    between atoms: C_21  and  C_22
REMARK   12  A    between atoms: C_22  and  C_23
REMARK   13  A    between atoms: C_23  and  C_24
REMARK   14  A    between atoms: C_24  and  C_25
REMARK   15  A    between atoms: C_25  and  C_27
REMARK   16  A    between atoms: C_27  and  O_28
REMARK                            x       y       z     vdW  Elec       q    Type
REMARK                         _______ _______ _______ _____ _____    ______ ____
ROOT
ATOM      1  O   UNL     1     -40.369  22.928   0.804  0.00  0.00    -0.296 OA
ATOM      2  C   UNL     1     -38.738  24.930   3.219  0.00  0.00    +0.056 C 
ATOM      3  C   UNL     1     -38.557  23.883   2.108  0.00  0.00    +0.071 C 
ATOM      4  C   UNL     1     -39.770  25.906   2.639  0.00  0.00    +0.122 C 
ATOM      5  C   UNL     1     -40.790  25.012   1.937  0.00  0.00    +0.094 C 
ATOM      6  C   UNL     1     -39.957  23.825   1.529  0.00  0.00    +0.154 C 
ENDROOT
BRANCH   4   7
ATOM      7  O   UNL     1     -40.387  26.641   3.684  0.00  0.00    -0.384 OA
ATOM      8  H   UNL     1     -41.222  27.018   3.363  0.00  0.00    +0.210 HD
ENDBRANCH   4   7
BRANCH   2   9
ATOM      9  C   UNL     1     -37.453  25.596   3.595  0.00  0.00    -0.026 C 
ATOM     10  C   UNL     1     -36.635  26.190   2.713  0.00  0.00    -0.002 C 
BRANCH  10  11
ATOM     11  C   UNL     1     -35.344  26.859   3.095  0.00  0.00    +0.132 C 
BRANCH  11  12
ATOM     12  O   UNL     1     -35.596  28.256   3.264  0.00  0.00    -0.380 OA
ATOM     13  H   UNL     1     -36.059  28.598   2.484  0.00  0.00    +0.211 HD
ENDBRANCH  11  12
BRANCH  11  14
ATOM     14  C   UNL     1     -34.766  26.332   4.415  0.00  0.00    +0.034 C 
BRANCH  14  15
ATOM     15  C   UNL     1     -34.184  24.920   4.298  0.00  0.00    +0.003 C 
BRANCH  15  16
ATOM     16  C   UNL     1     -34.375  24.079   5.564  0.00  0.00    +0.000 C 
BRANCH  16  17
ATOM     17  C   UNL     1     -35.566  23.123   5.487  0.00  0.00    +0.000 C 
ATOM     18  C   UNL     1     -35.164  21.706   5.867  0.00  0.00    +0.000 C 
ENDBRANCH  16  17
ENDBRANCH  15  16
ENDBRANCH  14  15
ENDBRANCH  11  14
ENDBRANCH  10  11
ENDBRANCH   2   9
BRANCH   3  19
ATOM     19  C   UNL     1     -38.084  22.535   2.622  0.00  0.00    +0.072 C 
BRANCH  19  21
ATOM     20  O   UNL     1     -35.864  23.005   1.792  0.00  0.00    -0.296 OA
ATOM     21  C   UNL     1     -36.707  22.163   2.101  0.00  0.00    +0.151 C 
BRANCH  21  22
ATOM     22  C   UNL     1     -36.394  20.683   2.006  0.00  0.00    +0.065 C 
BRANCH  22  23
ATOM     23  C   UNL     1     -34.948  20.416   2.413  0.00  0.00    +0.008 C 
BRANCH  23  24
ATOM     24  C   UNL     1     -34.074  19.903   1.264  0.00  0.00    +0.012 C 
BRANCH  24  25
ATOM     25  C   UNL     1     -33.297  18.621   1.565  0.00  0.00    +0.109 C 
BRANCH  25  27
ATOM     26  O   UNL     1     -31.351  19.517   0.405  0.00  0.00    -0.250 OA
ATOM     27  C   UNL     1     -31.950  18.562   0.878  0.00  0.00    +0.314 C 
BRANCH  27  28
ATOM     28  O   UNL     1     -31.450  17.299   0.872  0.00  0.00    -0.480 OA
ATOM     29  H   UNL     1     -31.347  16.840   0.060  0.00  0.00    +0.295 HD
ENDBRANCH  27  28
ENDBRANCH  25  27
ENDBRANCH  24  25
ENDBRANCH  23  24
ENDBRANCH  22  23
ENDBRANCH  21  22
ENDBRANCH  19  21
ENDBRANCH   3  19
TORSDOF 16
ENDMDL
MODEL 4
REMARK VINA RESULT:      -5.3      1.767      4.989
REMARK  Name = 5280889
REMARK  16 active torsions:
REMARK  status: ('A' for Active; 'I' for Inactive)
REMARK    1  A    between atoms: C_2  and  C_9
REMARK    2  A    between atoms: C_3  and  C_19
REMARK    3  A    between atoms: C_4  and  O_7
REMARK    4  A    between atoms: C_10  and  C_11
REMARK    5  A    between atoms: C_11  and  O_12
REMARK    6  A    between atoms: C_11  and  C_14
REMARK    7  A    between atoms: C_14  and  C_15
REMARK    8  A    between atoms: C_15  and  C_16
REMARK    9  A    between atoms: C_16  and  C_17
REMARK   10  A    between atoms: C_19  and  C_21
REMARK   11  A    between atoms: C_21  and  C_22
REMARK   12  A    between atoms: C_22  and  C_23
REMARK   13  A    between atoms: C_23  and  C_24
REMARK   14  A    between atoms: C_24  and  C_25
REMARK   15  A    between atoms: C_25  and  C_27
REMARK   16  A    between atoms: C_27  and  O_28
REMARK                            x       y       z     vdW  Elec       q    Type
REMARK                         _______ _______ _______ _____ _____    ______ ____
ROOT
ATOM      1  O   UNL     1     -35.940  25.387   5.703  0.00  0.00    -0.296 OA
ATOM      2  C   UNL     1     -36.079  22.295   3.996  0.00  0.00    +0.056 C 
ATOM      3  C   UNL     1     -36.010  23.823   3.848  0.00  0.00    +0.071 C 
ATOM      4  C   UNL     1     -35.089  21.991   5.128  0.00  0.00    +0.122 C 
ATOM      5  C   UNL     1     -35.323  23.102   6.150  0.00  0.00    +0.094 C 
ATOM      6  C   UNL     1     -35.783  24.247   5.285  0.00  0.00    +0.154 C 
ENDROOT
BRANCH   4   7
ATOM      7  O   UNL     1     -35.374  20.723   5.699  0.00  0.00    -0.384 OA
ATOM      8  H   UNL     1     -34.743  20.068   5.362  0.00  0.00    +0.210 HD
ENDBRANCH   4   7
BRANCH   2   9
ATOM      9  C   UNL     1     -35.748  21.579   2.726  0.00  0.00    -0.026 C 
ATOM     10  C   UNL     1     -36.162  20.335   2.441  0.00  0.00    -0.002 C 
BRANCH  10  11
ATOM     11  C   UNL     1     -35.826  19.618   1.164  0.00  0.00    +0.132 C 
BRANCH  11  12
ATOM     12  O   UNL     1     -36.962  18.842   0.773  0.00  0.00    -0.380 OA
ATOM     13  H   UNL     1     -36.711  17.906   0.724  0.00  0.00    +0.211 HD
ENDBRANCH  11  12
BRANCH  11  14
ATOM     14  C   UNL     1     -35.505  20.575   0.009  0.00  0.00    +0.034 C 
BRANCH  14  15
ATOM     15  C   UNL     1     -34.103  20.369  -0.574  0.00  0.00    +0.003 C 
BRANCH  15  16
ATOM     16  C   UNL     1     -32.986  20.511   0.465  0.00  0.00    +0.000 C 
BRANCH  16  17
ATOM     17  C   UNL     1     -32.003  19.339   0.468  0.00  0.00    +0.000 C 
ATOM     18  C   UNL     1     -32.491  18.209   1.362  0.00  0.00    +0.000 C 
ENDBRANCH  16  17
ENDBRANCH  15  16
ENDBRANCH  14  15
ENDBRANCH  11  14
ENDBRANCH  10  11
ENDBRANCH   2   9
BRANCH   3  19
ATOM     19  C   UNL     1     -37.270  24.429   3.255  0.00  0.00    +0.072 C 
BRANCH  19  21
ATOM     20  O   UNL     1     -36.402  25.050   1.087  0.00  0.00    -0.296 OA
ATOM     21  C   UNL     1     -37.252  24.441   1.737  0.00  0.00    +0.151 C 
BRANCH  21  22
ATOM     22  C   UNL     1     -38.324  23.627   1.039  0.00  0.00    +0.065 C 
BRANCH  22  23
ATOM     23  C   UNL     1     -39.275  23.011   2.060  0.00  0.00    +0.008 C 
BRANCH  23  24
ATOM     24  C   UNL     1     -39.669  21.566   1.734  0.00  0.00    +0.012 C 
BRANCH  24  25
ATOM     25  C   UNL     1     -39.558  21.183   0.257  0.00  0.00    +0.109 C 
BRANCH  25  27
ATOM     26  O   UNL     1     -41.394  22.232  -0.954  0.00  0.00    -0.250 OA
ATOM     27  C   UNL     1     -40.882  21.230  -0.474  0.00  0.00    +0.314 C 
BRANCH  27  28
ATOM     28  O   UNL     1     -41.441  19.996  -0.570  0.00  0.00    -0.480 OA
ATOM     29  H   UNL     1     -42.043  19.807  -1.264  0.00  0.00    +0.295 HD
ENDBRANCH  27  28
ENDBRANCH  25  27
ENDBRANCH  24  25
ENDBRANCH  23  24
ENDBRANCH  22  23
ENDBRANCH  21  22
ENDBRANCH  19  21
ENDBRANCH   3  19
TORSDOF 16
ENDMDL
MODEL 5
REMARK VINA RESULT:      -5.3      1.668      4.716
REMARK  Name = 5280889
REMARK  16 active torsions:
REMARK  status: ('A' for Active; 'I' for Inactive)
REMARK    1  A    between atoms: C_2  and  C_9
REMARK    2  A    between atoms: C_3  and  C_19
REMARK    3  A    between atoms: C_4  and  O_7
REMARK    4  A    between atoms: C_10  and  C_11
REMARK    5  A    between atoms: C_11  and  O_12
REMARK    6  A    between atoms: C_11  and  C_14
REMARK    7  A    between atoms: C_14  and  C_15
REMARK    8  A    between atoms: C_15  and  C_16
REMARK    9  A    between atoms: C_16  and  C_17
REMARK   10  A    between atoms: C_19  and  C_21
REMARK   11  A    between atoms: C_21  and  C_22
REMARK   12  A    between atoms: C_22  and  C_23
REMARK   13  A    between atoms: C_23  and  C_24
REMARK   14  A    between atoms: C_24  and  C_25
REMARK   15  A    between atoms: C_25  and  C_27
REMARK   16  A    between atoms: C_27  and  O_28
REMARK                            x       y       z     vdW  Elec       q    Type
REMARK                         _______ _______ _______ _____ _____    ______ ____
ROOT
ATOM      1  O   UNL     1     -35.351  27.031   4.607  0.00  0.00    -0.296 OA
ATOM      2  C   UNL     1     -36.160  23.592   4.471  0.00  0.00    +0.056 C 
ATOM      3  C   UNL     1     -36.148  24.923   3.703  0.00  0.00    +0.071 C 
ATOM      4  C   UNL     1     -34.808  23.574   5.195  0.00  0.00    +0.122 C 
ATOM      5  C   UNL     1     -34.618  25.007   5.688  0.00  0.00    +0.094 C 
ATOM      6  C   UNL     1     -35.375  25.807   4.660  0.00  0.00    +0.154 C 
ENDROOT
BRANCH   4   7
ATOM      7  O   UNL     1     -34.853  22.673   6.290  0.00  0.00    -0.384 OA
ATOM      8  H   UNL     1     -35.474  23.005   6.957  0.00  0.00    +0.210 HD
ENDBRANCH   4   7
BRANCH   2   9
ATOM      9  C   UNL     1     -36.356  22.412   3.573  0.00  0.00    -0.026 C 
ATOM     10  C   UNL     1     -35.410  21.491   3.335  0.00  0.00    -0.002 C 
BRANCH  10  11
ATOM     11  C   UNL     1     -35.610  20.306   2.432  0.00  0.00    +0.132 C 
BRANCH  11  12
ATOM     12  O   UNL     1     -36.950  19.836   2.600  0.00  0.00    -0.380 OA
ATOM     13  H   UNL     1     -37.047  19.444   3.482  0.00  0.00    +0.211 HD
ENDBRANCH  11  12
BRANCH  11  14
ATOM     14  C   UNL     1     -35.426  20.648   0.948  0.00  0.00    +0.034 C 
BRANCH  14  15
ATOM     15  C   UNL     1     -33.957  20.672   0.512  0.00  0.00    +0.003 C 
BRANCH  15  16
ATOM     16  C   UNL     1     -33.498  22.041   0.001  0.00  0.00    +0.000 C 
BRANCH  16  17
ATOM     17  C   UNL     1     -34.515  23.157   0.249  0.00  0.00    +0.000 C 
ATOM     18  C   UNL     1     -33.882  24.329   0.984  0.00  0.00    +0.000 C 
ENDBRANCH  16  17
ENDBRANCH  15  16
ENDBRANCH  14  15
ENDBRANCH  11  14
ENDBRANCH  10  11
ENDBRANCH   2   9
BRANCH   3  19
ATOM     19  C   UNL     1     -37.537  25.461   3.407  0.00  0.00    +0.072 C 
BRANCH  19  21
ATOM     20  O   UNL     1     -36.703  26.463   1.372  0.00  0.00    -0.296 OA
ATOM     21  C   UNL     1     -37.661  26.007   1.995  0.00  0.00    +0.151 C 
BRANCH  21  22
ATOM     22  C   UNL     1     -39.035  25.936   1.359  0.00  0.00    +0.065 C 
BRANCH  22  23
ATOM     23  C   UNL     1     -39.905  24.911   2.080  0.00  0.00    +0.008 C 
BRANCH  23  24
ATOM     24  C   UNL     1     -40.419  23.794   1.166  0.00  0.00    +0.012 C 
BRANCH  24  25
ATOM     25  C   UNL     1     -39.375  22.746   0.776  0.00  0.00    +0.109 C 
BRANCH  25  27
ATOM     26  O   UNL     1     -40.440  21.124   2.248  0.00  0.00    -0.250 OA
ATOM     27  C   UNL     1     -39.672  21.370   1.329  0.00  0.00    +0.314 C 
BRANCH  27  28
ATOM     28  O   UNL     1     -38.997  20.405   0.652  0.00  0.00    -0.480 OA
ATOM     29  H   UNL     1     -38.147  20.587   0.300  0.00  0.00    +0.295 HD
ENDBRANCH  27  28
ENDBRANCH  25  27
ENDBRANCH  24  25
ENDBRANCH  23  24
ENDBRANCH  22  23
ENDBRANCH  21  22
ENDBRANCH  19  21
ENDBRANCH   3  19
TORSDOF 16
ENDMDL
MODEL 6
REMARK VINA RESULT:      -5.3      1.872      6.384
REMARK  Name = 5280889
REMARK  16 active torsions:
REMARK  status: ('A' for Active; 'I' for Inactive)
REMARK    1  A    between atoms: C_2  and  C_9
REMARK    2  A    between atoms: C_3  and  C_19
REMARK    3  A    between atoms: C_4  and  O_7
REMARK    4  A    between atoms: C_10  and  C_11
REMARK    5  A    between atoms: C_11  and  O_12
REMARK    6  A    between atoms: C_11  and  C_14
REMARK    7  A    between atoms: C_14  and  C_15
REMARK    8  A    between atoms: C_15  and  C_16
REMARK    9  A    between atoms: C_16  and  C_17
REMARK   10  A    between atoms: C_19  and  C_21
REMARK   11  A    between atoms: C_21  and  C_22
REMARK   12  A    between atoms: C_22  and  C_23
REMARK   13  A    between atoms: C_23  and  C_24
REMARK   14  A    between atoms: C_24  and  C_25
REMARK   15  A    between atoms: C_25  and  C_27
REMARK   16  A    between atoms: C_27  and  O_28
REMARK                            x       y       z     vdW  Elec       q    Type
REMARK                         _______ _______ _______ _____ _____    ______ ____
ROOT
ATOM      1  O   UNL     1     -36.831  19.288  -1.700  0.00  0.00    -0.296 OA
ATOM      2  C   UNL     1     -35.360  20.440   1.301  0.00  0.00    +0.056 C 
ATOM      3  C   UNL     1     -36.675  20.105   0.581  0.00  0.00    +0.071 C 
ATOM      4  C   UNL     1     -34.423  19.291   0.907  0.00  0.00    +0.122 C 
ATOM      5  C   UNL     1     -34.715  19.050  -0.573  0.00  0.00    +0.094 C 
ATOM      6  C   UNL     1     -36.159  19.464  -0.691  0.00  0.00    +0.154 C 
ENDROOT
BRANCH   4   7
ATOM      7  O   UNL     1     -33.071  19.679   1.090  0.00  0.00    -0.384 OA
ATOM      8  H   UNL     1     -32.660  19.838   0.225  0.00  0.00    +0.210 HD
ENDBRANCH   4   7
BRANCH   2   9
ATOM      9  C   UNL     1     -35.532  20.569   2.781  0.00  0.00    -0.026 C 
ATOM     10  C   UNL     1     -35.481  21.737   3.439  0.00  0.00    -0.002 C 
BRANCH  10  11
ATOM     11  C   UNL     1     -35.654  21.862   4.926  0.00  0.00    +0.132 C 
BRANCH  11  12
ATOM     12  O   UNL     1     -35.219  20.643   5.533  0.00  0.00    -0.380 OA
ATOM     13  H   UNL     1     -34.691  20.136   4.896  0.00  0.00    +0.211 HD
ENDBRANCH  11  12
BRANCH  11  14
ATOM     14  C   UNL     1     -34.821  22.999   5.531  0.00  0.00    +0.034 C 
BRANCH  14  15
ATOM     15  C   UNL     1     -35.511  24.364   5.448  0.00  0.00    +0.003 C 
BRANCH  15  16
ATOM     16  C   UNL     1     -34.532  25.543   5.485  0.00  0.00    +0.000 C 
BRANCH  16  17
ATOM     17  C   UNL     1     -34.476  26.329   4.174  0.00  0.00    +0.000 C 
ATOM     18  C   UNL     1     -33.990  25.457   3.027  0.00  0.00    +0.000 C 
ENDBRANCH  16  17
ENDBRANCH  15  16
ENDBRANCH  14  15
ENDBRANCH  11  14
ENDBRANCH  10  11
ENDBRANCH   2   9
BRANCH   3  19
ATOM     19  C   UNL     1     -37.541  21.324   0.308  0.00  0.00    +0.072 C 
BRANCH  19  21
ATOM     20  O   UNL     1     -39.807  20.515   0.088  0.00  0.00    -0.296 OA
ATOM     21  C   UNL     1     -38.978  21.130   0.758  0.00  0.00    +0.151 C 
BRANCH  21  22
ATOM     22  C   UNL     1     -39.349  21.707   2.110  0.00  0.00    +0.065 C 
BRANCH  22  23
ATOM     23  C   UNL     1     -39.300  23.231   2.071  0.00  0.00    +0.008 C 
BRANCH  23  24
ATOM     24  C   UNL     1     -38.186  23.829   2.937  0.00  0.00    +0.012 C 
BRANCH  24  25
ATOM     25  C   UNL     1     -37.676  25.197   2.480  0.00  0.00    +0.109 C 
BRANCH  25  27
ATOM     26  O   UNL     1     -39.110  26.765   1.289  0.00  0.00    -0.250 OA
ATOM     27  C   UNL     1     -38.773  26.227   2.335  0.00  0.00    +0.314 C 
BRANCH  27  28
ATOM     28  O   UNL     1     -39.384  26.475   3.524  0.00  0.00    -0.480 OA
ATOM     29  H   UNL     1     -39.086  27.180   4.065  0.00  0.00    +0.295 HD
ENDBRANCH  27  28
ENDBRANCH  25  27
ENDBRANCH  24  25
ENDBRANCH  23  24
ENDBRANCH  22  23
ENDBRANCH  21  22
ENDBRANCH  19  21
ENDBRANCH   3  19
TORSDOF 16
ENDMDL
MODEL 7
REMARK VINA RESULT:      -5.3      1.692      4.828
REMARK  Name = 5280889
REMARK  16 active torsions:
REMARK  status: ('A' for Active; 'I' for Inactive)
REMARK    1  A    between atoms: C_2  and  C_9
REMARK    2  A    between atoms: C_3  and  C_19
REMARK    3  A    between atoms: C_4  and  O_7
REMARK    4  A    between atoms: C_10  and  C_11
REMARK    5  A    between atoms: C_11  and  O_12
REMARK    6  A    between atoms: C_11  and  C_14
REMARK    7  A    between atoms: C_14  and  C_15
REMARK    8  A    between atoms: C_15  and  C_16
REMARK    9  A    between atoms: C_16  and  C_17
REMARK   10  A    between atoms: C_19  and  C_21
REMARK   11  A    between atoms: C_21  and  C_22
REMARK   12  A    between atoms: C_22  and  C_23
REMARK   13  A    between atoms: C_23  and  C_24
REMARK   14  A    between atoms: C_24  and  C_25
REMARK   15  A    between atoms: C_25  and  C_27
REMARK   16  A    between atoms: C_27  and  O_28
REMARK                            x       y       z     vdW  Elec       q    Type
REMARK                         _______ _______ _______ _____ _____    ______ ____
ROOT
ATOM      1  O   UNL     1     -35.344  25.265   5.567  0.00  0.00    -0.296 OA
ATOM      2  C   UNL     1     -35.856  22.111   4.054  0.00  0.00    +0.056 C 
ATOM      3  C   UNL     1     -35.561  23.600   3.813  0.00  0.00    +0.071 C 
ATOM      4  C   UNL     1     -34.968  21.751   5.252  0.00  0.00    +0.122 C 
ATOM      5  C   UNL     1     -35.082  22.952   6.188  0.00  0.00    +0.094 C 
ATOM      6  C   UNL     1     -35.335  24.087   5.230  0.00  0.00    +0.154 C 
ENDROOT
BRANCH   4   7
ATOM      7  O   UNL     1     -35.457  20.579   5.886  0.00  0.00    -0.384 OA
ATOM      8  H   UNL     1     -36.424  20.552   5.815  0.00  0.00    +0.210 HD
ENDBRANCH   4   7
BRANCH   2   9
ATOM      9  C   UNL     1     -35.579  21.269   2.850  0.00  0.00    -0.026 C 
ATOM     10  C   UNL     1     -36.473  20.430   2.304  0.00  0.00    -0.002 C 
BRANCH  10  11
ATOM     11  C   UNL     1     -36.190  19.585   1.094  0.00  0.00    +0.132 C 
BRANCH  11  12
ATOM     12  O   UNL     1     -37.434  19.276   0.462  0.00  0.00    -0.380 OA
ATOM     13  H   UNL     1     -37.268  18.774  -0.351  0.00  0.00    +0.211 HD
ENDBRANCH  11  12
BRANCH  11  14
ATOM     14  C   UNL     1     -35.312  20.299   0.058  0.00  0.00    +0.034 C 
BRANCH  14  15
ATOM     15  C   UNL     1     -34.018  19.543  -0.260  0.00  0.00    +0.003 C 
BRANCH  15  16
ATOM     16  C   UNL     1     -33.774  18.342   0.660  0.00  0.00    +0.000 C 
BRANCH  16  17
ATOM     17  C   UNL     1     -32.367  18.310   1.259  0.00  0.00    +0.000 C 
ATOM     18  C   UNL     1     -31.394  19.136   0.432  0.00  0.00    +0.000 C 
ENDBRANCH  16  17
ENDBRANCH  15  16
ENDBRANCH  14  15
ENDBRANCH  11  14
ENDBRANCH  10  11
ENDBRANCH   2   9
BRANCH   3  19
ATOM     19  C   UNL     1     -36.695  24.335   3.119  0.00  0.00    +0.072 C 
BRANCH  19  21
ATOM     20  O   UNL     1     -35.604  24.582   0.977  0.00  0.00    -0.296 OA
ATOM     21  C   UNL     1     -36.607  24.245   1.606  0.00  0.00    +0.151 C 
BRANCH  21  22
ATOM     22  C   UNL     1     -37.817  23.680   0.888  0.00  0.00    +0.065 C 
BRANCH  22  23
ATOM     23  C   UNL     1     -38.844  23.171   1.894  0.00  0.00    +0.008 C 
BRANCH  23  24
ATOM     24  C   UNL     1     -40.215  23.844   1.762  0.00  0.00    +0.012 C 
BRANCH  24  25
ATOM     25  C   UNL     1     -40.175  25.360   1.567  0.00  0.00    +0.109 C 
BRANCH  25  27
ATOM     26  O   UNL     1     -41.666  26.419   3.177  0.00  0.00    -0.250 OA
ATOM     27  C   UNL     1     -40.532  26.134   2.817  0.00  0.00    +0.314 C 
BRANCH  27  28
ATOM     28  O   UNL     1     -39.425  26.460   3.534  0.00  0.00    -0.480 OA
ATOM     29  H   UNL     1     -39.395  27.269   4.008  0.00  0.00    +0.295 HD
ENDBRANCH  27  28
ENDBRANCH  25  27
ENDBRANCH  24  25
ENDBRANCH  23  24
ENDBRANCH  22  23
ENDBRANCH  21  22
ENDBRANCH  19  21
ENDBRANCH   3  19
TORSDOF 16
ENDMDL
MODEL 8
REMARK VINA RESULT:      -5.2      1.617      4.408
REMARK  Name = 5280889
REMARK  16 active torsions:
REMARK  status: ('A' for Active; 'I' for Inactive)
REMARK    1  A    between atoms: C_2  and  C_9
REMARK    2  A    between atoms: C_3  and  C_19
REMARK    3  A    between atoms: C_4  and  O_7
REMARK    4  A    between atoms: C_10  and  C_11
REMARK    5  A    between atoms: C_11  and  O_12
REMARK    6  A    between atoms: C_11  and  C_14
REMARK    7  A    between atoms: C_14  and  C_15
REMARK    8  A    between atoms: C_15  and  C_16
REMARK    9  A    between atoms: C_16  and  C_17
REMARK   10  A    between atoms: C_19  and  C_21
REMARK   11  A    between atoms: C_21  and  C_22
REMARK   12  A    between atoms: C_22  and  C_23
REMARK   13  A    between atoms: C_23  and  C_24
REMARK   14  A    between atoms: C_24  and  C_25
REMARK   15  A    between atoms: C_25  and  C_27
REMARK   16  A    between atoms: C_27  and  O_28
REMARK                            x       y       z     vdW  Elec       q    Type
REMARK                         _______ _______ _______ _____ _____    ______ ____
ROOT
ATOM      1  O   UNL     1     -34.305  26.716   4.705  0.00  0.00    -0.296 OA
ATOM      2  C   UNL     1     -36.075  23.697   4.204  0.00  0.00    +0.056 C 
ATOM      3  C   UNL     1     -35.353  24.871   3.525  0.00  0.00    +0.071 C 
ATOM      4  C   UNL     1     -35.165  23.341   5.386  0.00  0.00    +0.122 C 
ATOM      5  C   UNL     1     -34.715  24.690   5.943  0.00  0.00    +0.094 C 
ATOM      6  C   UNL     1     -34.741  25.571   4.721  0.00  0.00    +0.154 C 
ENDROOT
BRANCH   4   7
ATOM      7  O   UNL     1     -35.895  22.618   6.364  0.00  0.00    -0.384 OA
ATOM      8  H   UNL     1     -36.372  23.240   6.936  0.00  0.00    +0.210 HD
ENDBRANCH   4   7
BRANCH   2   9
ATOM      9  C   UNL     1     -36.301  22.547   3.276  0.00  0.00    -0.026 C 
ATOM     10  C   UNL     1     -35.530  21.449   3.246  0.00  0.00    -0.002 C 
BRANCH  10  11
ATOM     11  C   UNL     1     -35.760  20.295   2.312  0.00  0.00    +0.132 C 
BRANCH  11  12
ATOM     12  O   UNL     1     -37.170  20.107   2.171  0.00  0.00    -0.380 OA
ATOM     13  H   UNL     1     -37.630  20.934   2.384  0.00  0.00    +0.211 HD
ENDBRANCH  11  12
BRANCH  11  14
ATOM     14  C   UNL     1     -35.186  20.538   0.910  0.00  0.00    +0.034 C 
BRANCH  14  15
ATOM     15  C   UNL     1     -33.688  20.235   0.810  0.00  0.00    +0.003 C 
BRANCH  15  16
ATOM     16  C   UNL     1     -33.318  18.832   1.301  0.00  0.00    +0.000 C 
BRANCH  16  17
ATOM     17  C   UNL     1     -31.865  18.450   1.016  0.00  0.00    +0.000 C 
ATOM     18  C   UNL     1     -31.193  19.468   0.107  0.00  0.00    +0.000 C 
ENDBRANCH  16  17
ENDBRANCH  15  16
ENDBRANCH  14  15
ENDBRANCH  11  14
ENDBRANCH  10  11
ENDBRANCH   2   9
BRANCH   3  19
ATOM     19  C   UNL     1     -36.283  25.776   2.735  0.00  0.00    +0.072 C 
BRANCH  19  21
ATOM     20  O   UNL     1     -35.081  25.622   0.644  0.00  0.00    -0.296 OA
ATOM     21  C   UNL     1     -36.160  25.572   1.235  0.00  0.00    +0.151 C 
BRANCH  21  22
ATOM     22  C   UNL     1     -37.440  25.264   0.484  0.00  0.00    +0.065 C 
BRANCH  22  23
ATOM     23  C   UNL     1     -38.655  25.666   1.314  0.00  0.00    +0.008 C 
BRANCH  23  24
ATOM     24  C   UNL     1     -39.798  24.646   1.258  0.00  0.00    +0.012 C 
BRANCH  24  25
ATOM     25  C   UNL     1     -39.750  23.560   2.334  0.00  0.00    +0.109 C 
BRANCH  25  27
ATOM     26  O   UNL     1     -40.254  21.182   2.181  0.00  0.00    -0.250 OA
ATOM     27  C   UNL     1     -39.648  22.161   1.769  0.00  0.00    +0.314 C 
BRANCH  27  28
ATOM     28  O   UNL     1     -38.809  22.116   0.701  0.00  0.00    -0.480 OA
ATOM     29  H   UNL     1     -38.894  22.745   0.011  0.00  0.00    +0.295 HD
ENDBRANCH  27  28
ENDBRANCH  25  27
ENDBRANCH  24  25
ENDBRANCH  23  24
ENDBRANCH  22  23
ENDBRANCH  21  22
ENDBRANCH  19  21
ENDBRANCH   3  19
TORSDOF 16
ENDMDL
MODEL 9
REMARK VINA RESULT:      -5.2      2.275      6.818
REMARK  Name = 5280889
REMARK  16 active torsions:
REMARK  status: ('A' for Active; 'I' for Inactive)
REMARK    1  A    between atoms: C_2  and  C_9
REMARK    2  A    between atoms: C_3  and  C_19
REMARK    3  A    between atoms: C_4  and  O_7
REMARK    4  A    between atoms: C_10  and  C_11
REMARK    5  A    between atoms: C_11  and  O_12
REMARK    6  A    between atoms: C_11  and  C_14
REMARK    7  A    between atoms: C_14  and  C_15
REMARK    8  A    between atoms: C_15  and  C_16
REMARK    9  A    between atoms: C_16  and  C_17
REMARK   10  A    between atoms: C_19  and  C_21
REMARK   11  A    between atoms: C_21  and  C_22
REMARK   12  A    between atoms: C_22  and  C_23
REMARK   13  A    between atoms: C_23  and  C_24
REMARK   14  A    between atoms: C_24  and  C_25
REMARK   15  A    between atoms: C_25  and  C_27
REMARK   16  A    between atoms: C_27  and  O_28
REMARK                            x       y       z     vdW  Elec       q    Type
REMARK                         _______ _______ _______ _____ _____    ______ ____
ROOT
ATOM      1  O   UNL     1     -36.440  20.811  -0.536  0.00  0.00    -0.296 OA
ATOM      2  C   UNL     1     -38.181  22.179   2.219  0.00  0.00    +0.056 C 
ATOM      3  C   UNL     1     -37.024  22.373   1.228  0.00  0.00    +0.071 C 
ATOM      4  C   UNL     1     -39.328  21.653   1.346  0.00  0.00    +0.122 C 
ATOM      5  C   UNL     1     -38.659  20.668   0.390  0.00  0.00    +0.094 C 
ATOM      6  C   UNL     1     -37.267  21.230   0.264  0.00  0.00    +0.154 C 
ENDROOT
BRANCH   4   7
ATOM      7  O   UNL     1     -40.290  20.990   2.151  0.00  0.00    -0.384 OA
ATOM      8  H   UNL     1     -41.173  21.339   1.952  0.00  0.00    +0.210 HD
ENDBRANCH   4   7
BRANCH   2   9
ATOM      9  C   UNL     1     -38.533  23.438   2.946  0.00  0.00    -0.026 C 
ATOM     10  C   UNL     1     -39.477  24.298   2.534  0.00  0.00    -0.002 C 
BRANCH  10  11
ATOM     11  C   UNL     1     -39.827  25.563   3.267  0.00  0.00    +0.132 C 
BRANCH  11  12
ATOM     12  O   UNL     1     -38.725  26.467   3.155  0.00  0.00    -0.380 OA
ATOM     13  H   UNL     1     -38.096  26.129   2.498  0.00  0.00    +0.211 HD
ENDBRANCH  11  12
BRANCH  11  14
ATOM     14  C   UNL     1     -41.060  26.267   2.688  0.00  0.00    +0.034 C 
BRANCH  14  15
ATOM     15  C   UNL     1     -42.077  26.679   3.757  0.00  0.00    +0.003 C 
BRANCH  15  16
ATOM     16  C   UNL     1     -43.414  27.150   3.174  0.00  0.00    +0.000 C 
BRANCH  16  17
ATOM     17  C   UNL     1     -44.631  26.581   3.905  0.00  0.00    +0.000 C 
ATOM     18  C   UNL     1     -45.353  25.546   3.055  0.00  0.00    +0.000 C 
ENDBRANCH  16  17
ENDBRANCH  15  16
ENDBRANCH  14  15
ENDBRANCH  11  14
ENDBRANCH  10  11
ENDBRANCH   2   9
BRANCH   3  19
ATOM     19  C   UNL     1     -35.653  22.303   1.880  0.00  0.00    +0.072 C 
BRANCH  19  21
ATOM     20  O   UNL     1     -35.448  20.000   2.581  0.00  0.00    -0.296 OA
ATOM     21  C   UNL     1     -35.550  21.184   2.901  0.00  0.00    +0.151 C 
BRANCH  21  22
ATOM     22  C   UNL     1     -35.543  21.595   4.360  0.00  0.00    +0.065 C 
BRANCH  22  23
ATOM     23  C   UNL     1     -34.775  22.900   4.543  0.00  0.00    +0.008 C 
BRANCH  23  24
ATOM     24  C   UNL     1     -35.579  23.986   5.265  0.00  0.00    +0.012 C 
BRANCH  24  25
ATOM     25  C   UNL     1     -34.786  25.242   5.631  0.00  0.00    +0.109 C 
BRANCH  25  27
ATOM     26  O   UNL     1     -34.745  27.328   4.373  0.00  0.00    -0.250 OA
ATOM     27  C   UNL     1     -35.363  26.508   5.038  0.00  0.00    +0.314 C 
BRANCH  27  28
ATOM     28  O   UNL     1     -36.690  26.624   5.308  0.00  0.00    -0.480 OA
ATOM     29  H   UNL     1     -37.264  25.899   5.154  0.00  0.00    +0.295 HD
ENDBRANCH  27  28
ENDBRANCH  25  27
ENDBRANCH  24  25
ENDBRANCH  23  24
ENDBRANCH  22  23
ENDBRANCH  21  22
ENDBRANCH  19  21
ENDBRANCH   3  19
TORSDOF 16
ENDMDL
