MODEL 1
REMARK VINA RESULT:      -5.6      0.000      0.000
REMARK  Name = 193136
REMARK  9 active torsions:
REMARK  status: ('A' for Active; 'I' for Inactive)
REMARK    1  A    between atoms: C_1  and  C_2
REMARK    2  A    between atoms: C_1  and  C_13
REMARK    3  A    between atoms: C_2  and  C_3
REMARK    4  A    between atoms: C_3  and  C_4
REMARK    5  A    between atoms: C_4  and  N_5
REMARK    6  A    between atoms: C_4  and  C_10
REMARK    7  A    between atoms: C_10  and  O_11
REMARK    8  A    between atoms: C_13  and  N_15
REMARK    9  A    between atoms: C_19  and  O_22
REMARK                            x       y       z     vdW  Elec       q    Type
REMARK                         _______ _______ _______ _____ _____    ______ ____
ROOT
ATOM      1  C   UNK     1     -34.392  25.773   5.996  0.00  0.00    +0.022 C 
ENDROOT
BRANCH   1   2
ATOM      2  C   UNK     1     -33.392  26.876   5.621  0.00  0.00    +0.000 C 
BRANCH   2   3
ATOM      3  C   UNK     1     -32.523  27.359   6.786  0.00  0.00    -0.011 C 
BRANCH   3   4
ATOM      4  C   UNK     1     -31.815  28.687   6.486  0.00  0.00    +0.036 C 
BRANCH   4   5
ATOM      5  N   UNK     1     -32.428  29.306   5.308  0.00  0.00    +0.389 N 
ATOM      6  H   UNK     1     -32.740  30.248   5.543  0.00  0.00    -0.088 HD
ATOM      7  H   UNK     1     -33.227  28.748   5.007  0.00  0.00    -0.088 HD
ATOM      8  H   UNK     1     -31.743  29.354   4.553  0.00  0.00    -0.088 HD
ENDBRANCH   4   5
BRANCH   4  10
ATOM      9  O   UNK     1     -29.687  29.152   5.391  0.00  0.00    -0.253 OA
ATOM     10  C   UNK     1     -30.345  28.471   6.168  0.00  0.00    +0.293 C 
BRANCH  10  11
ATOM     11  O   UNK     1     -29.826  27.403   6.828  0.00  0.00    -0.482 OA
ATOM     12  H   UNK     1     -29.003  27.044   6.563  0.00  0.00    +0.295 HD
ENDBRANCH  10  11
ENDBRANCH   4  10
ENDBRANCH   3   4
ENDBRANCH   2   3
ENDBRANCH   1   2
BRANCH   1  13
ATOM     13  C   UNK     1     -35.509  25.549   4.978  0.00  0.00    +0.095 C 
BRANCH  13  15
ATOM     14  O   UNK     1     -35.383  20.362   3.076  0.00  0.00    -0.283 OA
ATOM     15  N   UNK     1     -35.477  24.206   4.456  0.00  0.00    -0.287 N 
ATOM     16  C   UNK     1     -35.482  23.927   3.064  0.00  0.00    +0.032 C 
ATOM     17  C   UNK     1     -35.440  23.104   5.319  0.00  0.00    +0.106 C 
ATOM     18  C   UNK     1     -35.452  22.674   2.568  0.00  0.00    +0.056 C 
ATOM     19  C   UNK     1     -35.409  21.814   4.953  0.00  0.00    +0.188 C 
ATOM     20  C   UNK     1     -35.523  25.089   2.106  0.00  0.00    +0.048 C 
ATOM     21  C   UNK     1     -35.412  21.512   3.498  0.00  0.00    +0.231 C 
BRANCH  19  22
ATOM     22  O   UNK     1     -35.373  20.786   5.864  0.00  0.00    -0.502 OA
ATOM     23  H   UNK     1     -34.945  19.982   5.645  0.00  0.00    +0.292 HD
ENDBRANCH  19  22
ENDBRANCH  13  15
ENDBRANCH   1  13
TORSDOF 9
ENDMDL
MODEL 2
REMARK VINA RESULT:      -5.6      4.075      7.267
REMARK  Name = 193136
REMARK  9 active torsions:
REMARK  status: ('A' for Active; 'I' for Inactive)
REMARK    1  A    between atoms: C_1  and  C_2
REMARK    2  A    between atoms: C_1  and  C_13
REMARK    3  A    between atoms: C_2  and  C_3
REMARK    4  A    between atoms: C_3  and  C_4
REMARK    5  A    between atoms: C_4  and  N_5
REMARK    6  A    between atoms: C_4  and  C_10
REMARK    7  A    between atoms: C_10  and  O_11
REMARK    8  A    between atoms: C_13  and  N_15
REMARK    9  A    between atoms: C_19  and  O_22
REMARK                            x       y       z     vdW  Elec       q    Type
REMARK                         _______ _______ _______ _____ _____    ______ ____
ROOT
ATOM      1  C   UNK     1     -37.690  25.097   1.900  0.00  0.00    +0.022 C 
ENDROOT
BRANCH   1   2
ATOM      2  C   UNK     1     -39.085  25.206   2.532  0.00  0.00    +0.000 C 
BRANCH   2   3
ATOM      3  C   UNK     1     -39.843  23.877   2.614  0.00  0.00    -0.011 C 
BRANCH   3   4
ATOM      4  C   UNK     1     -39.719  23.045   1.330  0.00  0.00    +0.036 C 
BRANCH   4   5
ATOM      5  N   UNK     1     -41.007  23.039   0.631  0.00  0.00    +0.389 N 
ATOM      6  H   UNK     1     -41.741  23.343   1.270  0.00  0.00    -0.088 HD
ATOM      7  H   UNK     1     -41.211  22.096   0.301  0.00  0.00    -0.088 HD
ATOM      8  H   UNK     1     -40.965  23.676  -0.165  0.00  0.00    -0.088 HD
ENDBRANCH   4   5
BRANCH   4  10
ATOM      9  O   UNK     1     -38.331  21.041   1.297  0.00  0.00    -0.253 OA
ATOM     10  C   UNK     1     -39.366  21.601   1.637  0.00  0.00    +0.293 C 
BRANCH  10  11
ATOM     11  O   UNK     1     -40.352  20.964   2.323  0.00  0.00    -0.482 OA
ATOM     12  H   UNK     1     -41.236  21.003   2.015  0.00  0.00    +0.295 HD
ENDBRANCH  10  11
ENDBRANCH   4  10
ENDBRANCH   3   4
ENDBRANCH   2   3
ENDBRANCH   1   2
BRANCH   1  13
ATOM     13  C   UNK     1     -36.534  25.433   2.840  0.00  0.00    +0.095 C 
BRANCH  13  15
ATOM     14  O   UNK     1     -35.121  20.992   5.811  0.00  0.00    -0.283 OA
ATOM     15  N   UNK     1     -36.160  24.292   3.637  0.00  0.00    -0.287 N 
ATOM     16  C   UNK     1     -35.761  24.404   4.995  0.00  0.00    +0.032 C 
ATOM     17  C   UNK     1     -36.177  23.002   3.091  0.00  0.00    +0.106 C 
ATOM     18  C   UNK     1     -35.411  23.341   5.746  0.00  0.00    +0.056 C 
ATOM     19  C   UNK     1     -35.852  21.869   3.729  0.00  0.00    +0.188 C 
ATOM     20  C   UNK     1     -35.730  25.777   5.616  0.00  0.00    +0.048 C 
ATOM     21  C   UNK     1     -35.434  21.977   5.152  0.00  0.00    +0.231 C 
BRANCH  19  22
ATOM     22  O   UNK     1     -35.894  20.637   3.122  0.00  0.00    -0.502 OA
ATOM     23  H   UNK     1     -36.005  19.864   3.639  0.00  0.00    +0.292 HD
ENDBRANCH  19  22
ENDBRANCH  13  15
ENDBRANCH   1  13
TORSDOF 9
ENDMDL
MODEL 3
REMARK VINA RESULT:      -5.5      1.994      6.955
REMARK  Name = 193136
REMARK  9 active torsions:
REMARK  status: ('A' for Active; 'I' for Inactive)
REMARK    1  A    between atoms: C_1  and  C_2
REMARK    2  A    between atoms: C_1  and  C_13
REMARK    3  A    between atoms: C_2  and  C_3
REMARK    4  A    between atoms: C_3  and  C_4
REMARK    5  A    between atoms: C_4  and  N_5
REMARK    6  A    between atoms: C_4  and  C_10
REMARK    7  A    between atoms: C_10  and  O_11
REMARK    8  A    between atoms: C_13  and  N_15
REMARK    9  A    between atoms: C_19  and  O_22
REMARK                            x       y       z     vdW  Elec       q    Type
REMARK                         _______ _______ _______ _____ _____    ______ ____
ROOT
ATOM      1  C   UNK     1     -35.497  23.628   5.734  0.00  0.00    +0.022 C 
ENDROOT
BRANCH   1   2
ATOM      2  C   UNK     1     -35.678  22.417   4.808  0.00  0.00    +0.000 C 
BRANCH   2   3
ATOM      3  C   UNK     1     -35.329  22.691   3.341  0.00  0.00    -0.011 C 
BRANCH   3   4
ATOM      4  C   UNK     1     -36.230  21.923   2.365  0.00  0.00    +0.036 C 
BRANCH   4   5
ATOM      5  N   UNK     1     -37.623  22.028   2.809  0.00  0.00    +0.389 N 
ATOM      6  H   UNK     1     -38.229  21.554   2.140  0.00  0.00    -0.088 HD
ATOM      7  H   UNK     1     -37.887  23.011   2.871  0.00  0.00    -0.088 HD
ATOM      8  H   UNK     1     -37.721  21.590   3.726  0.00  0.00    -0.088 HD
ENDBRANCH   4   5
BRANCH   4  10
ATOM      9  O   UNK     1     -34.776  19.992   2.051  0.00  0.00    -0.253 OA
ATOM     10  C   UNK     1     -35.878  20.446   2.330  0.00  0.00    +0.293 C 
BRANCH  10  11
ATOM     11  O   UNK     1     -36.945  19.656   2.622  0.00  0.00    -0.482 OA
ATOM     12  H   UNK     1     -37.557  19.430   1.950  0.00  0.00    +0.295 HD
ENDBRANCH  10  11
ENDBRANCH   4  10
ENDBRANCH   3   4
ENDBRANCH   2   3
ENDBRANCH   1   2
BRANCH   1  13
ATOM     13  C   UNK     1     -36.038  24.944   5.179  0.00  0.00    +0.095 C 
BRANCH  13  15
ATOM     14  O   UNK     1     -31.950  28.619   4.604  0.00  0.00    -0.283 OA
ATOM     15  N   UNK     1     -34.982  25.909   5.004  0.00  0.00    -0.287 N 
ATOM     16  C   UNK     1     -34.865  26.712   3.839  0.00  0.00    +0.032 C 
ATOM     17  C   UNK     1     -34.011  26.095   5.996  0.00  0.00    +0.106 C 
ATOM     18  C   UNK     1     -33.881  27.617   3.668  0.00  0.00    +0.056 C 
ATOM     19  C   UNK     1     -32.986  26.958   5.947  0.00  0.00    +0.188 C 
ATOM     20  C   UNK     1     -35.891  26.537   2.749  0.00  0.00    +0.048 C 
ATOM     21  C   UNK     1     -32.857  27.803   4.732  0.00  0.00    +0.231 C 
BRANCH  19  22
ATOM     22  O   UNK     1     -32.072  27.082   6.966  0.00  0.00    -0.502 OA
ATOM     23  H   UNK     1     -31.549  27.856   7.033  0.00  0.00    +0.292 HD
ENDBRANCH  19  22
ENDBRANCH  13  15
ENDBRANCH   1  13
TORSDOF 9
ENDMDL
MODEL 4
REMARK VINA RESULT:      -5.3      4.202      8.063
REMARK  Name = 193136
REMARK  9 active torsions:
REMARK  status: ('A' for Active; 'I' for Inactive)
REMARK    1  A    between atoms: C_1  and  C_2
REMARK    2  A    between atoms: C_1  and  C_13
REMARK    3  A    between atoms: C_2  and  C_3
REMARK    4  A    between atoms: C_3  and  C_4
REMARK    5  A    between atoms: C_4  and  N_5
REMARK    6  A    between atoms: C_4  and  C_10
REMARK    7  A    between atoms: C_10  and  O_11
REMARK    8  A    between atoms: C_13  and  N_15
REMARK    9  A    between atoms: C_19  and  O_22
REMARK                            x       y       z     vdW  Elec       q    Type
REMARK                         _______ _______ _______ _____ _____    ______ ____
ROOT
ATOM      1  C   UNK     1     -35.157  21.387   1.984  0.00  0.00    +0.022 C 
ENDROOT
BRANCH   1   2
ATOM      2  C   UNK     1     -34.635  19.944   1.958  0.00  0.00    +0.000 C 
BRANCH   2   3
ATOM      3  C   UNK     1     -33.460  19.718   1.000  0.00  0.00    -0.011 C 
BRANCH   3   4
ATOM      4  C   UNK     1     -33.577  18.402   0.220  0.00  0.00    +0.036 C 
BRANCH   4   5
ATOM      5  N   UNK     1     -34.928  17.861   0.385  0.00  0.00    +0.389 N 
ATOM      6  H   UNK     1     -35.117  17.714   1.377  0.00  0.00    -0.088 HD
ATOM      7  H   UNK     1     -35.002  16.973  -0.111  0.00  0.00    -0.088 HD
ATOM      8  H   UNK     1     -35.608  18.520   0.005  0.00  0.00    -0.088 HD
ENDBRANCH   4   5
BRANCH   4  10
ATOM      9  O   UNK     1     -32.547  16.197   0.361  0.00  0.00    -0.253 OA
ATOM     10  C   UNK     1     -32.606  17.358   0.745  0.00  0.00    +0.293 C 
BRANCH  10  11
ATOM     11  O   UNK     1     -31.806  17.847   1.729  0.00  0.00    -0.482 OA
ATOM     12  H   UNK     1     -30.877  17.746   1.670  0.00  0.00    +0.295 HD
ENDBRANCH  10  11
ENDBRANCH   4  10
ENDBRANCH   3   4
ENDBRANCH   2   3
ENDBRANCH   1   2
BRANCH   1  13
ATOM     13  C   UNK     1     -36.366  21.613   2.890  0.00  0.00    +0.095 C 
BRANCH  13  15
ATOM     14  O   UNK     1     -35.924  26.375   5.659  0.00  0.00    -0.283 OA
ATOM     15  N   UNK     1     -36.239  22.841   3.634  0.00  0.00    -0.287 N 
ATOM     16  C   UNK     1     -35.649  22.897   4.923  0.00  0.00    +0.032 C 
ATOM     17  C   UNK     1     -36.703  24.051   3.101  0.00  0.00    +0.106 C 
ATOM     18  C   UNK     1     -35.526  24.041   5.625  0.00  0.00    +0.056 C 
ATOM     19  C   UNK     1     -36.641  25.251   3.695  0.00  0.00    +0.188 C 
ATOM     20  C   UNK     1     -35.140  21.614   5.528  0.00  0.00    +0.048 C 
ATOM     21  C   UNK     1     -36.023  25.319   5.045  0.00  0.00    +0.231 C 
BRANCH  19  22
ATOM     22  O   UNK     1     -37.119  26.397   3.105  0.00  0.00    -0.502 OA
ATOM     23  H   UNK     1     -37.474  27.082   3.635  0.00  0.00    +0.292 HD
ENDBRANCH  19  22
ENDBRANCH  13  15
ENDBRANCH   1  13
TORSDOF 9
ENDMDL
MODEL 5
REMARK VINA RESULT:      -5.2      3.359      7.730
REMARK  Name = 193136
REMARK  9 active torsions:
REMARK  status: ('A' for Active; 'I' for Inactive)
REMARK    1  A    between atoms: C_1  and  C_2
REMARK    2  A    between atoms: C_1  and  C_13
REMARK    3  A    between atoms: C_2  and  C_3
REMARK    4  A    between atoms: C_3  and  C_4
REMARK    5  A    between atoms: C_4  and  N_5
REMARK    6  A    between atoms: C_4  and  C_10
REMARK    7  A    between atoms: C_10  and  O_11
REMARK    8  A    between atoms: C_13  and  N_15
REMARK    9  A    between atoms: C_19  and  O_22
REMARK                            x       y       z     vdW  Elec       q    Type
REMARK                         _______ _______ _______ _____ _____    ______ ____
ROOT
ATOM      1  C   UNK     1     -36.442  22.748   1.903  0.00  0.00    +0.022 C 
ENDROOT
BRANCH   1   2
ATOM      2  C   UNK     1     -35.143  21.935   1.796  0.00  0.00    +0.000 C 
BRANCH   2   3
ATOM      3  C   UNK     1     -35.313  20.440   2.081  0.00  0.00    -0.011 C 
BRANCH   3   4
ATOM      4  C   UNK     1     -35.532  19.615   0.806  0.00  0.00    +0.036 C 
BRANCH   4   5
ATOM      5  N   UNK     1     -36.666  18.708   1.004  0.00  0.00    +0.389 N 
ATOM      6  H   UNK     1     -36.649  17.982   0.289  0.00  0.00    -0.088 HD
ATOM      7  H   UNK     1     -37.538  19.233   0.936  0.00  0.00    -0.088 HD
ATOM      8  H   UNK     1     -36.600  18.278   1.927  0.00  0.00    -0.088 HD
ENDBRANCH   4   5
BRANCH   4  10
ATOM      9  O   UNK     1     -33.209  19.187   0.203  0.00  0.00    -0.253 OA
ATOM     10  C   UNK     1     -34.320  18.757   0.485  0.00  0.00    +0.293 C 
BRANCH  10  11
ATOM     11  O   UNK     1     -34.607  17.429   0.518  0.00  0.00    -0.482 OA
ATOM     12  H   UNK     1     -35.495  17.140   0.454  0.00  0.00    +0.295 HD
ENDBRANCH  10  11
ENDBRANCH   4  10
ENDBRANCH   3   4
ENDBRANCH   2   3
ENDBRANCH   1   2
BRANCH   1  13
ATOM     13  C   UNK     1     -36.948  22.959   3.329  0.00  0.00    +0.095 C 
BRANCH  13  15
ATOM     14  O   UNK     1     -33.892  26.743   5.953  0.00  0.00    -0.283 OA
ATOM     15  N   UNK     1     -36.141  23.926   4.031  0.00  0.00    -0.287 N 
ATOM     16  C   UNK     1     -35.311  23.577   5.128  0.00  0.00    +0.032 C 
ATOM     17  C   UNK     1     -36.147  25.274   3.649  0.00  0.00    +0.106 C 
ATOM     18  C   UNK     1     -34.554  24.476   5.789  0.00  0.00    +0.056 C 
ATOM     19  C   UNK     1     -35.443  26.261   4.223  0.00  0.00    +0.188 C 
ATOM     20  C   UNK     1     -35.281  22.136   5.568  0.00  0.00    +0.048 C 
ATOM     21  C   UNK     1     -34.570  25.904   5.371  0.00  0.00    +0.231 C 
BRANCH  19  22
ATOM     22  O   UNK     1     -35.503  27.563   3.788  0.00  0.00    -0.502 OA
ATOM     23  H   UNK     1     -34.731  28.093   3.793  0.00  0.00    +0.292 HD
ENDBRANCH  19  22
ENDBRANCH  13  15
ENDBRANCH   1  13
TORSDOF 9
ENDMDL
MODEL 6
REMARK VINA RESULT:      -5.2      3.134      4.194
REMARK  Name = 193136
REMARK  9 active torsions:
REMARK  status: ('A' for Active; 'I' for Inactive)
REMARK    1  A    between atoms: C_1  and  C_2
REMARK    2  A    between atoms: C_1  and  C_13
REMARK    3  A    between atoms: C_2  and  C_3
REMARK    4  A    between atoms: C_3  and  C_4
REMARK    5  A    between atoms: C_4  and  N_5
REMARK    6  A    between atoms: C_4  and  C_10
REMARK    7  A    between atoms: C_10  and  O_11
REMARK    8  A    between atoms: C_13  and  N_15
REMARK    9  A    between atoms: C_19  and  O_22
REMARK                            x       y       z     vdW  Elec       q    Type
REMARK                         _______ _______ _______ _____ _____    ______ ____
ROOT
ATOM      1  C   UNK     1     -35.788  22.400   4.322  0.00  0.00    +0.022 C 
ENDROOT
BRANCH   1   2
ATOM      2  C   UNK     1     -35.307  23.390   5.393  0.00  0.00    +0.000 C 
BRANCH   2   3
ATOM      3  C   UNK     1     -34.489  24.562   4.841  0.00  0.00    -0.011 C 
BRANCH   3   4
ATOM      4  C   UNK     1     -34.638  25.836   5.684  0.00  0.00    +0.036 C 
BRANCH   4   5
ATOM      5  N   UNK     1     -35.845  26.554   5.267  0.00  0.00    +0.389 N 
ATOM      6  H   UNK     1     -36.296  26.965   6.084  0.00  0.00    -0.088 HD
ATOM      7  H   UNK     1     -36.488  25.905   4.814  0.00  0.00    -0.088 HD
ATOM      8  H   UNK     1     -35.592  27.294   4.612  0.00  0.00    -0.088 HD
ENDBRANCH   4   5
BRANCH   4  10
ATOM      9  O   UNK     1     -33.217  27.382   4.446  0.00  0.00    -0.253 OA
ATOM     10  C   UNK     1     -33.463  26.776   5.481  0.00  0.00    +0.293 C 
BRANCH  10  11
ATOM     11  O   UNK     1     -32.674  26.860   6.585  0.00  0.00    -0.482 OA
ATOM     12  H   UNK     1     -32.939  26.447   7.383  0.00  0.00    +0.295 HD
ENDBRANCH  10  11
ENDBRANCH   4  10
ENDBRANCH   3   4
ENDBRANCH   2   3
ENDBRANCH   1   2
BRANCH   1  13
ATOM     13  C   UNK     1     -35.829  22.963   2.903  0.00  0.00    +0.095 C 
BRANCH  13  15
ATOM     14  O   UNK     1     -41.051  23.537   1.188  0.00  0.00    -0.283 OA
ATOM     15  N   UNK     1     -37.186  23.140   2.451  0.00  0.00    -0.287 N 
ATOM     16  C   UNK     1     -37.682  24.388   1.991  0.00  0.00    +0.032 C 
ATOM     17  C   UNK     1     -38.085  22.065   2.448  0.00  0.00    +0.106 C 
ATOM     18  C   UNK     1     -38.950  24.561   1.566  0.00  0.00    +0.056 C 
ATOM     19  C   UNK     1     -39.365  22.107   2.053  0.00  0.00    +0.188 C 
ATOM     20  C   UNK     1     -36.743  25.566   1.981  0.00  0.00    +0.048 C 
ATOM     21  C   UNK     1     -39.893  23.410   1.569  0.00  0.00    +0.231 C 
BRANCH  19  22
ATOM     22  O   UNK     1     -40.187  21.006   2.080  0.00  0.00    -0.502 OA
ATOM     23  H   UNK     1     -40.986  21.006   1.591  0.00  0.00    +0.292 HD
ENDBRANCH  19  22
ENDBRANCH  13  15
ENDBRANCH   1  13
TORSDOF 9
ENDMDL
MODEL 7
REMARK VINA RESULT:      -5.2      4.000      7.258
REMARK  Name = 193136
REMARK  9 active torsions:
REMARK  status: ('A' for Active; 'I' for Inactive)
REMARK    1  A    between atoms: C_1  and  C_2
REMARK    2  A    between atoms: C_1  and  C_13
REMARK    3  A    between atoms: C_2  and  C_3
REMARK    4  A    between atoms: C_3  and  C_4
REMARK    5  A    between atoms: C_4  and  N_5
REMARK    6  A    between atoms: C_4  and  C_10
REMARK    7  A    between atoms: C_10  and  O_11
REMARK    8  A    between atoms: C_13  and  N_15
REMARK    9  A    between atoms: C_19  and  O_22
REMARK                            x       y       z     vdW  Elec       q    Type
REMARK                         _______ _______ _______ _____ _____    ______ ____
ROOT
ATOM      1  C   UNK     1     -37.105  23.195   1.788  0.00  0.00    +0.022 C 
ENDROOT
BRANCH   1   2
ATOM      2  C   UNK     1     -38.469  22.955   1.125  0.00  0.00    +0.000 C 
BRANCH   2   3
ATOM      3  C   UNK     1     -39.664  23.112   2.071  0.00  0.00    -0.011 C 
BRANCH   3   4
ATOM      4  C   UNK     1     -40.435  24.418   1.838  0.00  0.00    +0.036 C 
BRANCH   4   5
ATOM      5  N   UNK     1     -40.084  24.959   0.523  0.00  0.00    +0.389 N 
ATOM      6  H   UNK     1     -39.580  25.838   0.640  0.00  0.00    -0.088 HD
ATOM      7  H   UNK     1     -40.934  25.123  -0.016  0.00  0.00    -0.088 HD
ATOM      8  H   UNK     1     -39.491  24.292   0.027  0.00  0.00    -0.088 HD
ENDBRANCH   4   5
BRANCH   4  10
ATOM      9  O   UNK     1     -39.972  26.671   2.648  0.00  0.00    -0.253 OA
ATOM     10  C   UNK     1     -40.068  25.470   2.870  0.00  0.00    +0.293 C 
BRANCH  10  11
ATOM     11  O   UNK     1     -39.824  24.929   4.093  0.00  0.00    -0.482 OA
ATOM     12  H   UNK     1     -40.225  24.118   4.335  0.00  0.00    +0.295 HD
ENDBRANCH  10  11
ENDBRANCH   4  10
ENDBRANCH   3   4
ENDBRANCH   2   3
ENDBRANCH   1   2
BRANCH   1  13
ATOM     13  C   UNK     1     -37.064  22.906   3.288  0.00  0.00    +0.095 C 
BRANCH  13  15
ATOM     14  O   UNK     1     -33.992  26.694   5.888  0.00  0.00    -0.283 OA
ATOM     15  N   UNK     1     -36.253  23.874   3.983  0.00  0.00    -0.287 N 
ATOM     16  C   UNK     1     -35.397  23.523   5.060  0.00  0.00    +0.032 C 
ATOM     17  C   UNK     1     -36.279  25.226   3.615  0.00  0.00    +0.106 C 
ATOM     18  C   UNK     1     -34.636  24.422   5.714  0.00  0.00    +0.056 C 
ATOM     19  C   UNK     1     -35.573  26.214   4.184  0.00  0.00    +0.188 C 
ATOM     20  C   UNK     1     -35.345  22.078   5.484  0.00  0.00    +0.048 C 
ATOM     21  C   UNK     1     -34.674  25.854   5.311  0.00  0.00    +0.231 C 
BRANCH  19  22
ATOM     22  O   UNK     1     -35.654  27.520   3.764  0.00  0.00    -0.502 OA
ATOM     23  H   UNK     1     -35.360  27.754   2.907  0.00  0.00    +0.292 HD
ENDBRANCH  19  22
ENDBRANCH  13  15
ENDBRANCH   1  13
TORSDOF 9
ENDMDL
MODEL 8
REMARK VINA RESULT:      -5.1      2.382      2.658
REMARK  Name = 193136
REMARK  9 active torsions:
REMARK  status: ('A' for Active; 'I' for Inactive)
REMARK    1  A    between atoms: C_1  and  C_2
REMARK    2  A    between atoms: C_1  and  C_13
REMARK    3  A    between atoms: C_2  and  C_3
REMARK    4  A    between atoms: C_3  and  C_4
REMARK    5  A    between atoms: C_4  and  N_5
REMARK    6  A    between atoms: C_4  and  C_10
REMARK    7  A    between atoms: C_10  and  O_11
REMARK    8  A    between atoms: C_13  and  N_15
REMARK    9  A    between atoms: C_19  and  O_22
REMARK                            x       y       z     vdW  Elec       q    Type
REMARK                         _______ _______ _______ _____ _____    ______ ____
ROOT
ATOM      1  C   UNK     1     -34.924  25.731   5.879  0.00  0.00    +0.022 C 
ENDROOT
BRANCH   1   2
ATOM      2  C   UNK     1     -33.682  26.545   5.492  0.00  0.00    +0.000 C 
BRANCH   2   3
ATOM      3  C   UNK     1     -33.518  26.762   3.984  0.00  0.00    -0.011 C 
BRANCH   3   4
ATOM      4  C   UNK     1     -33.166  28.213   3.629  0.00  0.00    +0.036 C 
BRANCH   4   5
ATOM      5  N   UNK     1     -32.737  28.916   4.841  0.00  0.00    +0.389 N 
ATOM      6  H   UNK     1     -31.811  29.316   4.692  0.00  0.00    -0.088 HD
ATOM      7  H   UNK     1     -32.703  28.260   5.622  0.00  0.00    -0.088 HD
ATOM      8  H   UNK     1     -33.399  29.663   5.053  0.00  0.00    -0.088 HD
ENDBRANCH   4   5
BRANCH   4  10
ATOM      9  O   UNK     1     -34.693  30.098   3.387  0.00  0.00    -0.253 OA
ATOM     10  C   UNK     1     -34.371  28.957   3.080  0.00  0.00    +0.293 C 
BRANCH  10  11
ATOM     11  O   UNK     1     -35.090  28.201   2.209  0.00  0.00    -0.482 OA
ATOM     12  H   UNK     1     -35.404  27.358   2.470  0.00  0.00    +0.295 HD
ENDBRANCH  10  11
ENDBRANCH   4  10
ENDBRANCH   3   4
ENDBRANCH   2   3
ENDBRANCH   1   2
BRANCH   1  13
ATOM     13  C   UNK     1     -35.894  25.459   4.730  0.00  0.00    +0.095 C 
BRANCH  13  15
ATOM     14  O   UNK     1     -35.390  20.237   2.990  0.00  0.00    -0.283 OA
ATOM     15  N   UNK     1     -35.766  24.105   4.250  0.00  0.00    -0.287 N 
ATOM     16  C   UNK     1     -35.830  23.774   2.871  0.00  0.00    +0.032 C 
ATOM     17  C   UNK     1     -35.570  23.044   5.144  0.00  0.00    +0.106 C 
ATOM     18  C   UNK     1     -35.711  22.512   2.414  0.00  0.00    +0.056 C 
ATOM     19  C   UNK     1     -35.438  21.751   4.818  0.00  0.00    +0.188 C 
ATOM     20  C   UNK     1     -36.042  24.890   1.881  0.00  0.00    +0.048 C 
ATOM     21  C   UNK     1     -35.503  21.395   3.376  0.00  0.00    +0.231 C 
BRANCH  19  22
ATOM     22  O   UNK     1     -35.248  20.765   5.757  0.00  0.00    -0.502 OA
ATOM     23  H   UNK     1     -35.388  19.868   5.528  0.00  0.00    +0.292 HD
ENDBRANCH  19  22
ENDBRANCH  13  15
ENDBRANCH   1  13
TORSDOF 9
ENDMDL
MODEL 9
REMARK VINA RESULT:      -5.0      4.598      7.123
REMARK  Name = 193136
REMARK  9 active torsions:
REMARK  status: ('A' for Active; 'I' for Inactive)
REMARK    1  A    between atoms: C_1  and  C_2
REMARK    2  A    between atoms: C_1  and  C_13
REMARK    3  A    between atoms: C_2  and  C_3
REMARK    4  A    between atoms: C_3  and  C_4
REMARK    5  A    between atoms: C_4  and  N_5
REMARK    6  A    between atoms: C_4  and  C_10
REMARK    7  A    between atoms: C_10  and  O_11
REMARK    8  A    between atoms: C_13  and  N_15
REMARK    9  A    between atoms: C_19  and  O_22
REMARK                            x       y       z     vdW  Elec       q    Type
REMARK                         _______ _______ _______ _____ _____    ______ ____
ROOT
ATOM      1  C   UNK     1     -37.950  24.997   2.100  0.00  0.00    +0.022 C 
ENDROOT
BRANCH   1   2
ATOM      2  C   UNK     1     -39.122  25.985   2.185  0.00  0.00    +0.000 C 
BRANCH   2   3
ATOM      3  C   UNK     1     -40.320  25.470   2.990  0.00  0.00    -0.011 C 
BRANCH   3   4
ATOM      4  C   UNK     1     -41.635  26.156   2.598  0.00  0.00    +0.036 C 
BRANCH   4   5
ATOM      5  N   UNK     1     -41.372  27.140   1.545  0.00  0.00    +0.389 N 
ATOM      6  H   UNK     1     -42.055  27.027   0.796  0.00  0.00    -0.088 HD
ATOM      7  H   UNK     1     -40.433  26.998   1.174  0.00  0.00    -0.088 HD
ATOM      8  H   UNK     1     -41.446  28.081   1.932  0.00  0.00    -0.088 HD
ENDBRANCH   4   5
BRANCH   4  10
ATOM      9  O   UNK     1     -43.412  26.834   4.124  0.00  0.00    -0.253 OA
ATOM     10  C   UNK     1     -42.241  26.905   3.772  0.00  0.00    +0.293 C 
BRANCH  10  11
ATOM     11  O   UNK     1     -41.336  27.706   4.395  0.00  0.00    -0.482 OA
ATOM     12  H   UNK     1     -41.575  28.161   5.178  0.00  0.00    +0.295 HD
ENDBRANCH  10  11
ENDBRANCH   4  10
ENDBRANCH   3   4
ENDBRANCH   2   3
ENDBRANCH   1   2
BRANCH   1  13
ATOM     13  C   UNK     1     -36.739  25.367   2.953  0.00  0.00    +0.095 C 
BRANCH  13  15
ATOM     14  O   UNK     1     -34.976  20.966   5.794  0.00  0.00    -0.283 OA
ATOM     15  N   UNK     1     -36.273  24.236   3.716  0.00  0.00    -0.287 N 
ATOM     16  C   UNK     1     -35.780  24.358   5.041  0.00  0.00    +0.032 C 
ATOM     17  C   UNK     1     -36.288  22.947   3.166  0.00  0.00    +0.106 C 
ATOM     18  C   UNK     1     -35.343  23.306   5.761  0.00  0.00    +0.056 C 
ATOM     19  C   UNK     1     -35.883  21.824   3.775  0.00  0.00    +0.188 C 
ATOM     20  C   UNK     1     -35.747  25.730   5.664  0.00  0.00    +0.048 C 
ATOM     21  C   UNK     1     -35.367  21.942   5.164  0.00  0.00    +0.231 C 
BRANCH  19  22
ATOM     22  O   UNK     1     -35.930  20.592   3.167  0.00  0.00    -0.502 OA
ATOM     23  H   UNK     1     -36.702  20.327   2.708  0.00  0.00    +0.292 HD
ENDBRANCH  19  22
ENDBRANCH  13  15
ENDBRANCH   1  13
TORSDOF 9
ENDMDL
