MODEL 1
REMARK VINA RESULT:      -5.8      0.000      0.000
REMARK  Name = 54123053
REMARK  5 active torsions:
REMARK  status: ('A' for Active; 'I' for Inactive)
REMARK    1  A    between atoms: N_1  and  C_8
REMARK    2  A    between atoms: C_3  and  N_21
REMARK    3  A    between atoms: C_5  and  C_18
REMARK    4  A    between atoms: C_7  and  O_12
REMARK    5  A    between atoms: C_9  and  O_14
REMARK                            x       y       z     vdW  Elec       q    Type
REMARK                         _______ _______ _______ _____ _____    ______ ____
ROOT
ATOM      1  N   UNL     1     -33.273  27.035   5.102  0.00  0.00    -0.211 NA
ATOM      2  N   UNL     1     -32.263  28.783   4.178  0.00  0.00    -0.249 NA
ATOM      3  C   UNL     1     -32.549  27.622   6.102  0.00  0.00    +0.161 C 
ATOM      4  C   UNL     1     -33.069  27.767   3.965  0.00  0.00    +0.204 C 
ATOM      5  C   UNL     1     -31.935  28.698   5.508  0.00  0.00    +0.138 C 
ENDROOT
BRANCH   1   8
ATOM      6  O   UNL     1     -33.599  24.706   4.444  0.00  0.00    -0.338 OA
ATOM      7  C   UNL     1     -35.551  26.027   4.660  0.00  0.00    +0.183 C 
ATOM      8  C   UNL     1     -34.144  25.806   5.204  0.00  0.00    +0.208 C 
ATOM      9  C   UNL     1     -35.969  24.619   4.285  0.00  0.00    +0.168 C 
ATOM     10  C   UNL     1     -34.670  24.032   3.747  0.00  0.00    +0.146 C 
ATOM     11  C   UNL     1     -34.485  24.262   2.253  0.00  0.00    +0.035 C 
BRANCH   7  12
ATOM     12  O   UNL     1     -36.419  26.627   5.601  0.00  0.00    -0.378 OA
ATOM     13  H   UNL     1     -37.210  26.077   5.709  0.00  0.00    +0.211 HD
ENDBRANCH   7  12
BRANCH   9  14
ATOM     14  O   UNL     1     -36.336  23.881   5.451  0.00  0.00    -0.379 OA
ATOM     15  H   UNL     1     -36.439  24.489   6.199  0.00  0.00    +0.211 HD
ENDBRANCH   9  14
ENDBRANCH   1   8
BRANCH   5  18
ATOM     16  O   UNL     1     -30.848  30.780   5.667  0.00  0.00    -0.269 OA
ATOM     17  N   UNL     1     -30.438  29.271   7.343  0.00  0.00    -0.324 N 
ATOM     18  C   UNL     1     -31.061  29.639   6.142  0.00  0.00    +0.259 C 
ATOM     19  H   UNL     1     -29.833  29.900   7.797  0.00  0.00    +0.145 HD
ATOM     20  H   UNL     1     -30.607  28.382   7.733  0.00  0.00    +0.145 HD
ENDBRANCH   5  18
BRANCH   3  21
ATOM     21  N   UNL     1     -32.540  27.132   7.359  0.00  0.00    -0.305 NA
ATOM     22  H   UNL     1     -32.532  27.748   8.127  0.00  0.00    +0.120 HD
ATOM     23  H   UNL     1     -32.541  26.159   7.509  0.00  0.00    +0.120 HD
ENDBRANCH   3  21
TORSDOF 5
ENDMDL
MODEL 2
REMARK VINA RESULT:      -5.8      4.530      7.328
REMARK  Name = 54123053
REMARK  5 active torsions:
REMARK  status: ('A' for Active; 'I' for Inactive)
REMARK    1  A    between atoms: N_1  and  C_8
REMARK    2  A    between atoms: C_3  and  N_21
REMARK    3  A    between atoms: C_5  and  C_18
REMARK    4  A    between atoms: C_7  and  O_12
REMARK    5  A    between atoms: C_9  and  O_14
REMARK                            x       y       z     vdW  Elec       q    Type
REMARK                         _______ _______ _______ _____ _____    ______ ____
ROOT
ATOM      1  N   UNL     1     -37.375  24.455   3.130  0.00  0.00    -0.211 NA
ATOM      2  N   UNL     1     -39.363  24.880   2.235  0.00  0.00    -0.249 NA
ATOM      3  C   UNL     1     -37.893  23.242   2.772  0.00  0.00    +0.161 C 
ATOM      4  C   UNL     1     -38.294  25.409   2.788  0.00  0.00    +0.204 C 
ATOM      5  C   UNL     1     -39.120  23.529   2.222  0.00  0.00    +0.138 C 
ENDROOT
BRANCH   1   8
ATOM      6  O   UNL     1     -35.276  23.509   3.940  0.00  0.00    -0.338 OA
ATOM      7  C   UNL     1     -36.169  25.317   5.180  0.00  0.00    +0.183 C 
ATOM      8  C   UNL     1     -36.041  24.723   3.781  0.00  0.00    +0.208 C 
ATOM      9  C   UNL     1     -34.858  24.903   5.820  0.00  0.00    +0.168 C 
ATOM     10  C   UNL     1     -34.644  23.511   5.239  0.00  0.00    +0.146 C 
ATOM     11  C   UNL     1     -35.280  22.410   6.079  0.00  0.00    +0.035 C 
BRANCH   7  12
ATOM     12  O   UNL     1     -36.360  26.717   5.170  0.00  0.00    -0.378 OA
ATOM     13  H   UNL     1     -36.283  27.061   6.073  0.00  0.00    +0.211 HD
ENDBRANCH   7  12
BRANCH   9  14
ATOM     14  O   UNL     1     -33.795  25.738   5.362  0.00  0.00    -0.379 OA
ATOM     15  H   UNL     1     -33.641  25.578   4.418  0.00  0.00    +0.211 HD
ENDBRANCH   9  14
ENDBRANCH   1   8
BRANCH   5  18
ATOM     16  O   UNL     1     -40.925  22.912   0.844  0.00  0.00    -0.269 OA
ATOM     17  N   UNL     1     -39.993  21.257   2.127  0.00  0.00    -0.324 N 
ATOM     18  C   UNL     1     -40.059  22.588   1.692  0.00  0.00    +0.259 C 
ATOM     19  H   UNL     1     -40.628  20.592   1.777  0.00  0.00    +0.145 HD
ATOM     20  H   UNL     1     -39.310  20.987   2.783  0.00  0.00    +0.145 HD
ENDBRANCH   5  18
BRANCH   3  21
ATOM     21  N   UNL     1     -37.223  22.089   2.979  0.00  0.00    -0.305 NA
ATOM     22  H   UNL     1     -36.651  21.988   3.773  0.00  0.00    +0.120 HD
ATOM     23  H   UNL     1     -37.306  21.349   2.335  0.00  0.00    +0.120 HD
ENDBRANCH   3  21
TORSDOF 5
ENDMDL
MODEL 3
REMARK VINA RESULT:      -5.6      2.595      3.726
REMARK  Name = 54123053
REMARK  5 active torsions:
REMARK  status: ('A' for Active; 'I' for Inactive)
REMARK    1  A    between atoms: N_1  and  C_8
REMARK    2  A    between atoms: C_3  and  N_21
REMARK    3  A    between atoms: C_5  and  C_18
REMARK    4  A    between atoms: C_7  and  O_12
REMARK    5  A    between atoms: C_9  and  O_14
REMARK                            x       y       z     vdW  Elec       q    Type
REMARK                         _______ _______ _______ _____ _____    ______ ____
ROOT
ATOM      1  N   UNL     1     -35.781  24.828   4.373  0.00  0.00    -0.211 NA
ATOM      2  N   UNL     1     -33.561  24.885   4.412  0.00  0.00    -0.249 NA
ATOM      3  C   UNL     1     -35.447  25.933   5.105  0.00  0.00    +0.161 C 
ATOM      4  C   UNL     1     -34.616  24.231   3.979  0.00  0.00    +0.204 C 
ATOM      5  C   UNL     1     -34.072  25.948   5.115  0.00  0.00    +0.138 C 
ENDROOT
BRANCH   1   8
ATOM      6  O   UNL     1     -37.153  22.959   3.610  0.00  0.00    -0.338 OA
ATOM      7  C   UNL     1     -37.828  25.119   2.915  0.00  0.00    +0.183 C 
ATOM      8  C   UNL     1     -37.169  24.335   4.045  0.00  0.00    +0.208 C 
ATOM      9  C   UNL     1     -38.822  24.112   2.371  0.00  0.00    +0.168 C 
ATOM     10  C   UNL     1     -38.050  22.804   2.488  0.00  0.00    +0.146 C 
ATOM     11  C   UNL     1     -37.217  22.491   1.252  0.00  0.00    +0.035 C 
BRANCH   7  12
ATOM     12  O   UNL     1     -38.439  26.315   3.355  0.00  0.00    -0.378 OA
ATOM     13  H   UNL     1     -37.842  26.779   3.961  0.00  0.00    +0.211 HD
ENDBRANCH   7  12
BRANCH   9  14
ATOM     14  O   UNL     1     -39.962  24.027   3.225  0.00  0.00    -0.379 OA
ATOM     15  H   UNL     1     -40.770  24.080   2.692  0.00  0.00    +0.211 HD
ENDBRANCH   9  14
ENDBRANCH   1   8
BRANCH   5  18
ATOM     16  O   UNL     1     -32.787  26.751   6.916  0.00  0.00    -0.269 OA
ATOM     17  N   UNL     1     -32.888  28.076   5.049  0.00  0.00    -0.324 N 
ATOM     18  C   UNL     1     -33.233  26.915   5.756  0.00  0.00    +0.259 C 
ATOM     19  H   UNL     1     -32.314  28.756   5.468  0.00  0.00    +0.145 HD
ATOM     20  H   UNL     1     -33.223  28.211   4.132  0.00  0.00    +0.145 HD
ENDBRANCH   5  18
BRANCH   3  21
ATOM     21  N   UNL     1     -36.381  26.745   5.641  0.00  0.00    -0.305 NA
ATOM     22  H   UNL     1     -37.335  26.589   5.455  0.00  0.00    +0.120 HD
ATOM     23  H   UNL     1     -36.110  27.494   6.220  0.00  0.00    +0.120 HD
ENDBRANCH   3  21
TORSDOF 5
ENDMDL
MODEL 4
REMARK VINA RESULT:      -5.6      4.563      7.172
REMARK  Name = 54123053
REMARK  5 active torsions:
REMARK  status: ('A' for Active; 'I' for Inactive)
REMARK    1  A    between atoms: N_1  and  C_8
REMARK    2  A    between atoms: C_3  and  N_21
REMARK    3  A    between atoms: C_5  and  C_18
REMARK    4  A    between atoms: C_7  and  O_12
REMARK    5  A    between atoms: C_9  and  O_14
REMARK                            x       y       z     vdW  Elec       q    Type
REMARK                         _______ _______ _______ _____ _____    ______ ____
ROOT
ATOM      1  N   UNL     1     -37.498  24.317   3.155  0.00  0.00    -0.211 NA
ATOM      2  N   UNL     1     -39.086  23.013   2.314  0.00  0.00    -0.249 NA
ATOM      3  C   UNL     1     -38.543  25.145   2.855  0.00  0.00    +0.161 C 
ATOM      4  C   UNL     1     -37.870  23.047   2.813  0.00  0.00    +0.204 C 
ATOM      5  C   UNL     1     -39.511  24.318   2.337  0.00  0.00    +0.138 C 
ENDROOT
BRANCH   1   8
ATOM      6  O   UNL     1     -35.266  23.580   3.814  0.00  0.00    -0.338 OA
ATOM      7  C   UNL     1     -36.286  25.216   5.187  0.00  0.00    +0.183 C 
ATOM      8  C   UNL     1     -36.168  24.705   3.755  0.00  0.00    +0.208 C 
ATOM      9  C   UNL     1     -34.905  24.924   5.741  0.00  0.00    +0.168 C 
ATOM     10  C   UNL     1     -34.570  23.594   5.080  0.00  0.00    +0.146 C 
ATOM     11  C   UNL     1     -35.033  22.391   5.892  0.00  0.00    +0.035 C 
BRANCH   7  12
ATOM     12  O   UNL     1     -36.632  26.585   5.258  0.00  0.00    -0.378 OA
ATOM     13  H   UNL     1     -37.570  26.670   5.486  0.00  0.00    +0.211 HD
ENDBRANCH   7  12
BRANCH   9  14
ATOM     14  O   UNL     1     -33.968  25.895   5.276  0.00  0.00    -0.379 OA
ATOM     15  H   UNL     1     -33.068  25.547   5.372  0.00  0.00    +0.211 HD
ENDBRANCH   9  14
ENDBRANCH   1   8
BRANCH   5  18
ATOM     16  O   UNL     1     -41.357  25.775   2.234  0.00  0.00    -0.269 OA
ATOM     17  N   UNL     1     -41.471  23.873   0.960  0.00  0.00    -0.324 N 
ATOM     18  C   UNL     1     -40.807  24.708   1.870  0.00  0.00    +0.259 C 
ATOM     19  H   UNL     1     -42.362  24.120   0.625  0.00  0.00    +0.145 HD
ATOM     20  H   UNL     1     -41.044  23.039   0.657  0.00  0.00    +0.145 HD
ENDBRANCH   5  18
BRANCH   3  21
ATOM     21  N   UNL     1     -38.489  26.475   3.077  0.00  0.00    -0.305 NA
ATOM     22  H   UNL     1     -37.650  26.889   3.384  0.00  0.00    +0.120 HD
ATOM     23  H   UNL     1     -39.288  27.031   2.932  0.00  0.00    +0.120 HD
ENDBRANCH   3  21
TORSDOF 5
ENDMDL
MODEL 5
REMARK VINA RESULT:      -5.5      4.801      6.571
REMARK  Name = 54123053
REMARK  5 active torsions:
REMARK  status: ('A' for Active; 'I' for Inactive)
REMARK    1  A    between atoms: N_1  and  C_8
REMARK    2  A    between atoms: C_3  and  N_21
REMARK    3  A    between atoms: C_5  and  C_18
REMARK    4  A    between atoms: C_7  and  O_12
REMARK    5  A    between atoms: C_9  and  O_14
REMARK                            x       y       z     vdW  Elec       q    Type
REMARK                         _______ _______ _______ _____ _____    ______ ____
ROOT
ATOM      1  N   UNL     1     -37.339  24.485   4.020  0.00  0.00    -0.211 NA
ATOM      2  N   UNL     1     -35.606  24.094   5.353  0.00  0.00    -0.249 NA
ATOM      3  C   UNL     1     -37.028  23.165   3.853  0.00  0.00    +0.161 C 
ATOM      4  C   UNL     1     -36.458  25.001   4.929  0.00  0.00    +0.204 C 
ATOM      5  C   UNL     1     -35.956  22.947   4.685  0.00  0.00    +0.138 C 
ENDROOT
BRANCH   1   8
ATOM      6  O   UNL     1     -39.557  24.401   3.004  0.00  0.00    -0.338 OA
ATOM      7  C   UNL     1     -38.005  25.899   2.030  0.00  0.00    +0.183 C 
ATOM      8  C   UNL     1     -38.445  25.256   3.341  0.00  0.00    +0.208 C 
ATOM      9  C   UNL     1     -39.318  26.023   1.283  0.00  0.00    +0.168 C 
ATOM     10  C   UNL     1     -40.037  24.742   1.684  0.00  0.00    +0.146 C 
ATOM     11  C   UNL     1     -39.741  23.575   0.752  0.00  0.00    +0.035 C 
BRANCH   7  12
ATOM     12  O   UNL     1     -37.354  27.140   2.214  0.00  0.00    -0.378 OA
ATOM     13  H   UNL     1     -37.695  27.568   3.015  0.00  0.00    +0.211 HD
ENDBRANCH   7  12
BRANCH   9  14
ATOM     14  O   UNL     1     -40.073  27.127   1.785  0.00  0.00    -0.379 OA
ATOM     15  H   UNL     1     -40.607  26.836   2.539  0.00  0.00    +0.211 HD
ENDBRANCH   9  14
ENDBRANCH   1   8
BRANCH   5  18
ATOM     16  O   UNL     1     -35.183  20.840   3.972  0.00  0.00    -0.269 OA
ATOM     17  N   UNL     1     -34.622  21.479   6.101  0.00  0.00    -0.324 N 
ATOM     18  C   UNL     1     -35.257  21.711   4.872  0.00  0.00    +0.259 C 
ATOM     19  H   UNL     1     -34.137  20.637   6.253  0.00  0.00    +0.145 HD
ATOM     20  H   UNL     1     -34.662  22.160   6.811  0.00  0.00    +0.145 HD
ENDBRANCH   5  18
BRANCH   3  21
ATOM     21  N   UNL     1     -37.719  22.368   3.012  0.00  0.00    -0.305 NA
ATOM     22  H   UNL     1     -38.678  22.208   3.163  0.00  0.00    +0.120 HD
ATOM     23  H   UNL     1     -37.264  21.946   2.247  0.00  0.00    +0.120 HD
ENDBRANCH   3  21
TORSDOF 5
ENDMDL
MODEL 6
REMARK VINA RESULT:      -5.4      4.493      6.212
REMARK  Name = 54123053
REMARK  5 active torsions:
REMARK  status: ('A' for Active; 'I' for Inactive)
REMARK    1  A    between atoms: N_1  and  C_8
REMARK    2  A    between atoms: C_3  and  N_21
REMARK    3  A    between atoms: C_5  and  C_18
REMARK    4  A    between atoms: C_7  and  O_12
REMARK    5  A    between atoms: C_9  and  O_14
REMARK                            x       y       z     vdW  Elec       q    Type
REMARK                         _______ _______ _______ _____ _____    ______ ____
ROOT
ATOM      1  N   UNL     1     -35.539  22.400   3.514  0.00  0.00    -0.211 NA
ATOM      2  N   UNL     1     -35.885  23.374   5.480  0.00  0.00    -0.249 NA
ATOM      3  C   UNL     1     -35.901  23.689   3.235  0.00  0.00    +0.161 C 
ATOM      4  C   UNL     1     -35.544  22.258   4.873  0.00  0.00    +0.204 C 
ATOM      5  C   UNL     1     -36.109  24.270   4.464  0.00  0.00    +0.138 C 
ENDROOT
BRANCH   1   8
ATOM      6  O   UNL     1     -34.472  21.841   1.391  0.00  0.00    -0.338 OA
ATOM      7  C   UNL     1     -36.422  20.621   1.946  0.00  0.00    +0.183 C 
ATOM      8  C   UNL     1     -35.193  21.314   2.524  0.00  0.00    +0.208 C 
ATOM      9  C   UNL     1     -35.897  20.102   0.622  0.00  0.00    +0.168 C 
ATOM     10  C   UNL     1     -34.970  21.228   0.182  0.00  0.00    +0.146 C 
ATOM     11  C   UNL     1     -35.678  22.298  -0.639  0.00  0.00    +0.035 C 
BRANCH   7  12
ATOM     12  O   UNL     1     -36.922  19.596   2.781  0.00  0.00    -0.378 OA
ATOM     13  H   UNL     1     -37.163  18.827   2.241  0.00  0.00    +0.211 HD
ENDBRANCH   7  12
BRANCH   9  14
ATOM     14  O   UNL     1     -35.104  18.933   0.824  0.00  0.00    -0.379 OA
ATOM     15  H   UNL     1     -34.672  18.687  -0.008  0.00  0.00    +0.211 HD
ENDBRANCH   9  14
ENDBRANCH   1   8
BRANCH   5  18
ATOM     16  O   UNL     1     -35.964  26.329   5.596  0.00  0.00    -0.269 OA
ATOM     17  N   UNL     1     -37.525  26.177   3.923  0.00  0.00    -0.324 N 
ATOM     18  C   UNL     1     -36.506  25.623   4.711  0.00  0.00    +0.259 C 
ATOM     19  H   UNL     1     -37.816  27.105   4.076  0.00  0.00    +0.145 HD
ATOM     20  H   UNL     1     -37.950  25.638   3.218  0.00  0.00    +0.145 HD
ENDBRANCH   5  18
BRANCH   3  21
ATOM     21  N   UNL     1     -35.991  24.149   1.971  0.00  0.00    -0.305 NA
ATOM     22  H   UNL     1     -36.092  23.517   1.223  0.00  0.00    +0.120 HD
ATOM     23  H   UNL     1     -35.958  25.117   1.795  0.00  0.00    +0.120 HD
ENDBRANCH   3  21
TORSDOF 5
ENDMDL
MODEL 7
REMARK VINA RESULT:      -5.4      4.206      6.075
REMARK  Name = 54123053
REMARK  5 active torsions:
REMARK  status: ('A' for Active; 'I' for Inactive)
REMARK    1  A    between atoms: N_1  and  C_8
REMARK    2  A    between atoms: C_3  and  N_21
REMARK    3  A    between atoms: C_5  and  C_18
REMARK    4  A    between atoms: C_7  and  O_12
REMARK    5  A    between atoms: C_9  and  O_14
REMARK                            x       y       z     vdW  Elec       q    Type
REMARK                         _______ _______ _______ _____ _____    ______ ____
ROOT
ATOM      1  N   UNL     1     -36.177  22.630   2.891  0.00  0.00    -0.211 NA
ATOM      2  N   UNL     1     -36.055  24.843   2.759  0.00  0.00    -0.249 NA
ATOM      3  C   UNL     1     -36.004  23.073   4.173  0.00  0.00    +0.161 C 
ATOM      4  C   UNL     1     -36.201  23.728   2.078  0.00  0.00    +0.204 C 
ATOM      5  C   UNL     1     -35.932  24.441   4.066  0.00  0.00    +0.138 C 
ENDROOT
BRANCH   1   8
ATOM      6  O   UNL     1     -35.120  20.439   2.688  0.00  0.00    -0.338 OA
ATOM      7  C   UNL     1     -36.571  21.079   0.931  0.00  0.00    +0.183 C 
ATOM      8  C   UNL     1     -36.319  21.199   2.430  0.00  0.00    +0.208 C 
ATOM      9  C   UNL     1     -36.051  19.686   0.635  0.00  0.00    +0.168 C 
ATOM     10  C   UNL     1     -34.836  19.596   1.549  0.00  0.00    +0.146 C 
ATOM     11  C   UNL     1     -33.557  20.098   0.892  0.00  0.00    +0.035 C 
BRANCH   7  12
ATOM     12  O   UNL     1     -37.931  21.246   0.585  0.00  0.00    -0.378 OA
ATOM     13  H   UNL     1     -38.063  20.992  -0.342  0.00  0.00    +0.211 HD
ENDBRANCH   7  12
BRANCH   9  14
ATOM     14  O   UNL     1     -36.995  18.702   1.060  0.00  0.00    -0.379 OA
ATOM     15  H   UNL     1     -37.891  19.064   0.992  0.00  0.00    +0.211 HD
ENDBRANCH   9  14
ENDBRANCH   1   8
BRANCH   5  18
ATOM     16  O   UNL     1     -34.872  25.220   6.019  0.00  0.00    -0.269 OA
ATOM     17  N   UNL     1     -36.583  26.502   5.191  0.00  0.00    -0.324 N 
ATOM     18  C   UNL     1     -35.753  25.373   5.139  0.00  0.00    +0.259 C 
ATOM     19  H   UNL     1     -36.479  27.155   5.919  0.00  0.00    +0.145 HD
ATOM     20  H   UNL     1     -37.270  26.640   4.500  0.00  0.00    +0.145 HD
ENDBRANCH   5  18
BRANCH   3  21
ATOM     21  N   UNL     1     -35.938  22.225   5.220  0.00  0.00    -0.305 NA
ATOM     22  H   UNL     1     -36.742  22.043   5.757  0.00  0.00    +0.120 HD
ATOM     23  H   UNL     1     -35.086  21.787   5.446  0.00  0.00    +0.120 HD
ENDBRANCH   3  21
TORSDOF 5
ENDMDL
MODEL 8
REMARK VINA RESULT:      -5.4      5.480      7.667
REMARK  Name = 54123053
REMARK  5 active torsions:
REMARK  status: ('A' for Active; 'I' for Inactive)
REMARK    1  A    between atoms: N_1  and  C_8
REMARK    2  A    between atoms: C_3  and  N_21
REMARK    3  A    between atoms: C_5  and  C_18
REMARK    4  A    between atoms: C_7  and  O_12
REMARK    5  A    between atoms: C_9  and  O_14
REMARK                            x       y       z     vdW  Elec       q    Type
REMARK                         _______ _______ _______ _____ _____    ______ ____
ROOT
ATOM      1  N   UNL     1     -35.477  22.069   1.798  0.00  0.00    -0.211 NA
ATOM      2  N   UNL     1     -33.765  21.315   0.600  0.00  0.00    -0.249 NA
ATOM      3  C   UNL     1     -35.466  20.713   1.971  0.00  0.00    +0.161 C 
ATOM      4  C   UNL     1     -34.438  22.384   0.967  0.00  0.00    +0.204 C 
ATOM      5  C   UNL     1     -34.401  20.270   1.224  0.00  0.00    +0.138 C 
ENDROOT
BRANCH   1   8
ATOM      6  O   UNL     1     -36.481  24.288   1.645  0.00  0.00    -0.338 OA
ATOM      7  C   UNL     1     -36.078  23.460   3.824  0.00  0.00    +0.183 C 
ATOM      8  C   UNL     1     -36.445  23.059   2.400  0.00  0.00    +0.208 C 
ATOM      9  C   UNL     1     -36.732  24.822   3.947  0.00  0.00    +0.168 C 
ATOM     10  C   UNL     1     -36.515  25.407   2.558  0.00  0.00    +0.146 C 
ATOM     11  C   UNL     1     -35.201  26.167   2.429  0.00  0.00    +0.035 C 
BRANCH   7  12
ATOM     12  O   UNL     1     -36.537  22.538   4.793  0.00  0.00    -0.378 OA
ATOM     13  H   UNL     1     -35.920  22.518   5.540  0.00  0.00    +0.211 HD
ENDBRANCH   7  12
BRANCH   9  14
ATOM     14  O   UNL     1     -38.138  24.682   4.151  0.00  0.00    -0.379 OA
ATOM     15  H   UNL     1     -38.579  24.567   3.296  0.00  0.00    +0.211 HD
ENDBRANCH   9  14
ENDBRANCH   1   8
BRANCH   5  18
ATOM     16  O   UNL     1     -32.853  18.518   1.499  0.00  0.00    -0.269 OA
ATOM     17  N   UNL     1     -34.826  17.998   0.453  0.00  0.00    -0.324 N 
ATOM     18  C   UNL     1     -33.966  18.914   1.077  0.00  0.00    +0.259 C 
ATOM     19  H   UNL     1     -34.549  17.061   0.340  0.00  0.00    +0.145 HD
ATOM     20  H   UNL     1     -35.707  18.294   0.128  0.00  0.00    +0.145 HD
ENDBRANCH   5  18
BRANCH   3  21
ATOM     21  N   UNL     1     -36.374  20.084   2.745  0.00  0.00    -0.305 NA
ATOM     22  H   UNL     1     -36.132  19.800   3.656  0.00  0.00    +0.120 HD
ATOM     23  H   UNL     1     -37.279  19.908   2.400  0.00  0.00    +0.120 HD
ENDBRANCH   3  21
TORSDOF 5
ENDMDL
MODEL 9
REMARK VINA RESULT:      -5.3      4.833      7.480
REMARK  Name = 54123053
REMARK  5 active torsions:
REMARK  status: ('A' for Active; 'I' for Inactive)
REMARK    1  A    between atoms: N_1  and  C_8
REMARK    2  A    between atoms: C_3  and  N_21
REMARK    3  A    between atoms: C_5  and  C_18
REMARK    4  A    between atoms: C_7  and  O_12
REMARK    5  A    between atoms: C_9  and  O_14
REMARK                            x       y       z     vdW  Elec       q    Type
REMARK                         _______ _______ _______ _____ _____    ______ ____
ROOT
ATOM      1  N   UNL     1     -36.632  23.620   2.103  0.00  0.00    -0.211 NA
ATOM      2  N   UNL     1     -37.573  22.822   0.256  0.00  0.00    -0.249 NA
ATOM      3  C   UNL     1     -36.700  22.266   2.272  0.00  0.00    +0.161 C 
ATOM      4  C   UNL     1     -37.168  23.908   0.879  0.00  0.00    +0.204 C 
ATOM      5  C   UNL     1     -37.284  21.795   1.120  0.00  0.00    +0.138 C 
ENDROOT
BRANCH   1   8
ATOM      6  O   UNL     1     -34.921  24.121   3.771  0.00  0.00    -0.338 OA
ATOM      7  C   UNL     1     -37.069  25.037   4.154  0.00  0.00    +0.183 C 
ATOM      8  C   UNL     1     -36.074  24.635   3.071  0.00  0.00    +0.208 C 
ATOM      9  C   UNL     1     -36.152  25.491   5.273  0.00  0.00    +0.168 C 
ATOM     10  C   UNL     1     -34.999  24.502   5.162  0.00  0.00    +0.146 C 
ATOM     11  C   UNL     1     -35.211  23.242   5.990  0.00  0.00    +0.035 C 
BRANCH   7  12
ATOM     12  O   UNL     1     -37.967  26.044   3.733  0.00  0.00    -0.378 OA
ATOM     13  H   UNL     1     -37.643  26.910   4.026  0.00  0.00    +0.211 HD
ENDBRANCH   7  12
BRANCH   9  14
ATOM     14  O   UNL     1     -35.642  26.795   4.999  0.00  0.00    -0.379 OA
ATOM     15  H   UNL     1     -35.749  27.355   5.784  0.00  0.00    +0.211 HD
ENDBRANCH   9  14
ENDBRANCH   1   8
BRANCH   5  18
ATOM     16  O   UNL     1     -38.459  20.105  -0.023  0.00  0.00    -0.269 OA
ATOM     17  N   UNL     1     -36.832  19.423   1.441  0.00  0.00    -0.324 N 
ATOM     18  C   UNL     1     -37.575  20.429   0.807  0.00  0.00    +0.259 C 
ATOM     19  H   UNL     1     -37.015  18.477   1.243  0.00  0.00    +0.145 HD
ATOM     20  H   UNL     1     -36.128  19.664   2.086  0.00  0.00    +0.145 HD
ENDBRANCH   5  18
BRANCH   3  21
ATOM     21  N   UNL     1     -36.247  21.661   3.390  0.00  0.00    -0.305 NA
ATOM     22  H   UNL     1     -35.280  21.542   3.528  0.00  0.00    +0.120 HD
ATOM     23  H   UNL     1     -36.884  21.338   4.068  0.00  0.00    +0.120 HD
ENDBRANCH   3  21
TORSDOF 5
ENDMDL
