MODEL 1
REMARK VINA RESULT:      -6.5      0.000      0.000
REMARK  Name = 191076
REMARK  12 active torsions:
REMARK  status: ('A' for Active; 'I' for Inactive)
REMARK    1  A    between atoms: C_2  and  O_7
REMARK    2  A    between atoms: C_3  and  O_9
REMARK    3  A    between atoms: C_4  and  C_25
REMARK    4  A    between atoms: C_5  and  O_11
REMARK    5  A    between atoms: C_6  and  O_13
REMARK    6  A    between atoms: O_13  and  C_14
REMARK    7  A    between atoms: C_15  and  O_20
REMARK    8  A    between atoms: C_19  and  C_22
REMARK    9  A    between atoms: C_22  and  O_23
REMARK   10  A    between atoms: C_25  and  O_26
REMARK   11  A    between atoms: O_26  and  C_28
REMARK   12  A    between atoms: C_28  and  C_29
REMARK                            x       y       z     vdW  Elec       q    Type
REMARK                         _______ _______ _______ _____ _____    ______ ____
ROOT
ATOM      1  O   UNL     1     -36.892  20.267   1.459  0.00  0.00    -0.315 OA
ATOM      2  C   UNL     1     -36.468  19.103  -0.624  0.00  0.00    +0.171 C 
ATOM      3  C   UNL     1     -34.963  19.168  -0.364  0.00  0.00    +0.173 C 
ATOM      4  C   UNL     1     -37.189  20.267   0.061  0.00  0.00    +0.192 C 
ATOM      5  C   UNL     1     -34.667  19.353   1.125  0.00  0.00    +0.210 C 
ATOM      6  C   UNL     1     -35.507  20.481   1.723  0.00  0.00    +0.318 C 
ENDROOT
BRANCH   2   7
ATOM      7  O   UNL     1     -36.706  19.164  -2.029  0.00  0.00    -0.379 OA
ATOM      8  H   UNL     1     -36.107  19.813  -2.429  0.00  0.00    +0.211 HD
ENDBRANCH   2   7
BRANCH   3   9
ATOM      9  O   UNL     1     -34.383  17.943  -0.815  0.00  0.00    -0.379 OA
ATOM     10  H   UNL     1     -33.910  17.520  -0.080  0.00  0.00    +0.211 HD
ENDBRANCH   3   9
BRANCH   5  11
ATOM     11  O   UNL     1     -33.289  19.682   1.297  0.00  0.00    -0.377 OA
ATOM     12  H   UNL     1     -33.038  20.369   0.660  0.00  0.00    +0.211 HD
ENDBRANCH   5  11
BRANCH   6  13
ATOM     13  O   UNL     1     -35.283  20.497   3.133  0.00  0.00    -0.447 OA
BRANCH  13  14
ATOM     14  C   UNL     1     -35.349  21.716   3.751  0.00  0.00    +0.175 C 
ATOM     15  C   UNL     1     -35.368  21.799   5.140  0.00  0.00    +0.168 C 
ATOM     16  C   UNL     1     -35.399  22.869   2.974  0.00  0.00    +0.040 C 
ATOM     17  C   UNL     1     -35.436  23.047   5.757  0.00  0.00    +0.038 C 
ATOM     18  C   UNL     1     -35.467  24.118   3.592  0.00  0.00    +0.001 C 
ATOM     19  C   UNL     1     -35.486  24.208   4.983  0.00  0.00    +0.010 C 
BRANCH  15  20
ATOM     20  O   UNL     1     -35.320  20.674   5.906  0.00  0.00    -0.503 OA
ATOM     21  H   UNL     1     -34.635  20.565   6.535  0.00  0.00    +0.292 HD
ENDBRANCH  15  20
BRANCH  19  22
ATOM     22  C   UNL     1     -35.558  25.543   5.645  0.00  0.00    +0.164 C 
BRANCH  22  23
ATOM     23  O   UNL     1     -36.746  26.209   5.235  0.00  0.00    -0.377 OA
ATOM     24  H   UNL     1     -37.388  25.557   4.913  0.00  0.00    +0.211 HD
ENDBRANCH  22  23
ENDBRANCH  19  22
ENDBRANCH  13  14
ENDBRANCH   6  13
BRANCH   4  25
ATOM     25  C   UNL     1     -38.704  20.158  -0.087  0.00  0.00    +0.241 C 
BRANCH  25  26
ATOM     26  O   UNL     1     -39.259  21.457  -0.004  0.00  0.00    -0.443 OA
BRANCH  26  28
ATOM     27  O   UNL     1     -40.385  21.180   1.984  0.00  0.00    -0.245 OA
ATOM     28  C   UNL     1     -39.699  21.849   1.226  0.00  0.00    +0.341 C 
BRANCH  28  29
ATOM     29  C   UNL     1     -39.238  23.224   1.543  0.00  0.00    +0.076 C 
ATOM     30  C   UNL     1     -39.648  23.809   2.724  0.00  0.00    +0.006 C 
ATOM     31  C   UNL     1     -38.412  23.873   0.649  0.00  0.00    +0.006 C 
ATOM     32  C   UNL     1     -39.214  25.101   3.022  0.00  0.00    +0.000 C 
ATOM     33  C   UNL     1     -37.978  25.165   0.947  0.00  0.00    +0.000 C 
ATOM     34  C   UNL     1     -38.380  25.779   2.134  0.00  0.00    +0.000 C 
ENDBRANCH  28  29
ENDBRANCH  26  28
ENDBRANCH  25  26
ENDBRANCH   4  25
TORSDOF 12
ENDMDL
MODEL 2
REMARK VINA RESULT:      -6.4      2.520      6.201
REMARK  Name = 191076
REMARK  12 active torsions:
REMARK  status: ('A' for Active; 'I' for Inactive)
REMARK    1  A    between atoms: C_2  and  O_7
REMARK    2  A    between atoms: C_3  and  O_9
REMARK    3  A    between atoms: C_4  and  C_25
REMARK    4  A    between atoms: C_5  and  O_11
REMARK    5  A    between atoms: C_6  and  O_13
REMARK    6  A    between atoms: O_13  and  C_14
REMARK    7  A    between atoms: C_15  and  O_20
REMARK    8  A    between atoms: C_19  and  C_22
REMARK    9  A    between atoms: C_22  and  O_23
REMARK   10  A    between atoms: C_25  and  O_26
REMARK   11  A    between atoms: O_26  and  C_28
REMARK   12  A    between atoms: C_28  and  C_29
REMARK                            x       y       z     vdW  Elec       q    Type
REMARK                         _______ _______ _______ _____ _____    ______ ____
ROOT
ATOM      1  O   UNL     1     -36.337  23.888   2.771  0.00  0.00    -0.315 OA
ATOM      2  C   UNL     1     -37.804  22.144   1.944  0.00  0.00    +0.171 C 
ATOM      3  C   UNL     1     -38.982  22.771   2.689  0.00  0.00    +0.173 C 
ATOM      4  C   UNL     1     -36.482  22.472   2.644  0.00  0.00    +0.192 C 
ATOM      5  C   UNL     1     -38.729  24.251   2.979  0.00  0.00    +0.210 C 
ATOM      6  C   UNL     1     -37.347  24.469   3.593  0.00  0.00    +0.318 C 
ENDROOT
BRANCH   2   7
ATOM      7  O   UNL     1     -37.974  20.730   1.899  0.00  0.00    -0.379 OA
ATOM      8  H   UNL     1     -38.910  20.521   1.753  0.00  0.00    +0.211 HD
ENDBRANCH   2   7
BRANCH   3   9
ATOM      9  O   UNL     1     -40.145  22.639   1.870  0.00  0.00    -0.379 OA
ATOM     10  H   UNL     1     -40.219  21.722   1.559  0.00  0.00    +0.211 HD
ENDBRANCH   3   9
BRANCH   5  11
ATOM     11  O   UNL     1     -39.708  24.727   3.902  0.00  0.00    -0.377 OA
ATOM     12  H   UNL     1     -40.518  24.961   3.422  0.00  0.00    +0.211 HD
ENDBRANCH   5  11
BRANCH   6  13
ATOM     13  O   UNL     1     -37.129  25.875   3.700  0.00  0.00    -0.447 OA
BRANCH  13  14
ATOM     14  C   UNL     1     -35.904  26.274   4.162  0.00  0.00    +0.175 C 
ATOM     15  C   UNL     1     -35.088  27.085   3.380  0.00  0.00    +0.168 C 
ATOM     16  C   UNL     1     -35.485  25.856   5.422  0.00  0.00    +0.040 C 
ATOM     17  C   UNL     1     -33.842  27.483   3.862  0.00  0.00    +0.038 C 
ATOM     18  C   UNL     1     -34.238  26.254   5.904  0.00  0.00    +0.001 C 
ATOM     19  C   UNL     1     -33.416  27.067   5.125  0.00  0.00    +0.010 C 
BRANCH  15  20
ATOM     20  O   UNL     1     -35.492  27.497   2.146  0.00  0.00    -0.503 OA
ATOM     21  H   UNL     1     -35.299  26.976   1.392  0.00  0.00    +0.292 HD
ENDBRANCH  15  20
BRANCH  19  22
ATOM     22  C   UNL     1     -32.083  27.494   5.640  0.00  0.00    +0.164 C 
BRANCH  22  23
ATOM     23  O   UNL     1     -31.947  27.085   6.995  0.00  0.00    -0.377 OA
ATOM     24  H   UNL     1     -32.820  27.068   7.417  0.00  0.00    +0.211 HD
ENDBRANCH  22  23
ENDBRANCH  19  22
ENDBRANCH  13  14
ENDBRANCH   6  13
BRANCH   4  25
ATOM     25  C   UNL     1     -35.282  21.956   1.854  0.00  0.00    +0.241 C 
BRANCH  25  26
ATOM     26  O   UNL     1     -35.039  20.613   2.231  0.00  0.00    -0.443 OA
BRANCH  26  28
ATOM     27  O   UNL     1     -35.836  19.198   0.600  0.00  0.00    -0.245 OA
ATOM     28  C   UNL     1     -34.914  19.714   1.214  0.00  0.00    +0.341 C 
BRANCH  28  29
ATOM     29  C   UNL     1     -33.485  19.424   0.933  0.00  0.00    +0.076 C 
ATOM     30  C   UNL     1     -32.933  18.257   1.422  0.00  0.00    +0.006 C 
ATOM     31  C   UNL     1     -32.754  20.328   0.191  0.00  0.00    +0.006 C 
ATOM     32  C   UNL     1     -31.591  17.985   1.158  0.00  0.00    +0.000 C 
ATOM     33  C   UNL     1     -31.412  20.056  -0.073  0.00  0.00    +0.000 C 
ATOM     34  C   UNL     1     -30.830  18.884   0.411  0.00  0.00    +0.000 C 
ENDBRANCH  28  29
ENDBRANCH  26  28
ENDBRANCH  25  26
ENDBRANCH   4  25
TORSDOF 12
ENDMDL
MODEL 3
REMARK VINA RESULT:      -6.1      2.798      7.230
REMARK  Name = 191076
REMARK  12 active torsions:
REMARK  status: ('A' for Active; 'I' for Inactive)
REMARK    1  A    between atoms: C_2  and  O_7
REMARK    2  A    between atoms: C_3  and  O_9
REMARK    3  A    between atoms: C_4  and  C_25
REMARK    4  A    between atoms: C_5  and  O_11
REMARK    5  A    between atoms: C_6  and  O_13
REMARK    6  A    between atoms: O_13  and  C_14
REMARK    7  A    between atoms: C_15  and  O_20
REMARK    8  A    between atoms: C_19  and  C_22
REMARK    9  A    between atoms: C_22  and  O_23
REMARK   10  A    between atoms: C_25  and  O_26
REMARK   11  A    between atoms: O_26  and  C_28
REMARK   12  A    between atoms: C_28  and  C_29
REMARK                            x       y       z     vdW  Elec       q    Type
REMARK                         _______ _______ _______ _____ _____    ______ ____
ROOT
ATOM      1  O   UNL     1     -35.747  26.667   3.244  0.00  0.00    -0.315 OA
ATOM      2  C   UNL     1     -34.029  28.377   3.191  0.00  0.00    +0.171 C 
ATOM      3  C   UNL     1     -34.646  28.968   1.923  0.00  0.00    +0.173 C 
ATOM      4  C   UNL     1     -34.335  26.880   3.297  0.00  0.00    +0.192 C 
ATOM      5  C   UNL     1     -36.118  28.575   1.788  0.00  0.00    +0.210 C 
ATOM      6  C   UNL     1     -36.315  27.075   2.001  0.00  0.00    +0.318 C 
ENDROOT
BRANCH   2   7
ATOM      7  O   UNL     1     -32.617  28.567   3.161  0.00  0.00    -0.379 OA
ATOM      8  H   UNL     1     -32.348  28.849   2.273  0.00  0.00    +0.211 HD
ENDBRANCH   2   7
BRANCH   3   9
ATOM      9  O   UNL     1     -34.538  30.390   2.000  0.00  0.00    -0.379 OA
ATOM     10  H   UNL     1     -33.682  30.669   1.637  0.00  0.00    +0.211 HD
ENDBRANCH   3   9
BRANCH   5  11
ATOM     11  O   UNL     1     -36.579  28.906   0.479  0.00  0.00    -0.377 OA
ATOM     12  H   UNL     1     -37.405  29.410   0.544  0.00  0.00    +0.211 HD
ENDBRANCH   5  11
BRANCH   6  13
ATOM     13  O   UNL     1     -37.717  26.811   2.004  0.00  0.00    -0.447 OA
BRANCH  13  14
ATOM     14  C   UNL     1     -38.098  25.512   1.804  0.00  0.00    +0.175 C 
ATOM     15  C   UNL     1     -38.359  24.681   2.889  0.00  0.00    +0.168 C 
ATOM     16  C   UNL     1     -38.219  25.032   0.503  0.00  0.00    +0.040 C 
ATOM     17  C   UNL     1     -38.745  23.359   2.672  0.00  0.00    +0.038 C 
ATOM     18  C   UNL     1     -38.605  23.710   0.286  0.00  0.00    +0.001 C 
ATOM     19  C   UNL     1     -38.868  22.873   1.370  0.00  0.00    +0.010 C 
BRANCH  15  20
ATOM     20  O   UNL     1     -38.242  25.144   4.165  0.00  0.00    -0.503 OA
ATOM     21  H   UNL     1     -38.014  26.040   4.319  0.00  0.00    +0.292 HD
ENDBRANCH  15  20
BRANCH  19  22
ATOM     22  C   UNL     1     -39.282  21.459   1.138  0.00  0.00    +0.164 C 
BRANCH  22  23
ATOM     23  O   UNL     1     -40.160  21.047   2.178  0.00  0.00    -0.377 OA
ATOM     24  H   UNL     1     -39.812  20.246   2.598  0.00  0.00    +0.211 HD
ENDBRANCH  22  23
ENDBRANCH  19  22
ENDBRANCH  13  14
ENDBRANCH   6  13
BRANCH   4  25
ATOM     25  C   UNL     1     -33.830  26.293   4.612  0.00  0.00    +0.241 C 
BRANCH  25  26
ATOM     26  O   UNL     1     -33.728  24.889   4.469  0.00  0.00    -0.443 OA
BRANCH  26  28
ATOM     27  O   UNL     1     -35.639  24.317   5.617  0.00  0.00    -0.245 OA
ATOM     28  C   UNL     1     -34.871  24.176   4.678  0.00  0.00    +0.341 C 
BRANCH  28  29
ATOM     29  C   UNL     1     -35.077  23.174   3.601  0.00  0.00    +0.076 C 
ATOM     30  C   UNL     1     -35.487  21.901   3.944  0.00  0.00    +0.006 C 
ATOM     31  C   UNL     1     -34.853  23.546   2.292  0.00  0.00    +0.006 C 
ATOM     32  C   UNL     1     -35.681  20.960   2.932  0.00  0.00    +0.000 C 
ATOM     33  C   UNL     1     -35.047  22.606   1.280  0.00  0.00    +0.000 C 
ATOM     34  C   UNL     1     -35.460  21.313   1.601  0.00  0.00    +0.000 C 
ENDBRANCH  28  29
ENDBRANCH  26  28
ENDBRANCH  25  26
ENDBRANCH   4  25
TORSDOF 12
ENDMDL
MODEL 4
REMARK VINA RESULT:      -6.1      2.409      6.919
REMARK  Name = 191076
REMARK  12 active torsions:
REMARK  status: ('A' for Active; 'I' for Inactive)
REMARK    1  A    between atoms: C_2  and  O_7
REMARK    2  A    between atoms: C_3  and  O_9
REMARK    3  A    between atoms: C_4  and  C_25
REMARK    4  A    between atoms: C_5  and  O_11
REMARK    5  A    between atoms: C_6  and  O_13
REMARK    6  A    between atoms: O_13  and  C_14
REMARK    7  A    between atoms: C_15  and  O_20
REMARK    8  A    between atoms: C_19  and  C_22
REMARK    9  A    between atoms: C_22  and  O_23
REMARK   10  A    between atoms: C_25  and  O_26
REMARK   11  A    between atoms: O_26  and  C_28
REMARK   12  A    between atoms: C_28  and  C_29
REMARK                            x       y       z     vdW  Elec       q    Type
REMARK                         _______ _______ _______ _____ _____    ______ ____
ROOT
ATOM      1  O   UNL     1     -35.991  24.402   2.814  0.00  0.00    -0.315 OA
ATOM      2  C   UNL     1     -33.863  25.218   3.639  0.00  0.00    +0.171 C 
ATOM      3  C   UNL     1     -34.587  26.133   4.626  0.00  0.00    +0.173 C 
ATOM      4  C   UNL     1     -34.734  24.947   2.409  0.00  0.00    +0.192 C 
ATOM      5  C   UNL     1     -36.004  25.631   4.908  0.00  0.00    +0.210 C 
ATOM      6  C   UNL     1     -36.748  25.308   3.613  0.00  0.00    +0.318 C 
ENDROOT
BRANCH   2   7
ATOM      7  O   UNL     1     -32.647  25.838   3.227  0.00  0.00    -0.379 OA
ATOM      8  H   UNL     1     -32.246  26.297   3.982  0.00  0.00    +0.211 HD
ENDBRANCH   2   7
BRANCH   3   9
ATOM      9  O   UNL     1     -33.838  26.152   5.843  0.00  0.00    -0.379 OA
ATOM     10  H   UNL     1     -32.937  25.832   5.672  0.00  0.00    +0.211 HD
ENDBRANCH   3   9
BRANCH   5  11
ATOM     11  O   UNL     1     -36.734  26.640   5.605  0.00  0.00    -0.377 OA
ATOM     12  H   UNL     1     -36.192  26.991   6.329  0.00  0.00    +0.211 HD
ENDBRANCH   5  11
BRANCH   6  13
ATOM     13  O   UNL     1     -37.998  24.714   3.960  0.00  0.00    -0.447 OA
BRANCH  13  14
ATOM     14  C   UNL     1     -38.668  24.065   2.959  0.00  0.00    +0.175 C 
ATOM     15  C   UNL     1     -38.338  22.754   2.628  0.00  0.00    +0.168 C 
ATOM     16  C   UNL     1     -39.680  24.732   2.275  0.00  0.00    +0.040 C 
ATOM     17  C   UNL     1     -39.028  22.104   1.606  0.00  0.00    +0.038 C 
ATOM     18  C   UNL     1     -40.370  24.081   1.252  0.00  0.00    +0.001 C 
ATOM     19  C   UNL     1     -40.044  22.767   0.917  0.00  0.00    +0.010 C 
BRANCH  15  20
ATOM     20  O   UNL     1     -37.348  22.096   3.293  0.00  0.00    -0.503 OA
ATOM     21  H   UNL     1     -37.496  21.227   3.612  0.00  0.00    +0.292 HD
ENDBRANCH  15  20
BRANCH  19  22
ATOM     22  C   UNL     1     -40.781  22.071  -0.177  0.00  0.00    +0.164 C 
BRANCH  22  23
ATOM     23  O   UNL     1     -41.160  20.772   0.262  0.00  0.00    -0.377 OA
ATOM     24  H   UNL     1     -41.541  20.278  -0.481  0.00  0.00    +0.211 HD
ENDBRANCH  22  23
ENDBRANCH  19  22
ENDBRANCH  13  14
ENDBRANCH   6  13
BRANCH   4  25
ATOM     25  C   UNL     1     -34.080  23.944   1.464  0.00  0.00    +0.241 C 
BRANCH  25  26
ATOM     26  O   UNL     1     -34.616  22.661   1.727  0.00  0.00    -0.443 OA
BRANCH  26  28
ATOM     27  O   UNL     1     -35.576  21.949  -0.240  0.00  0.00    -0.245 OA
ATOM     28  C   UNL     1     -34.752  21.831   0.654  0.00  0.00    +0.341 C 
BRANCH  28  29
ATOM     29  C   UNL     1     -33.755  20.732   0.701  0.00  0.00    +0.076 C 
ATOM     30  C   UNL     1     -34.052  19.592   1.422  0.00  0.00    +0.006 C 
ATOM     31  C   UNL     1     -32.564  20.882   0.023  0.00  0.00    +0.006 C 
ATOM     32  C   UNL     1     -33.115  18.560   1.466  0.00  0.00    +0.000 C 
ATOM     33  C   UNL     1     -31.627  19.850   0.066  0.00  0.00    +0.000 C 
ATOM     34  C   UNL     1     -31.902  18.689   0.789  0.00  0.00    +0.000 C 
ENDBRANCH  28  29
ENDBRANCH  26  28
ENDBRANCH  25  26
ENDBRANCH   4  25
TORSDOF 12
ENDMDL
MODEL 5
REMARK VINA RESULT:      -6.1      2.257      5.535
REMARK  Name = 191076
REMARK  12 active torsions:
REMARK  status: ('A' for Active; 'I' for Inactive)
REMARK    1  A    between atoms: C_2  and  O_7
REMARK    2  A    between atoms: C_3  and  O_9
REMARK    3  A    between atoms: C_4  and  C_25
REMARK    4  A    between atoms: C_5  and  O_11
REMARK    5  A    between atoms: C_6  and  O_13
REMARK    6  A    between atoms: O_13  and  C_14
REMARK    7  A    between atoms: C_15  and  O_20
REMARK    8  A    between atoms: C_19  and  C_22
REMARK    9  A    between atoms: C_22  and  O_23
REMARK   10  A    between atoms: C_25  and  O_26
REMARK   11  A    between atoms: O_26  and  C_28
REMARK   12  A    between atoms: C_28  and  C_29
REMARK                            x       y       z     vdW  Elec       q    Type
REMARK                         _______ _______ _______ _____ _____    ______ ____
ROOT
ATOM      1  O   UNL     1     -36.989  22.773   1.223  0.00  0.00    -0.315 OA
ATOM      2  C   UNL     1     -37.758  21.271  -0.516  0.00  0.00    +0.171 C 
ATOM      3  C   UNL     1     -38.825  20.713   0.426  0.00  0.00    +0.173 C 
ATOM      4  C   UNL     1     -36.557  21.797   0.274  0.00  0.00    +0.192 C 
ATOM      5  C   UNL     1     -39.144  21.703   1.547  0.00  0.00    +0.210 C 
ATOM      6  C   UNL     1     -37.869  22.229   2.205  0.00  0.00    +0.318 C 
ENDROOT
BRANCH   2   7
ATOM      7  O   UNL     1     -37.325  20.240  -1.400  0.00  0.00    -0.379 OA
ATOM      8  H   UNL     1     -37.511  19.374  -1.002  0.00  0.00    +0.211 HD
ENDBRANCH   2   7
BRANCH   3   9
ATOM      9  O   UNL     1     -40.005  20.465  -0.339  0.00  0.00    -0.379 OA
ATOM     10  H   UNL     1     -40.722  20.188   0.254  0.00  0.00    +0.211 HD
ENDBRANCH   3   9
BRANCH   5  11
ATOM     11  O   UNL     1     -39.926  21.050   2.547  0.00  0.00    -0.377 OA
ATOM     12  H   UNL     1     -40.213  21.699   3.209  0.00  0.00    +0.211 HD
ENDBRANCH   5  11
BRANCH   6  13
ATOM     13  O   UNL     1     -38.240  23.246   3.134  0.00  0.00    -0.447 OA
BRANCH  13  14
ATOM     14  C   UNL     1     -37.220  23.881   3.789  0.00  0.00    +0.175 C 
ATOM     15  C   UNL     1     -37.244  25.262   3.957  0.00  0.00    +0.168 C 
ATOM     16  C   UNL     1     -36.158  23.129   4.283  0.00  0.00    +0.040 C 
ATOM     17  C   UNL     1     -36.199  25.897   4.625  0.00  0.00    +0.038 C 
ATOM     18  C   UNL     1     -35.111  23.765   4.951  0.00  0.00    +0.001 C 
ATOM     19  C   UNL     1     -35.131  25.149   5.123  0.00  0.00    +0.010 C 
BRANCH  15  20
ATOM     20  O   UNL     1     -38.281  26.004   3.476  0.00  0.00    -0.503 OA
ATOM     21  H   UNL     1     -38.764  26.563   4.052  0.00  0.00    +0.292 HD
ENDBRANCH  15  20
BRANCH  19  22
ATOM     22  C   UNL     1     -34.013  25.829   5.838  0.00  0.00    +0.164 C 
BRANCH  22  23
ATOM     23  O   UNL     1     -33.849  27.142   5.317  0.00  0.00    -0.377 OA
ATOM     24  H   UNL     1     -33.623  27.750   6.038  0.00  0.00    +0.211 HD
ENDBRANCH  22  23
ENDBRANCH  19  22
ENDBRANCH  13  14
ENDBRANCH   6  13
BRANCH   4  25
ATOM     25  C   UNL     1     -35.530  22.464  -0.637  0.00  0.00    +0.241 C 
BRANCH  25  26
ATOM     26  O   UNL     1     -34.500  21.533  -0.913  0.00  0.00    -0.443 OA
BRANCH  26  28
ATOM     27  O   UNL     1     -32.770  22.824  -0.113  0.00  0.00    -0.245 OA
ATOM     28  C   UNL     1     -33.312  21.741  -0.277  0.00  0.00    +0.341 C 
BRANCH  28  29
ATOM     29  C   UNL     1     -32.735  20.460   0.204  0.00  0.00    +0.076 C 
ATOM     30  C   UNL     1     -31.442  20.135  -0.153  0.00  0.00    +0.006 C 
ATOM     31  C   UNL     1     -33.508  19.636   0.994  0.00  0.00    +0.006 C 
ATOM     32  C   UNL     1     -30.900  18.932   0.299  0.00  0.00    +0.000 C 
ATOM     33  C   UNL     1     -32.966  18.433   1.446  0.00  0.00    +0.000 C 
ATOM     34  C   UNL     1     -31.662  18.081   1.099  0.00  0.00    +0.000 C 
ENDBRANCH  28  29
ENDBRANCH  26  28
ENDBRANCH  25  26
ENDBRANCH   4  25
TORSDOF 12
ENDMDL
MODEL 6
REMARK VINA RESULT:      -6.0      3.346      6.460
REMARK  Name = 191076
REMARK  12 active torsions:
REMARK  status: ('A' for Active; 'I' for Inactive)
REMARK    1  A    between atoms: C_2  and  O_7
REMARK    2  A    between atoms: C_3  and  O_9
REMARK    3  A    between atoms: C_4  and  C_25
REMARK    4  A    between atoms: C_5  and  O_11
REMARK    5  A    between atoms: C_6  and  O_13
REMARK    6  A    between atoms: O_13  and  C_14
REMARK    7  A    between atoms: C_15  and  O_20
REMARK    8  A    between atoms: C_19  and  C_22
REMARK    9  A    between atoms: C_22  and  O_23
REMARK   10  A    between atoms: C_25  and  O_26
REMARK   11  A    between atoms: O_26  and  C_28
REMARK   12  A    between atoms: C_28  and  C_29
REMARK                            x       y       z     vdW  Elec       q    Type
REMARK                         _______ _______ _______ _____ _____    ______ ____
ROOT
ATOM      1  O   UNL     1     -34.954  23.337   1.539  0.00  0.00    -0.315 OA
ATOM      2  C   UNL     1     -35.361  20.968   1.225  0.00  0.00    +0.171 C 
ATOM      3  C   UNL     1     -35.746  20.831   2.698  0.00  0.00    +0.173 C 
ATOM      4  C   UNL     1     -34.385  22.131   1.025  0.00  0.00    +0.192 C 
ATOM      5  C   UNL     1     -36.180  22.176   3.283  0.00  0.00    +0.210 C 
ATOM      6  C   UNL     1     -35.179  23.279   2.945  0.00  0.00    +0.318 C 
ENDROOT
BRANCH   2   7
ATOM      7  O   UNL     1     -34.748  19.759   0.785  0.00  0.00    -0.379 OA
ATOM      8  H   UNL     1     -33.843  19.711   1.132  0.00  0.00    +0.211 HD
ENDBRANCH   2   7
BRANCH   3   9
ATOM      9  O   UNL     1     -36.828  19.902   2.788  0.00  0.00    -0.379 OA
ATOM     10  H   UNL     1     -36.810  19.311   2.018  0.00  0.00    +0.211 HD
ENDBRANCH   3   9
BRANCH   5  11
ATOM     11  O   UNL     1     -36.266  22.069   4.704  0.00  0.00    -0.377 OA
ATOM     12  H   UNL     1     -35.732  21.318   5.005  0.00  0.00    +0.211 HD
ENDBRANCH   5  11
BRANCH   6  13
ATOM     13  O   UNL     1     -35.721  24.520   3.397  0.00  0.00    -0.447 OA
BRANCH  13  14
ATOM     14  C   UNL     1     -34.858  25.372   4.030  0.00  0.00    +0.175 C 
ATOM     15  C   UNL     1     -34.104  26.283   3.296  0.00  0.00    +0.168 C 
ATOM     16  C   UNL     1     -34.741  25.315   5.416  0.00  0.00    +0.040 C 
ATOM     17  C   UNL     1     -33.228  27.146   3.953  0.00  0.00    +0.038 C 
ATOM     18  C   UNL     1     -33.864  26.178   6.074  0.00  0.00    +0.001 C 
ATOM     19  C   UNL     1     -33.107  27.093   5.343  0.00  0.00    +0.010 C 
BRANCH  15  20
ATOM     20  O   UNL     1     -34.213  26.344   1.939  0.00  0.00    -0.503 OA
ATOM     21  H   UNL     1     -33.442  26.348   1.408  0.00  0.00    +0.292 HD
ENDBRANCH  15  20
BRANCH  19  22
ATOM     22  C   UNL     1     -32.170  28.017   6.045  0.00  0.00    +0.164 C 
BRANCH  22  23
ATOM     23  O   UNL     1     -31.331  27.267   6.914  0.00  0.00    -0.377 OA
ATOM     24  H   UNL     1     -31.684  26.369   7.010  0.00  0.00    +0.211 HD
ENDBRANCH  22  23
ENDBRANCH  19  22
ENDBRANCH  13  14
ENDBRANCH   6  13
BRANCH   4  25
ATOM     25  C   UNL     1     -34.077  22.361  -0.452  0.00  0.00    +0.241 C 
BRANCH  25  26
ATOM     26  O   UNL     1     -33.118  21.406  -0.866  0.00  0.00    -0.443 OA
BRANCH  26  28
ATOM     27  O   UNL     1     -31.342  22.864  -0.733  0.00  0.00    -0.245 OA
ATOM     28  C   UNL     1     -31.810  21.738  -0.667  0.00  0.00    +0.341 C 
BRANCH  28  29
ATOM     29  C   UNL     1     -30.998  20.535  -0.356  0.00  0.00    +0.076 C 
ATOM     30  C   UNL     1     -31.591  19.482   0.310  0.00  0.00    +0.006 C 
ATOM     31  C   UNL     1     -29.674  20.505  -0.745  0.00  0.00    +0.006 C 
ATOM     32  C   UNL     1     -30.827  18.352   0.602  0.00  0.00    +0.000 C 
ATOM     33  C   UNL     1     -28.910  19.375  -0.454  0.00  0.00    +0.000 C 
ATOM     34  C   UNL     1     -29.487  18.299   0.220  0.00  0.00    +0.000 C 
ENDBRANCH  28  29
ENDBRANCH  26  28
ENDBRANCH  25  26
ENDBRANCH   4  25
TORSDOF 12
ENDMDL
MODEL 7
REMARK VINA RESULT:      -6.0      3.159      7.484
REMARK  Name = 191076
REMARK  12 active torsions:
REMARK  status: ('A' for Active; 'I' for Inactive)
REMARK    1  A    between atoms: C_2  and  O_7
REMARK    2  A    between atoms: C_3  and  O_9
REMARK    3  A    between atoms: C_4  and  C_25
REMARK    4  A    between atoms: C_5  and  O_11
REMARK    5  A    between atoms: C_6  and  O_13
REMARK    6  A    between atoms: O_13  and  C_14
REMARK    7  A    between atoms: C_15  and  O_20
REMARK    8  A    between atoms: C_19  and  C_22
REMARK    9  A    between atoms: C_22  and  O_23
REMARK   10  A    between atoms: C_25  and  O_26
REMARK   11  A    between atoms: O_26  and  C_28
REMARK   12  A    between atoms: C_28  and  C_29
REMARK                            x       y       z     vdW  Elec       q    Type
REMARK                         _______ _______ _______ _____ _____    ______ ____
ROOT
ATOM      1  O   UNL     1     -35.406  23.706   3.091  0.00  0.00    -0.315 OA
ATOM      2  C   UNL     1     -36.309  25.730   4.071  0.00  0.00    +0.171 C 
ATOM      3  C   UNL     1     -37.358  25.809   2.962  0.00  0.00    +0.173 C 
ATOM      4  C   UNL     1     -35.055  25.000   3.583  0.00  0.00    +0.192 C 
ATOM      5  C   UNL     1     -37.589  24.440   2.321  0.00  0.00    +0.210 C 
ATOM      6  C   UNL     1     -36.266  23.767   1.955  0.00  0.00    +0.318 C 
ENDROOT
BRANCH   2   7
ATOM      7  O   UNL     1     -35.956  27.049   4.481  0.00  0.00    -0.379 OA
ATOM      8  H   UNL     1     -35.403  27.003   5.277  0.00  0.00    +0.211 HD
ENDBRANCH   2   7
BRANCH   3   9
ATOM      9  O   UNL     1     -38.579  26.275   3.540  0.00  0.00    -0.379 OA
ATOM     10  H   UNL     1     -39.159  25.519   3.723  0.00  0.00    +0.211 HD
ENDBRANCH   3   9
BRANCH   5  11
ATOM     11  O   UNL     1     -38.355  24.599   1.127  0.00  0.00    -0.377 OA
ATOM     12  H   UNL     1     -38.605  23.727   0.784  0.00  0.00    +0.211 HD
ENDBRANCH   5  11
BRANCH   6  13
ATOM     13  O   UNL     1     -36.556  22.446   1.500  0.00  0.00    -0.447 OA
BRANCH  13  14
ATOM     14  C   UNL     1     -35.488  21.610   1.322  0.00  0.00    +0.175 C 
ATOM     15  C   UNL     1     -35.451  20.372   1.956  0.00  0.00    +0.168 C 
ATOM     16  C   UNL     1     -34.438  22.014   0.502  0.00  0.00    +0.040 C 
ATOM     17  C   UNL     1     -34.356  19.530   1.768  0.00  0.00    +0.038 C 
ATOM     18  C   UNL     1     -33.342  21.171   0.314  0.00  0.00    +0.001 C 
ATOM     19  C   UNL     1     -33.301  19.929   0.946  0.00  0.00    +0.010 C 
BRANCH  15  20
ATOM     20  O   UNL     1     -36.475  19.970   2.760  0.00  0.00    -0.503 OA
ATOM     21  H   UNL     1     -36.805  20.547   3.420  0.00  0.00    +0.292 HD
ENDBRANCH  15  20
BRANCH  19  22
ATOM     22  C   UNL     1     -32.130  19.027   0.745  0.00  0.00    +0.164 C 
BRANCH  22  23
ATOM     23  O   UNL     1     -32.264  17.886   1.582  0.00  0.00    -0.377 OA
ATOM     24  H   UNL     1     -31.810  18.047   2.424  0.00  0.00    +0.211 HD
ENDBRANCH  22  23
ENDBRANCH  19  22
ENDBRANCH  13  14
ENDBRANCH   6  13
BRANCH   4  25
ATOM     25  C   UNL     1     -34.041  24.807   4.706  0.00  0.00    +0.241 C 
BRANCH  25  26
ATOM     26  O   UNL     1     -33.625  26.080   5.162  0.00  0.00    -0.443 OA
BRANCH  26  28
ATOM     27  O   UNL     1     -32.213  26.302   3.357  0.00  0.00    -0.245 OA
ATOM     28  C   UNL     1     -32.720  26.736   4.380  0.00  0.00    +0.341 C 
BRANCH  28  29
ATOM     29  C   UNL     1     -32.411  28.078   4.936  0.00  0.00    +0.076 C 
ATOM     30  C   UNL     1     -32.013  28.179   6.254  0.00  0.00    +0.006 C 
ATOM     31  C   UNL     1     -32.530  29.182   4.118  0.00  0.00    +0.006 C 
ATOM     32  C   UNL     1     -31.722  29.439   6.775  0.00  0.00    +0.000 C 
ATOM     33  C   UNL     1     -32.239  30.442   4.639  0.00  0.00    +0.000 C 
ATOM     34  C   UNL     1     -31.836  30.571   5.968  0.00  0.00    +0.000 C 
ENDBRANCH  28  29
ENDBRANCH  26  28
ENDBRANCH  25  26
ENDBRANCH   4  25
TORSDOF 12
ENDMDL
MODEL 8
REMARK VINA RESULT:      -5.9      2.017      7.125
REMARK  Name = 191076
REMARK  12 active torsions:
REMARK  status: ('A' for Active; 'I' for Inactive)
REMARK    1  A    between atoms: C_2  and  O_7
REMARK    2  A    between atoms: C_3  and  O_9
REMARK    3  A    between atoms: C_4  and  C_25
REMARK    4  A    between atoms: C_5  and  O_11
REMARK    5  A    between atoms: C_6  and  O_13
REMARK    6  A    between atoms: O_13  and  C_14
REMARK    7  A    between atoms: C_15  and  O_20
REMARK    8  A    between atoms: C_19  and  C_22
REMARK    9  A    between atoms: C_22  and  O_23
REMARK   10  A    between atoms: C_25  and  O_26
REMARK   11  A    between atoms: O_26  and  C_28
REMARK   12  A    between atoms: C_28  and  C_29
REMARK                            x       y       z     vdW  Elec       q    Type
REMARK                         _______ _______ _______ _____ _____    ______ ____
ROOT
ATOM      1  O   UNL     1     -37.343  22.974   3.362  0.00  0.00    -0.315 OA
ATOM      2  C   UNL     1     -35.620  24.342   4.378  0.00  0.00    +0.171 C 
ATOM      3  C   UNL     1     -36.460  25.596   4.134  0.00  0.00    +0.173 C 
ATOM      4  C   UNL     1     -35.943  23.261   3.344  0.00  0.00    +0.192 C 
ATOM      5  C   UNL     1     -37.940  25.246   3.972  0.00  0.00    +0.210 C 
ATOM      6  C   UNL     1     -38.136  24.096   2.985  0.00  0.00    +0.318 C 
ENDROOT
BRANCH   2   7
ATOM      7  O   UNL     1     -34.237  24.678   4.291  0.00  0.00    -0.379 OA
ATOM      8  H   UNL     1     -33.990  24.791   3.360  0.00  0.00    +0.211 HD
ENDBRANCH   2   7
BRANCH   3   9
ATOM      9  O   UNL     1     -36.296  26.465   5.255  0.00  0.00    -0.379 OA
ATOM     10  H   UNL     1     -37.121  26.953   5.409  0.00  0.00    +0.211 HD
ENDBRANCH   3   9
BRANCH   5  11
ATOM     11  O   UNL     1     -38.644  26.385   3.479  0.00  0.00    -0.377 OA
ATOM     12  H   UNL     1     -38.009  27.053   3.175  0.00  0.00    +0.211 HD
ENDBRANCH   5  11
BRANCH   6  13
ATOM     13  O   UNL     1     -39.517  23.736   2.998  0.00  0.00    -0.447 OA
BRANCH  13  14
ATOM     14  C   UNL     1     -40.027  23.220   1.838  0.00  0.00    +0.175 C 
ATOM     15  C   UNL     1     -39.780  21.895   1.490  0.00  0.00    +0.168 C 
ATOM     16  C   UNL     1     -40.794  24.036   1.011  0.00  0.00    +0.040 C 
ATOM     17  C   UNL     1     -40.305  21.382   0.305  0.00  0.00    +0.038 C 
ATOM     18  C   UNL     1     -41.319  23.522  -0.175  0.00  0.00    +0.001 C 
ATOM     19  C   UNL     1     -41.074  22.195  -0.529  0.00  0.00    +0.010 C 
BRANCH  15  20
ATOM     20  O   UNL     1     -39.030  21.092   2.295  0.00  0.00    -0.503 OA
ATOM     21  H   UNL     1     -38.110  21.243   2.380  0.00  0.00    +0.292 HD
ENDBRANCH  15  20
BRANCH  19  22
ATOM     22  C   UNL     1     -41.636  21.644  -1.796  0.00  0.00    +0.164 C 
BRANCH  22  23
ATOM     23  O   UNL     1     -40.725  20.700  -2.345  0.00  0.00    -0.377 OA
ATOM     24  H   UNL     1     -41.218  19.949  -2.708  0.00  0.00    +0.211 HD
ENDBRANCH  22  23
ENDBRANCH  19  22
ENDBRANCH  13  14
ENDBRANCH   6  13
BRANCH   4  25
ATOM     25  C   UNL     1     -35.203  21.959   3.638  0.00  0.00    +0.241 C 
BRANCH  25  26
ATOM     26  O   UNL     1     -35.794  20.922   2.878  0.00  0.00    -0.443 OA
BRANCH  26  28
ATOM     27  O   UNL     1     -36.397  21.411   0.711  0.00  0.00    -0.245 OA
ATOM     28  C   UNL     1     -35.601  20.977   1.529  0.00  0.00    +0.341 C 
BRANCH  28  29
ATOM     29  C   UNL     1     -34.273  20.426   1.160  0.00  0.00    +0.076 C 
ATOM     30  C   UNL     1     -33.445  21.171   0.344  0.00  0.00    +0.006 C 
ATOM     31  C   UNL     1     -33.906  19.188   1.644  0.00  0.00    +0.006 C 
ATOM     32  C   UNL     1     -32.196  20.654  -0.002  0.00  0.00    +0.000 C 
ATOM     33  C   UNL     1     -32.657  18.670   1.298  0.00  0.00    +0.000 C 
ATOM     34  C   UNL     1     -31.803  19.404   0.474  0.00  0.00    +0.000 C 
ENDBRANCH  28  29
ENDBRANCH  26  28
ENDBRANCH  25  26
ENDBRANCH   4  25
TORSDOF 12
ENDMDL
MODEL 9
REMARK VINA RESULT:      -5.9      2.694      4.667
REMARK  Name = 191076
REMARK  12 active torsions:
REMARK  status: ('A' for Active; 'I' for Inactive)
REMARK    1  A    between atoms: C_2  and  O_7
REMARK    2  A    between atoms: C_3  and  O_9
REMARK    3  A    between atoms: C_4  and  C_25
REMARK    4  A    between atoms: C_5  and  O_11
REMARK    5  A    between atoms: C_6  and  O_13
REMARK    6  A    between atoms: O_13  and  C_14
REMARK    7  A    between atoms: C_15  and  O_20
REMARK    8  A    between atoms: C_19  and  C_22
REMARK    9  A    between atoms: C_22  and  O_23
REMARK   10  A    between atoms: C_25  and  O_26
REMARK   11  A    between atoms: O_26  and  C_28
REMARK   12  A    between atoms: C_28  and  C_29
REMARK                            x       y       z     vdW  Elec       q    Type
REMARK                         _______ _______ _______ _____ _____    ______ ____
ROOT
ATOM      1  O   UNL     1     -37.472  23.909   2.276  0.00  0.00    -0.315 OA
ATOM      2  C   UNL     1     -39.795  23.277   1.996  0.00  0.00    +0.171 C 
ATOM      3  C   UNL     1     -39.373  21.849   1.650  0.00  0.00    +0.173 C 
ATOM      4  C   UNL     1     -38.692  24.274   1.629  0.00  0.00    +0.192 C 
ATOM      5  C   UNL     1     -37.980  21.536   2.198  0.00  0.00    +0.210 C 
ATOM      6  C   UNL     1     -36.984  22.640   1.848  0.00  0.00    +0.318 C 
ENDROOT
BRANCH   2   7
ATOM      7  O   UNL     1     -40.983  23.605   1.278  0.00  0.00    -0.379 OA
ATOM      8  H   UNL     1     -41.658  22.929   1.447  0.00  0.00    +0.211 HD
ENDBRANCH   2   7
BRANCH   3   9
ATOM      9  O   UNL     1     -40.324  20.954   2.229  0.00  0.00    -0.379 OA
ATOM     10  H   UNL     1     -39.872  20.359   2.848  0.00  0.00    +0.211 HD
ENDBRANCH   3   9
BRANCH   5  11
ATOM     11  O   UNL     1     -37.512  20.313   1.630  0.00  0.00    -0.377 OA
ATOM     12  H   UNL     1     -37.086  20.494   0.778  0.00  0.00    +0.211 HD
ENDBRANCH   5  11
BRANCH   6  13
ATOM     13  O   UNL     1     -35.754  22.349   2.510  0.00  0.00    -0.447 OA
BRANCH  13  14
ATOM     14  C   UNL     1     -35.279  23.302   3.370  0.00  0.00    +0.175 C 
ATOM     15  C   UNL     1     -35.522  23.200   4.736  0.00  0.00    +0.168 C 
ATOM     16  C   UNL     1     -34.554  24.375   2.861  0.00  0.00    +0.040 C 
ATOM     17  C   UNL     1     -35.034  24.178   5.601  0.00  0.00    +0.038 C 
ATOM     18  C   UNL     1     -34.066  25.354   3.726  0.00  0.00    +0.001 C 
ATOM     19  C   UNL     1     -34.305  25.256   5.097  0.00  0.00    +0.010 C 
BRANCH  15  20
ATOM     20  O   UNL     1     -36.231  22.152   5.241  0.00  0.00    -0.503 OA
ATOM     21  H   UNL     1     -35.829  21.310   5.322  0.00  0.00    +0.292 HD
ENDBRANCH  15  20
BRANCH  19  22
ATOM     22  C   UNL     1     -33.783  26.302   6.023  0.00  0.00    +0.164 C 
BRANCH  22  23
ATOM     23  O   UNL     1     -33.353  27.428   5.269  0.00  0.00    -0.377 OA
ATOM     24  H   UNL     1     -33.692  27.360   4.363  0.00  0.00    +0.211 HD
ENDBRANCH  22  23
ENDBRANCH  19  22
ENDBRANCH  13  14
ENDBRANCH   6  13
BRANCH   4  25
ATOM     25  C   UNL     1     -39.042  25.691   2.071  0.00  0.00    +0.241 C 
BRANCH  25  26
ATOM     26  O   UNL     1     -37.840  26.411   2.272  0.00  0.00    -0.443 OA
BRANCH  26  28
ATOM     27  O   UNL     1     -38.337  27.964   0.648  0.00  0.00    -0.245 OA
ATOM     28  C   UNL     1     -37.533  27.349   1.332  0.00  0.00    +0.341 C 
BRANCH  28  29
ATOM     29  C   UNL     1     -36.064  27.539   1.230  0.00  0.00    +0.076 C 
ATOM     30  C   UNL     1     -35.362  26.820   0.283  0.00  0.00    +0.006 C 
ATOM     31  C   UNL     1     -35.446  28.428   2.083  0.00  0.00    +0.006 C 
ATOM     32  C   UNL     1     -33.982  26.999   0.187  0.00  0.00    +0.000 C 
ATOM     33  C   UNL     1     -34.066  28.608   1.988  0.00  0.00    +0.000 C 
ATOM     34  C   UNL     1     -33.334  27.892   1.040  0.00  0.00    +0.000 C 
ENDBRANCH  28  29
ENDBRANCH  26  28
ENDBRANCH  25  26
ENDBRANCH   4  25
TORSDOF 12
ENDMDL
