MODEL 1
REMARK VINA RESULT:      -5.3      0.000      0.000
REMARK  Name = 5490790
REMARK  7 active torsions:
REMARK  status: ('A' for Active; 'I' for Inactive)
REMARK    1  A    between atoms: C_3  and  C_9
REMARK    2  A    between atoms: C_7  and  C_12
REMARK    3  A    between atoms: C_9  and  O_10
REMARK    4  A    between atoms: C_12  and  N_14
REMARK    5  A    between atoms: N_14  and  P_16
REMARK    6  A    between atoms: P_16  and  O_18
REMARK    7  A    between atoms: P_16  and  O_20
REMARK                            x       y       z     vdW  Elec       q    Type
REMARK                         _______ _______ _______ _____ _____    ______ ____
ROOT
ATOM      1  O   UNL     1     -37.148  22.048   2.544  0.00  0.00    -0.273 OA
ATOM      2  N   UNL     1     -36.518  23.753   3.975  0.00  0.00    -0.270 N 
ATOM      3  C   UNL     1     -35.234  23.182   4.360  0.00  0.00    +0.175 C 
ATOM      4  C   UNL     1     -34.482  24.331   5.023  0.00  0.00    +0.033 C 
ATOM      5  C   UNL     1     -35.597  25.195   5.608  0.00  0.00    +0.024 C 
ATOM      6  C   UNL     1     -36.711  25.070   4.579  0.00  0.00    +0.094 C 
ATOM      7  C   UNL     1     -37.343  23.162   3.031  0.00  0.00    +0.241 C 
ENDROOT
BRANCH   3   9
ATOM      8  O   UNL     1     -35.870  22.224   6.486  0.00  0.00    -0.248 OA
ATOM      9  C   UNL     1     -35.517  22.071   5.327  0.00  0.00    +0.332 C 
BRANCH   9  10
ATOM     10  O   UNL     1     -35.326  20.865   4.739  0.00  0.00    -0.479 OA
ATOM     11  H   UNL     1     -34.462  20.509   4.672  0.00  0.00    +0.295 HD
ENDBRANCH   9  10
ENDBRANCH   3   9
BRANCH   7  12
ATOM     12  C   UNL     1     -38.546  23.973   2.621  0.00  0.00    +0.140 C 
ATOM     13  C   UNL     1     -39.681  23.051   2.220  0.00  0.00    +0.027 C 
BRANCH  12  14
ATOM     14  N   UNL     1     -38.132  24.807   1.506  0.00  0.00    -0.205 NA
ATOM     15  H   UNL     1     -37.113  24.843   1.527  0.00  0.00    +0.135 HD
BRANCH  14  16
ATOM     16  P   UNL     1     -38.664  26.372   1.399  0.00  0.00    +0.404 P 
ATOM     17  O   UNL     1     -39.146  26.832   0.049  0.00  0.00    -0.240 OA
BRANCH  16  18
ATOM     18  O   UNL     1     -39.795  26.566   2.548  0.00  0.00    -0.312 OA
ATOM     19  H   UNL     1     -39.625  25.948   3.277  0.00  0.00    +0.221 HD
ENDBRANCH  16  18
BRANCH  16  20
ATOM     20  O   UNL     1     -37.467  27.309   1.972  0.00  0.00    -0.312 OA
ATOM     21  H   UNL     1     -36.630  26.820   1.936  0.00  0.00    +0.221 HD
ENDBRANCH  16  20
ENDBRANCH  14  16
ENDBRANCH  12  14
ENDBRANCH   7  12
TORSDOF 7
ENDMDL
MODEL 2
REMARK VINA RESULT:      -5.3      2.982      4.492
REMARK  Name = 5490790
REMARK  7 active torsions:
REMARK  status: ('A' for Active; 'I' for Inactive)
REMARK    1  A    between atoms: C_3  and  C_9
REMARK    2  A    between atoms: C_7  and  C_12
REMARK    3  A    between atoms: C_9  and  O_10
REMARK    4  A    between atoms: C_12  and  N_14
REMARK    5  A    between atoms: N_14  and  P_16
REMARK    6  A    between atoms: P_16  and  O_18
REMARK    7  A    between atoms: P_16  and  O_20
REMARK                            x       y       z     vdW  Elec       q    Type
REMARK                         _______ _______ _______ _____ _____    ______ ____
ROOT
ATOM      1  O   UNL     1     -36.349  23.424   5.007  0.00  0.00    -0.273 OA
ATOM      2  N   UNL     1     -35.305  24.777   3.448  0.00  0.00    -0.270 N 
ATOM      3  C   UNL     1     -34.195  25.185   4.298  0.00  0.00    +0.175 C 
ATOM      4  C   UNL     1     -33.177  25.795   3.341  0.00  0.00    +0.033 C 
ATOM      5  C   UNL     1     -34.041  26.342   2.206  0.00  0.00    +0.024 C 
ATOM      6  C   UNL     1     -35.164  25.322   2.099  0.00  0.00    +0.094 C 
ATOM      7  C   UNL     1     -36.261  23.861   3.860  0.00  0.00    +0.241 C 
ENDROOT
BRANCH   3   9
ATOM      8  O   UNL     1     -35.871  26.635   5.264  0.00  0.00    -0.248 OA
ATOM      9  C   UNL     1     -34.729  26.201   5.264  0.00  0.00    +0.332 C 
BRANCH   9  10
ATOM     10  O   UNL     1     -33.768  26.578   6.141  0.00  0.00    -0.479 OA
ATOM     11  H   UNL     1     -33.404  25.953   6.736  0.00  0.00    +0.295 HD
ENDBRANCH   9  10
ENDBRANCH   3   9
BRANCH   7  12
ATOM     12  C   UNL     1     -37.235  23.417   2.798  0.00  0.00    +0.140 C 
ATOM     13  C   UNL     1     -38.556  24.141   2.970  0.00  0.00    +0.027 C 
BRANCH  12  14
ATOM     14  N   UNL     1     -37.402  21.982   2.953  0.00  0.00    -0.205 NA
ATOM     15  H   UNL     1     -37.648  21.818   3.928  0.00  0.00    +0.135 HD
BRANCH  14  16
ATOM     16  P   UNL     1     -36.147  20.959   2.598  0.00  0.00    +0.404 P 
ATOM     17  O   UNL     1     -35.203  21.398   1.511  0.00  0.00    -0.240 OA
BRANCH  16  18
ATOM     18  O   UNL     1     -35.373  20.660   3.993  0.00  0.00    -0.312 OA
ATOM     19  H   UNL     1     -35.075  21.497   4.384  0.00  0.00    +0.221 HD
ENDBRANCH  16  18
BRANCH  16  20
ATOM     20  O   UNL     1     -36.807  19.508   2.284  0.00  0.00    -0.312 OA
ATOM     21  H   UNL     1     -36.157  18.812   2.462  0.00  0.00    +0.221 HD
ENDBRANCH  16  20
ENDBRANCH  14  16
ENDBRANCH  12  14
ENDBRANCH   7  12
TORSDOF 7
ENDMDL
MODEL 3
REMARK VINA RESULT:      -5.2      2.918      5.178
REMARK  Name = 5490790
REMARK  7 active torsions:
REMARK  status: ('A' for Active; 'I' for Inactive)
REMARK    1  A    between atoms: C_3  and  C_9
REMARK    2  A    between atoms: C_7  and  C_12
REMARK    3  A    between atoms: C_9  and  O_10
REMARK    4  A    between atoms: C_12  and  N_14
REMARK    5  A    between atoms: N_14  and  P_16
REMARK    6  A    between atoms: P_16  and  O_18
REMARK    7  A    between atoms: P_16  and  O_20
REMARK                            x       y       z     vdW  Elec       q    Type
REMARK                         _______ _______ _______ _____ _____    ______ ____
ROOT
ATOM      1  O   UNL     1     -36.338  24.880   1.352  0.00  0.00    -0.273 OA
ATOM      2  N   UNL     1     -35.357  24.829   3.447  0.00  0.00    -0.270 N 
ATOM      3  C   UNL     1     -36.102  25.949   4.007  0.00  0.00    +0.175 C 
ATOM      4  C   UNL     1     -35.873  25.854   5.511  0.00  0.00    +0.033 C 
ATOM      5  C   UNL     1     -34.499  25.196   5.619  0.00  0.00    +0.024 C 
ATOM      6  C   UNL     1     -34.485  24.223   4.450  0.00  0.00    +0.094 C 
ATOM      7  C   UNL     1     -35.595  24.340   2.172  0.00  0.00    +0.241 C 
ENDROOT
BRANCH   3   9
ATOM      8  O   UNL     1     -34.474  27.724   3.805  0.00  0.00    -0.248 OA
ATOM      9  C   UNL     1     -35.514  27.203   3.432  0.00  0.00    +0.332 C 
BRANCH   9  10
ATOM     10  O   UNL     1     -36.297  27.687   2.438  0.00  0.00    -0.479 OA
ATOM     11  H   UNL     1     -36.361  27.226   1.626  0.00  0.00    +0.295 HD
ENDBRANCH   9  10
ENDBRANCH   3   9
BRANCH   7  12
ATOM     12  C   UNL     1     -34.863  23.071   1.817  0.00  0.00    +0.140 C 
ATOM     13  C   UNL     1     -34.177  23.226   0.474  0.00  0.00    +0.027 C 
BRANCH  12  14
ATOM     14  N   UNL     1     -35.855  22.009   1.777  0.00  0.00    -0.205 NA
ATOM     15  H   UNL     1     -36.698  22.377   2.217  0.00  0.00    +0.135 HD
BRANCH  14  16
ATOM     16  P   UNL     1     -35.537  20.551   2.498  0.00  0.00    +0.404 P 
ATOM     17  O   UNL     1     -34.355  19.781   1.972  0.00  0.00    -0.240 OA
BRANCH  16  18
ATOM     18  O   UNL     1     -35.424  20.828   4.094  0.00  0.00    -0.312 OA
ATOM     19  H   UNL     1     -36.261  21.195   4.419  0.00  0.00    +0.221 HD
ENDBRANCH  16  18
BRANCH  16  20
ATOM     20  O   UNL     1     -36.911  19.688   2.422  0.00  0.00    -0.312 OA
ATOM     21  H   UNL     1     -37.496  19.947   3.150  0.00  0.00    +0.221 HD
ENDBRANCH  16  20
ENDBRANCH  14  16
ENDBRANCH  12  14
ENDBRANCH   7  12
TORSDOF 7
ENDMDL
MODEL 4
REMARK VINA RESULT:      -5.1      2.461      3.843
REMARK  Name = 5490790
REMARK  7 active torsions:
REMARK  status: ('A' for Active; 'I' for Inactive)
REMARK    1  A    between atoms: C_3  and  C_9
REMARK    2  A    between atoms: C_7  and  C_12
REMARK    3  A    between atoms: C_9  and  O_10
REMARK    4  A    between atoms: C_12  and  N_14
REMARK    5  A    between atoms: N_14  and  P_16
REMARK    6  A    between atoms: P_16  and  O_18
REMARK    7  A    between atoms: P_16  and  O_20
REMARK                            x       y       z     vdW  Elec       q    Type
REMARK                         _______ _______ _______ _____ _____    ______ ____
ROOT
ATOM      1  O   UNL     1     -37.409  25.605   3.455  0.00  0.00    -0.273 OA
ATOM      2  N   UNL     1     -36.239  23.712   4.087  0.00  0.00    -0.270 N 
ATOM      3  C   UNL     1     -35.866  24.183   5.415  0.00  0.00    +0.175 C 
ATOM      4  C   UNL     1     -35.396  22.933   6.151  0.00  0.00    +0.033 C 
ATOM      5  C   UNL     1     -34.855  22.044   5.033  0.00  0.00    +0.024 C 
ATOM      6  C   UNL     1     -35.790  22.338   3.870  0.00  0.00    +0.094 C 
ATOM      7  C   UNL     1     -37.051  24.447   3.238  0.00  0.00    +0.241 C 
ENDROOT
BRANCH   3   9
ATOM      8  O   UNL     1     -33.601  24.889   4.953  0.00  0.00    -0.248 OA
ATOM      9  C   UNL     1     -34.755  25.174   5.236  0.00  0.00    +0.332 C 
BRANCH   9  10
ATOM     10  O   UNL     1     -35.203  26.436   5.436  0.00  0.00    -0.479 OA
ATOM     11  H   UNL     1     -35.556  26.927   4.720  0.00  0.00    +0.295 HD
ENDBRANCH   9  10
ENDBRANCH   3   9
BRANCH   7  12
ATOM     12  C   UNL     1     -37.483  23.740   1.979  0.00  0.00    +0.140 C 
ATOM     13  C   UNL     1     -37.689  24.745   0.863  0.00  0.00    +0.027 C 
BRANCH  12  14
ATOM     14  N   UNL     1     -38.720  23.044   2.290  0.00  0.00    -0.205 NA
ATOM     15  H   UNL     1     -38.720  22.878   3.296  0.00  0.00    +0.135 HD
BRANCH  14  16
ATOM     16  P   UNL     1     -39.058  21.592   1.567  0.00  0.00    +0.404 P 
ATOM     17  O   UNL     1     -39.168  21.594   0.065  0.00  0.00    -0.240 OA
BRANCH  16  18
ATOM     18  O   UNL     1     -37.947  20.531   2.094  0.00  0.00    -0.312 OA
ATOM     19  H   UNL     1     -37.061  20.837   1.840  0.00  0.00    +0.221 HD
ENDBRANCH  16  18
BRANCH  16  20
ATOM     20  O   UNL     1     -40.403  21.022   2.277  0.00  0.00    -0.312 OA
ATOM     21  H   UNL     1     -40.451  21.351   3.188  0.00  0.00    +0.221 HD
ENDBRANCH  16  20
ENDBRANCH  14  16
ENDBRANCH  12  14
ENDBRANCH   7  12
TORSDOF 7
ENDMDL
MODEL 5
REMARK VINA RESULT:      -5.1      2.972      4.810
REMARK  Name = 5490790
REMARK  7 active torsions:
REMARK  status: ('A' for Active; 'I' for Inactive)
REMARK    1  A    between atoms: C_3  and  C_9
REMARK    2  A    between atoms: C_7  and  C_12
REMARK    3  A    between atoms: C_9  and  O_10
REMARK    4  A    between atoms: C_12  and  N_14
REMARK    5  A    between atoms: N_14  and  P_16
REMARK    6  A    between atoms: P_16  and  O_18
REMARK    7  A    between atoms: P_16  and  O_20
REMARK                            x       y       z     vdW  Elec       q    Type
REMARK                         _______ _______ _______ _____ _____    ______ ____
ROOT
ATOM      1  O   UNL     1     -37.290  24.445   4.532  0.00  0.00    -0.273 OA
ATOM      2  N   UNL     1     -36.291  23.184   2.870  0.00  0.00    -0.270 N 
ATOM      3  C   UNL     1     -37.282  23.454   1.837  0.00  0.00    +0.175 C 
ATOM      4  C   UNL     1     -36.619  23.012   0.538  0.00  0.00    +0.033 C 
ATOM      5  C   UNL     1     -35.671  21.900   0.983  0.00  0.00    +0.024 C 
ATOM      6  C   UNL     1     -35.191  22.376   2.346  0.00  0.00    +0.094 C 
ATOM      7  C   UNL     1     -36.345  23.770   4.125  0.00  0.00    +0.241 C 
ENDROOT
BRANCH   3   9
ATOM      8  O   UNL     1     -38.564  21.412   2.019  0.00  0.00    -0.248 OA
ATOM      9  C   UNL     1     -38.490  22.624   2.156  0.00  0.00    +0.332 C 
BRANCH   9  10
ATOM     10  O   UNL     1     -39.498  23.404   2.617  0.00  0.00    -0.479 OA
ATOM     11  H   UNL     1     -40.370  23.278   2.300  0.00  0.00    +0.295 HD
ENDBRANCH   9  10
ENDBRANCH   3   9
BRANCH   7  12
ATOM     12  C   UNL     1     -35.149  23.522   5.009  0.00  0.00    +0.140 C 
ATOM     13  C   UNL     1     -35.429  22.365   5.948  0.00  0.00    +0.027 C 
BRANCH  12  14
ATOM     14  N   UNL     1     -34.910  24.749   5.749  0.00  0.00    -0.205 NA
ATOM     15  H   UNL     1     -35.818  25.076   6.079  0.00  0.00    +0.135 HD
BRANCH  14  16
ATOM     16  P   UNL     1     -34.180  26.037   5.005  0.00  0.00    +0.404 P 
ATOM     17  O   UNL     1     -33.232  25.719   3.880  0.00  0.00    -0.240 OA
BRANCH  16  18
ATOM     18  O   UNL     1     -35.364  27.045   4.537  0.00  0.00    -0.312 OA
ATOM     19  H   UNL     1     -35.063  27.566   3.775  0.00  0.00    +0.221 HD
ENDBRANCH  16  18
BRANCH  16  20
ATOM     20  O   UNL     1     -33.467  26.907   6.177  0.00  0.00    -0.312 OA
ATOM     21  H   UNL     1     -32.511  26.749   6.160  0.00  0.00    +0.221 HD
ENDBRANCH  16  20
ENDBRANCH  14  16
ENDBRANCH  12  14
ENDBRANCH   7  12
TORSDOF 7
ENDMDL
MODEL 6
REMARK VINA RESULT:      -4.9      3.005      5.145
REMARK  Name = 5490790
REMARK  7 active torsions:
REMARK  status: ('A' for Active; 'I' for Inactive)
REMARK    1  A    between atoms: C_3  and  C_9
REMARK    2  A    between atoms: C_7  and  C_12
REMARK    3  A    between atoms: C_9  and  O_10
REMARK    4  A    between atoms: C_12  and  N_14
REMARK    5  A    between atoms: N_14  and  P_16
REMARK    6  A    between atoms: P_16  and  O_18
REMARK    7  A    between atoms: P_16  and  O_20
REMARK                            x       y       z     vdW  Elec       q    Type
REMARK                         _______ _______ _______ _____ _____    ______ ____
ROOT
ATOM      1  O   UNL     1     -34.111  24.000   3.940  0.00  0.00    -0.273 OA
ATOM      2  N   UNL     1     -36.299  24.604   3.492  0.00  0.00    -0.270 N 
ATOM      3  C   UNL     1     -35.993  25.878   2.853  0.00  0.00    +0.175 C 
ATOM      4  C   UNL     1     -37.283  26.276   2.146  0.00  0.00    +0.033 C 
ATOM      5  C   UNL     1     -38.371  25.632   3.002  0.00  0.00    +0.024 C 
ATOM      6  C   UNL     1     -37.734  24.327   3.454  0.00  0.00    +0.094 C 
ATOM      7  C   UNL     1     -35.312  23.731   3.922  0.00  0.00    +0.241 C 
ENDROOT
BRANCH   3   9
ATOM      8  O   UNL     1     -35.662  26.594   5.138  0.00  0.00    -0.248 OA
ATOM      9  C   UNL     1     -35.634  26.844   3.942  0.00  0.00    +0.332 C 
BRANCH   9  10
ATOM     10  O   UNL     1     -35.274  28.041   3.420  0.00  0.00    -0.479 OA
ATOM     11  H   UNL     1     -34.704  28.608   3.900  0.00  0.00    +0.295 HD
ENDBRANCH   9  10
ENDBRANCH   3   9
BRANCH   7  12
ATOM     12  C   UNL     1     -35.799  22.385   4.398  0.00  0.00    +0.140 C 
ATOM     13  C   UNL     1     -35.576  22.251   5.891  0.00  0.00    +0.027 C 
BRANCH  12  14
ATOM     14  N   UNL     1     -35.045  21.382   3.665  0.00  0.00    -0.205 NA
ATOM     15  H   UNL     1     -34.155  21.809   3.410  0.00  0.00    +0.135 HD
BRANCH  14  16
ATOM     16  P   UNL     1     -35.673  20.722   2.280  0.00  0.00    +0.404 P 
ATOM     17  O   UNL     1     -36.038  21.682   1.180  0.00  0.00    -0.240 OA
BRANCH  16  18
ATOM     18  O   UNL     1     -34.621  19.591   1.778  0.00  0.00    -0.312 OA
ATOM     19  H   UNL     1     -34.937  18.714   2.046  0.00  0.00    +0.221 HD
ENDBRANCH  16  18
BRANCH  16  20
ATOM     20  O   UNL     1     -36.934  19.805   2.734  0.00  0.00    -0.312 OA
ATOM     21  H   UNL     1     -36.629  18.901   2.909  0.00  0.00    +0.221 HD
ENDBRANCH  16  20
ENDBRANCH  14  16
ENDBRANCH  12  14
ENDBRANCH   7  12
TORSDOF 7
ENDMDL
MODEL 7
REMARK VINA RESULT:      -4.9      2.911      4.202
REMARK  Name = 5490790
REMARK  7 active torsions:
REMARK  status: ('A' for Active; 'I' for Inactive)
REMARK    1  A    between atoms: C_3  and  C_9
REMARK    2  A    between atoms: C_7  and  C_12
REMARK    3  A    between atoms: C_9  and  O_10
REMARK    4  A    between atoms: C_12  and  N_14
REMARK    5  A    between atoms: N_14  and  P_16
REMARK    6  A    between atoms: P_16  and  O_18
REMARK    7  A    between atoms: P_16  and  O_20
REMARK                            x       y       z     vdW  Elec       q    Type
REMARK                         _______ _______ _______ _____ _____    ______ ____
ROOT
ATOM      1  O   UNL     1     -36.461  23.551   5.028  0.00  0.00    -0.273 OA
ATOM      2  N   UNL     1     -35.434  24.868   3.427  0.00  0.00    -0.270 N 
ATOM      3  C   UNL     1     -34.238  25.170   4.202  0.00  0.00    +0.175 C 
ATOM      4  C   UNL     1     -33.249  25.731   3.186  0.00  0.00    +0.033 C 
ATOM      5  C   UNL     1     -34.149  26.372   2.131  0.00  0.00    +0.024 C 
ATOM      6  C   UNL     1     -35.351  25.439   2.084  0.00  0.00    +0.094 C 
ATOM      7  C   UNL     1     -36.423  24.013   3.888  0.00  0.00    +0.241 C 
ENDROOT
BRANCH   3   9
ATOM      8  O   UNL     1     -33.893  26.603   6.118  0.00  0.00    -0.248 OA
ATOM      9  C   UNL     1     -34.623  26.194   5.228  0.00  0.00    +0.332 C 
BRANCH   9  10
ATOM     10  O   UNL     1     -35.899  26.606   5.036  0.00  0.00    -0.479 OA
ATOM     11  H   UNL     1     -36.343  27.084   5.708  0.00  0.00    +0.295 HD
ENDBRANCH   9  10
ENDBRANCH   3   9
BRANCH   7  12
ATOM     12  C   UNL     1     -37.502  23.671   2.891  0.00  0.00    +0.140 C 
ATOM     13  C   UNL     1     -38.756  24.470   3.190  0.00  0.00    +0.027 C 
BRANCH  12  14
ATOM     14  N   UNL     1     -37.750  22.245   3.011  0.00  0.00    -0.205 NA
ATOM     15  H   UNL     1     -37.322  21.944   3.886  0.00  0.00    +0.135 HD
BRANCH  14  16
ATOM     16  P   UNL     1     -37.214  21.208   1.835  0.00  0.00    +0.404 P 
ATOM     17  O   UNL     1     -38.165  20.918   0.705  0.00  0.00    -0.240 OA
BRANCH  16  18
ATOM     18  O   UNL     1     -35.795  21.792   1.302  0.00  0.00    -0.312 OA
ATOM     19  H   UNL     1     -35.892  22.734   1.088  0.00  0.00    +0.221 HD
ENDBRANCH  16  18
BRANCH  16  20
ATOM     20  O   UNL     1     -36.735  19.854   2.593  0.00  0.00    -0.312 OA
ATOM     21  H   UNL     1     -36.841  19.096   1.998  0.00  0.00    +0.221 HD
ENDBRANCH  16  20
ENDBRANCH  14  16
ENDBRANCH  12  14
ENDBRANCH   7  12
TORSDOF 7
ENDMDL
MODEL 8
REMARK VINA RESULT:      -4.8      2.513      4.125
REMARK  Name = 5490790
REMARK  7 active torsions:
REMARK  status: ('A' for Active; 'I' for Inactive)
REMARK    1  A    between atoms: C_3  and  C_9
REMARK    2  A    between atoms: C_7  and  C_12
REMARK    3  A    between atoms: C_9  and  O_10
REMARK    4  A    between atoms: C_12  and  N_14
REMARK    5  A    between atoms: N_14  and  P_16
REMARK    6  A    between atoms: P_16  and  O_18
REMARK    7  A    between atoms: P_16  and  O_20
REMARK                            x       y       z     vdW  Elec       q    Type
REMARK                         _______ _______ _______ _____ _____    ______ ____
ROOT
ATOM      1  O   UNL     1     -36.018  24.969   5.699  0.00  0.00    -0.273 OA
ATOM      2  N   UNL     1     -35.434  23.954   3.704  0.00  0.00    -0.270 N 
ATOM      3  C   UNL     1     -36.340  22.819   3.823  0.00  0.00    +0.175 C 
ATOM      4  C   UNL     1     -36.383  22.208   2.426  0.00  0.00    +0.033 C 
ATOM      5  C   UNL     1     -35.012  22.552   1.847  0.00  0.00    +0.024 C 
ATOM      6  C   UNL     1     -34.722  23.927   2.428  0.00  0.00    +0.094 C 
ATOM      7  C   UNL     1     -35.403  24.982   4.632  0.00  0.00    +0.241 C 
ENDROOT
BRANCH   3   9
ATOM      8  O   UNL     1     -34.992  20.949   4.552  0.00  0.00    -0.248 OA
ATOM      9  C   UNL     1     -35.739  21.877   4.823  0.00  0.00    +0.332 C 
BRANCH   9  10
ATOM     10  O   UNL     1     -36.141  22.193   6.078  0.00  0.00    -0.479 OA
ATOM     11  H   UNL     1     -36.550  21.544   6.616  0.00  0.00    +0.295 HD
ENDBRANCH   9  10
ENDBRANCH   3   9
BRANCH   7  12
ATOM     12  C   UNL     1     -34.538  26.161   4.266  0.00  0.00    +0.140 C 
ATOM     13  C   UNL     1     -33.652  26.538   5.437  0.00  0.00    +0.027 C 
BRANCH  12  14
ATOM     14  N   UNL     1     -35.434  27.250   3.918  0.00  0.00    -0.205 NA
ATOM     15  H   UNL     1     -36.299  26.825   3.585  0.00  0.00    +0.135 HD
BRANCH  14  16
ATOM     16  P   UNL     1     -34.981  28.366   2.780  0.00  0.00    +0.404 P 
ATOM     17  O   UNL     1     -34.209  29.560   3.275  0.00  0.00    -0.240 OA
BRANCH  16  18
ATOM     18  O   UNL     1     -34.178  27.559   1.622  0.00  0.00    -0.312 OA
ATOM     19  H   UNL     1     -33.256  27.432   1.895  0.00  0.00    +0.221 HD
ENDBRANCH  16  18
BRANCH  16  20
ATOM     20  O   UNL     1     -36.332  28.797   1.989  0.00  0.00    -0.312 OA
ATOM     21  H   UNL     1     -36.255  29.719   1.697  0.00  0.00    +0.221 HD
ENDBRANCH  16  20
ENDBRANCH  14  16
ENDBRANCH  12  14
ENDBRANCH   7  12
TORSDOF 7
ENDMDL
MODEL 9
REMARK VINA RESULT:      -4.8      2.048      2.899
REMARK  Name = 5490790
REMARK  7 active torsions:
REMARK  status: ('A' for Active; 'I' for Inactive)
REMARK    1  A    between atoms: C_3  and  C_9
REMARK    2  A    between atoms: C_7  and  C_12
REMARK    3  A    between atoms: C_9  and  O_10
REMARK    4  A    between atoms: C_12  and  N_14
REMARK    5  A    between atoms: N_14  and  P_16
REMARK    6  A    between atoms: P_16  and  O_18
REMARK    7  A    between atoms: P_16  and  O_20
REMARK                            x       y       z     vdW  Elec       q    Type
REMARK                         _______ _______ _______ _____ _____    ______ ____
ROOT
ATOM      1  O   UNL     1     -37.130  24.705   4.861  0.00  0.00    -0.273 OA
ATOM      2  N   UNL     1     -36.062  23.482   3.212  0.00  0.00    -0.270 N 
ATOM      3  C   UNL     1     -36.227  22.177   3.840  0.00  0.00    +0.175 C 
ATOM      4  C   UNL     1     -35.915  21.174   2.735  0.00  0.00    +0.033 C 
ATOM      5  C   UNL     1     -34.927  21.923   1.844  0.00  0.00    +0.024 C 
ATOM      6  C   UNL     1     -35.423  23.360   1.904  0.00  0.00    +0.094 C 
ATOM      7  C   UNL     1     -36.599  24.640   3.752  0.00  0.00    +0.241 C 
ENDROOT
BRANCH   3   9
ATOM      8  O   UNL     1     -34.492  23.003   5.305  0.00  0.00    -0.248 OA
ATOM      9  C   UNL     1     -35.235  22.097   4.961  0.00  0.00    +0.332 C 
BRANCH   9  10
ATOM     10  O   UNL     1     -35.270  20.874   5.545  0.00  0.00    -0.479 OA
ATOM     11  H   UNL     1     -34.590  20.617   6.135  0.00  0.00    +0.295 HD
ENDBRANCH   9  10
ENDBRANCH   3   9
BRANCH   7  12
ATOM     12  C   UNL     1     -36.487  25.871   2.888  0.00  0.00    +0.140 C 
ATOM     13  C   UNL     1     -35.384  26.771   3.408  0.00  0.00    +0.027 C 
BRANCH  12  14
ATOM     14  N   UNL     1     -37.775  26.540   2.938  0.00  0.00    -0.205 NA
ATOM     15  H   UNL     1     -37.952  26.765   3.917  0.00  0.00    +0.135 HD
BRANCH  14  16
ATOM     16  P   UNL     1     -39.131  25.773   2.372  0.00  0.00    +0.404 P 
ATOM     17  O   UNL     1     -38.921  24.724   1.313  0.00  0.00    -0.240 OA
BRANCH  16  18
ATOM     18  O   UNL     1     -39.915  25.184   3.666  0.00  0.00    -0.312 OA
ATOM     19  H   UNL     1     -39.672  24.254   3.796  0.00  0.00    +0.221 HD
ENDBRANCH  16  18
BRANCH  16  20
ATOM     20  O   UNL     1     -40.152  26.938   1.884  0.00  0.00    -0.312 OA
ATOM     21  H   UNL     1     -39.683  27.786   1.850  0.00  0.00    +0.221 HD
ENDBRANCH  16  20
ENDBRANCH  14  16
ENDBRANCH  12  14
ENDBRANCH   7  12
TORSDOF 7
ENDMDL
