MODEL 1
REMARK VINA RESULT:      -5.1      0.000      0.000
REMARK  Name = 189928
REMARK  8 active torsions:
REMARK  status: ('A' for Active; 'I' for Inactive)
REMARK    1  A    between atoms: N_1  and  C_11
REMARK    2  A    between atoms: C_4  and  C_8
REMARK    3  A    between atoms: C_11  and  O_12
REMARK    4  A    between atoms: C_11  and  C_17
REMARK    5  A    between atoms: O_12  and  C_13
REMARK    6  A    between atoms: C_13  and  C_14
REMARK    7  A    between atoms: C_14  and  O_15
REMARK    8  A    between atoms: C_17  and  O_18
REMARK                            x       y       z     vdW  Elec       q    Type
REMARK                         _______ _______ _______ _____ _____    ______ ____
ROOT
ATOM      1  N   UNL     1     -35.784  22.292   4.177  0.00  0.00    -0.161 N 
ATOM      2  N   UNL     1     -35.286  21.246   4.825  0.00  0.00    -0.152 NA
ATOM      3  N   UNL     1     -35.240  23.161   6.078  0.00  0.00    -0.202 NA
ATOM      4  C   UNL     1     -35.764  23.423   4.903  0.00  0.00    +0.208 C 
ATOM      5  C   UNL     1     -34.966  21.826   5.985  0.00  0.00    +0.219 C 
ENDROOT
BRANCH   4   8
ATOM      6  O   UNL     1     -35.466  25.700   4.292  0.00  0.00    -0.267 OA
ATOM      7  N   UNL     1     -37.598  24.931   4.402  0.00  0.00    -0.323 N 
ATOM      8  C   UNL     1     -36.216  24.718   4.519  0.00  0.00    +0.276 C 
ATOM      9  H   UNL     1     -37.939  25.817   4.138  0.00  0.00    +0.145 HD
ATOM     10  H   UNL     1     -38.227  24.196   4.584  0.00  0.00    +0.145 HD
ENDBRANCH   4   8
BRANCH   1  11
ATOM     11  C   UNL     1     -36.282  22.122   2.805  0.00  0.00    +0.243 C 
BRANCH  11  12
ATOM     12  O   UNL     1     -37.707  22.270   2.799  0.00  0.00    -0.332 OA
BRANCH  12  13
ATOM     13  C   UNL     1     -38.222  22.657   1.531  0.00  0.00    +0.176 C 
BRANCH  13  14
ATOM     14  C   UNL     1     -39.434  21.805   1.207  0.00  0.00    +0.169 C 
BRANCH  14  15
ATOM     15  O   UNL     1     -39.649  20.882   2.268  0.00  0.00    -0.379 OA
ATOM     16  H   UNL     1     -39.055  21.094   3.005  0.00  0.00    +0.211 HD
ENDBRANCH  14  15
ENDBRANCH  13  14
ENDBRANCH  12  13
ENDBRANCH  11  12
BRANCH  11  17
ATOM     17  C   UNL     1     -35.939  20.741   2.246  0.00  0.00    +0.190 C 
BRANCH  17  18
ATOM     18  O   UNL     1     -36.855  19.763   2.715  0.00  0.00    -0.378 OA
ATOM     19  H   UNL     1     -37.296  20.089   3.515  0.00  0.00    +0.211 HD
ENDBRANCH  17  18
ENDBRANCH  11  17
ENDBRANCH   1  11
TORSDOF 8
ENDMDL
MODEL 2
REMARK VINA RESULT:      -4.9      2.247      4.819
REMARK  Name = 189928
REMARK  8 active torsions:
REMARK  status: ('A' for Active; 'I' for Inactive)
REMARK    1  A    between atoms: N_1  and  C_11
REMARK    2  A    between atoms: C_4  and  C_8
REMARK    3  A    between atoms: C_11  and  O_12
REMARK    4  A    between atoms: C_11  and  C_17
REMARK    5  A    between atoms: O_12  and  C_13
REMARK    6  A    between atoms: C_13  and  C_14
REMARK    7  A    between atoms: C_14  and  O_15
REMARK    8  A    between atoms: C_17  and  O_18
REMARK                            x       y       z     vdW  Elec       q    Type
REMARK                         _______ _______ _______ _____ _____    ______ ____
ROOT
ATOM      1  N   UNL     1     -37.245  23.145   3.006  0.00  0.00    -0.161 N 
ATOM      2  N   UNL     1     -38.518  23.513   2.941  0.00  0.00    -0.152 NA
ATOM      3  N   UNL     1     -38.131  21.500   1.924  0.00  0.00    -0.202 NA
ATOM      4  C   UNL     1     -37.004  21.963   2.412  0.00  0.00    +0.208 C 
ATOM      5  C   UNL     1     -39.024  22.475   2.270  0.00  0.00    +0.219 C 
ENDROOT
BRANCH   4   8
ATOM      6  O   UNL     1     -35.343  20.413   3.105  0.00  0.00    -0.267 OA
ATOM      7  N   UNL     1     -34.924  21.599   1.217  0.00  0.00    -0.323 N 
ATOM      8  C   UNL     1     -35.761  21.278   2.296  0.00  0.00    +0.276 C 
ATOM      9  H   UNL     1     -34.058  21.141   1.111  0.00  0.00    +0.145 HD
ATOM     10  H   UNL     1     -35.201  22.281   0.564  0.00  0.00    +0.145 HD
ENDBRANCH   4   8
BRANCH   1  11
ATOM     11  C   UNL     1     -36.274  24.016   3.682  0.00  0.00    +0.243 C 
BRANCH  11  12
ATOM     12  O   UNL     1     -36.311  23.760   5.091  0.00  0.00    -0.332 OA
BRANCH  12  13
ATOM     13  C   UNL     1     -35.114  23.169   5.582  0.00  0.00    +0.176 C 
BRANCH  13  14
ATOM     14  C   UNL     1     -35.472  22.024   6.510  0.00  0.00    +0.169 C 
BRANCH  14  15
ATOM     15  O   UNL     1     -35.365  20.798   5.796  0.00  0.00    -0.379 OA
ATOM     16  H   UNL     1     -36.253  20.473   5.579  0.00  0.00    +0.211 HD
ENDBRANCH  14  15
ENDBRANCH  13  14
ENDBRANCH  12  13
ENDBRANCH  11  12
BRANCH  11  17
ATOM     17  C   UNL     1     -36.585  25.495   3.453  0.00  0.00    +0.190 C 
BRANCH  17  18
ATOM     18  O   UNL     1     -37.478  25.983   4.444  0.00  0.00    -0.378 OA
ATOM     19  H   UNL     1     -38.248  26.387   4.015  0.00  0.00    +0.211 HD
ENDBRANCH  17  18
ENDBRANCH  11  17
ENDBRANCH   1  11
TORSDOF 8
ENDMDL
MODEL 3
REMARK VINA RESULT:      -4.8      2.521      4.249
REMARK  Name = 189928
REMARK  8 active torsions:
REMARK  status: ('A' for Active; 'I' for Inactive)
REMARK    1  A    between atoms: N_1  and  C_11
REMARK    2  A    between atoms: C_4  and  C_8
REMARK    3  A    between atoms: C_11  and  O_12
REMARK    4  A    between atoms: C_11  and  C_17
REMARK    5  A    between atoms: O_12  and  C_13
REMARK    6  A    between atoms: C_13  and  C_14
REMARK    7  A    between atoms: C_14  and  O_15
REMARK    8  A    between atoms: C_17  and  O_18
REMARK                            x       y       z     vdW  Elec       q    Type
REMARK                         _______ _______ _______ _____ _____    ______ ____
ROOT
ATOM      1  N   UNL     1     -36.172  22.838   3.901  0.00  0.00    -0.161 N 
ATOM      2  N   UNL     1     -35.796  21.646   3.454  0.00  0.00    -0.152 NA
ATOM      3  N   UNL     1     -37.337  22.651   2.092  0.00  0.00    -0.202 NA
ATOM      4  C   UNL     1     -37.077  23.439   3.109  0.00  0.00    +0.208 C 
ATOM      5  C   UNL     1     -36.536  21.573   2.344  0.00  0.00    +0.219 C 
ENDROOT
BRANCH   4   8
ATOM      6  O   UNL     1     -37.174  25.808   2.950  0.00  0.00    -0.267 OA
ATOM      7  N   UNL     1     -38.948  24.764   3.905  0.00  0.00    -0.323 N 
ATOM      8  C   UNL     1     -37.689  24.713   3.288  0.00  0.00    +0.276 C 
ATOM      9  H   UNL     1     -39.395  25.631   4.041  0.00  0.00    +0.145 HD
ATOM     10  H   UNL     1     -39.385  23.934   4.201  0.00  0.00    +0.145 HD
ENDBRANCH   4   8
BRANCH   1  11
ATOM     11  C   UNL     1     -35.595  23.358   5.148  0.00  0.00    +0.243 C 
BRANCH  11  12
ATOM     12  O   UNL     1     -34.238  23.750   4.914  0.00  0.00    -0.332 OA
BRANCH  12  13
ATOM     13  C   UNL     1     -34.105  25.124   4.575  0.00  0.00    +0.176 C 
BRANCH  13  14
ATOM     14  C   UNL     1     -34.778  25.966   5.642  0.00  0.00    +0.169 C 
BRANCH  14  15
ATOM     15  O   UNL     1     -35.593  26.947   5.013  0.00  0.00    -0.379 OA
ATOM     16  H   UNL     1     -35.138  27.290   4.228  0.00  0.00    +0.211 HD
ENDBRANCH  14  15
ENDBRANCH  13  14
ENDBRANCH  12  13
ENDBRANCH  11  12
BRANCH  11  17
ATOM     17  C   UNL     1     -35.608  22.306   6.258  0.00  0.00    +0.190 C 
BRANCH  17  18
ATOM     18  O   UNL     1     -34.524  21.402   6.110  0.00  0.00    -0.378 OA
ATOM     19  H   UNL     1     -34.783  20.528   6.441  0.00  0.00    +0.211 HD
ENDBRANCH  17  18
ENDBRANCH  11  17
ENDBRANCH   1  11
TORSDOF 8
ENDMDL
MODEL 4
REMARK VINA RESULT:      -4.7      2.292      4.394
REMARK  Name = 189928
REMARK  8 active torsions:
REMARK  status: ('A' for Active; 'I' for Inactive)
REMARK    1  A    between atoms: N_1  and  C_11
REMARK    2  A    between atoms: C_4  and  C_8
REMARK    3  A    between atoms: C_11  and  O_12
REMARK    4  A    between atoms: C_11  and  C_17
REMARK    5  A    between atoms: O_12  and  C_13
REMARK    6  A    between atoms: C_13  and  C_14
REMARK    7  A    between atoms: C_14  and  O_15
REMARK    8  A    between atoms: C_17  and  O_18
REMARK                            x       y       z     vdW  Elec       q    Type
REMARK                         _______ _______ _______ _____ _____    ______ ____
ROOT
ATOM      1  N   UNL     1     -36.019  22.842   4.248  0.00  0.00    -0.161 N 
ATOM      2  N   UNL     1     -35.869  23.182   5.522  0.00  0.00    -0.152 NA
ATOM      3  N   UNL     1     -35.178  21.043   5.095  0.00  0.00    -0.202 NA
ATOM      4  C   UNL     1     -35.616  21.588   3.984  0.00  0.00    +0.208 C 
ATOM      5  C   UNL     1     -35.350  22.049   6.003  0.00  0.00    +0.219 C 
ENDROOT
BRANCH   4   8
ATOM      6  O   UNL     1     -34.786  21.058   1.821  0.00  0.00    -0.267 OA
ATOM      7  N   UNL     1     -36.690  20.014   2.481  0.00  0.00    -0.323 N 
ATOM      8  C   UNL     1     -35.637  20.906   2.734  0.00  0.00    +0.276 C 
ATOM      9  H   UNL     1     -36.730  19.529   1.624  0.00  0.00    +0.145 HD
ATOM     10  H   UNL     1     -37.389  19.873   3.159  0.00  0.00    +0.145 HD
ENDBRANCH   4   8
BRANCH   1  11
ATOM     11  C   UNL     1     -36.581  23.816   3.301  0.00  0.00    +0.243 C 
BRANCH  11  12
ATOM     12  O   UNL     1     -35.531  24.329   2.473  0.00  0.00    -0.332 OA
BRANCH  12  13
ATOM     13  C   UNL     1     -35.032  25.584   2.917  0.00  0.00    +0.176 C 
BRANCH  13  14
ATOM     14  C   UNL     1     -33.581  25.423   3.329  0.00  0.00    +0.169 C 
BRANCH  14  15
ATOM     15  O   UNL     1     -33.525  25.118   4.717  0.00  0.00    -0.379 OA
ATOM     16  H   UNL     1     -32.870  24.418   4.867  0.00  0.00    +0.211 HD
ENDBRANCH  14  15
ENDBRANCH  13  14
ENDBRANCH  12  13
ENDBRANCH  11  12
BRANCH  11  17
ATOM     17  C   UNL     1     -37.242  24.991   4.023  0.00  0.00    +0.190 C 
BRANCH  17  18
ATOM     18  O   UNL     1     -38.654  24.843   4.041  0.00  0.00    -0.378 OA
ATOM     19  H   UNL     1     -39.044  25.518   4.618  0.00  0.00    +0.211 HD
ENDBRANCH  17  18
ENDBRANCH  11  17
ENDBRANCH   1  11
TORSDOF 8
ENDMDL
MODEL 5
REMARK VINA RESULT:      -4.6      0.978      1.511
REMARK  Name = 189928
REMARK  8 active torsions:
REMARK  status: ('A' for Active; 'I' for Inactive)
REMARK    1  A    between atoms: N_1  and  C_11
REMARK    2  A    between atoms: C_4  and  C_8
REMARK    3  A    between atoms: C_11  and  O_12
REMARK    4  A    between atoms: C_11  and  C_17
REMARK    5  A    between atoms: O_12  and  C_13
REMARK    6  A    between atoms: C_13  and  C_14
REMARK    7  A    between atoms: C_14  and  O_15
REMARK    8  A    between atoms: C_17  and  O_18
REMARK                            x       y       z     vdW  Elec       q    Type
REMARK                         _______ _______ _______ _____ _____    ______ ____
ROOT
ATOM      1  N   UNL     1     -35.719  22.211   4.158  0.00  0.00    -0.161 N 
ATOM      2  N   UNL     1     -35.271  21.164   4.839  0.00  0.00    -0.152 NA
ATOM      3  N   UNL     1     -35.330  23.073   6.099  0.00  0.00    -0.202 NA
ATOM      4  C   UNL     1     -35.760  23.339   4.887  0.00  0.00    +0.208 C 
ATOM      5  C   UNL     1     -35.045  21.739   6.023  0.00  0.00    +0.219 C 
ENDROOT
BRANCH   4   8
ATOM      6  O   UNL     1     -35.411  25.581   4.180  0.00  0.00    -0.267 OA
ATOM      7  N   UNL     1     -37.562  24.892   4.406  0.00  0.00    -0.323 N 
ATOM      8  C   UNL     1     -36.184  24.634   4.474  0.00  0.00    +0.276 C 
ATOM      9  H   UNL     1     -37.884  25.778   4.123  0.00  0.00    +0.145 HD
ATOM     10  H   UNL     1     -38.207  24.186   4.640  0.00  0.00    +0.145 HD
ENDBRANCH   4   8
BRANCH   1  11
ATOM     11  C   UNL     1     -36.107  22.045   2.750  0.00  0.00    +0.243 C 
BRANCH  11  12
ATOM     12  O   UNL     1     -37.516  22.268   2.619  0.00  0.00    -0.332 OA
BRANCH  12  13
ATOM     13  C   UNL     1     -37.886  22.761   1.338  0.00  0.00    +0.176 C 
BRANCH  13  14
ATOM     14  C   UNL     1     -36.966  23.907   0.963  0.00  0.00    +0.169 C 
BRANCH  14  15
ATOM     15  O   UNL     1     -37.593  25.137   1.306  0.00  0.00    -0.379 OA
ATOM     16  H   UNL     1     -37.187  25.492   2.113  0.00  0.00    +0.211 HD
ENDBRANCH  14  15
ENDBRANCH  13  14
ENDBRANCH  12  13
ENDBRANCH  11  12
BRANCH  11  17
ATOM     17  C   UNL     1     -35.791  20.640   2.238  0.00  0.00    +0.190 C 
BRANCH  17  18
ATOM     18  O   UNL     1     -36.791  19.717   2.645  0.00  0.00    -0.378 OA
ATOM     19  H   UNL     1     -37.403  20.153   3.258  0.00  0.00    +0.211 HD
ENDBRANCH  17  18
ENDBRANCH  11  17
ENDBRANCH   1  11
TORSDOF 8
ENDMDL
MODEL 6
REMARK VINA RESULT:      -4.6      1.858      3.356
REMARK  Name = 189928
REMARK  8 active torsions:
REMARK  status: ('A' for Active; 'I' for Inactive)
REMARK    1  A    between atoms: N_1  and  C_11
REMARK    2  A    between atoms: C_4  and  C_8
REMARK    3  A    between atoms: C_11  and  O_12
REMARK    4  A    between atoms: C_11  and  C_17
REMARK    5  A    between atoms: O_12  and  C_13
REMARK    6  A    between atoms: C_13  and  C_14
REMARK    7  A    between atoms: C_14  and  O_15
REMARK    8  A    between atoms: C_17  and  O_18
REMARK                            x       y       z     vdW  Elec       q    Type
REMARK                         _______ _______ _______ _____ _____    ______ ____
ROOT
ATOM      1  N   UNL     1     -36.604  24.219   4.062  0.00  0.00    -0.161 N 
ATOM      2  N   UNL     1     -36.448  25.517   3.829  0.00  0.00    -0.152 NA
ATOM      3  N   UNL     1     -35.025  24.734   5.442  0.00  0.00    -0.202 NA
ATOM      4  C   UNL     1     -35.773  23.747   5.007  0.00  0.00    +0.208 C 
ATOM      5  C   UNL     1     -35.470  25.790   4.697  0.00  0.00    +0.219 C 
ENDROOT
BRANCH   4   8
ATOM      6  O   UNL     1     -35.875  22.075   6.693  0.00  0.00    -0.267 OA
ATOM      7  N   UNL     1     -35.304  21.401   4.603  0.00  0.00    -0.323 N 
ATOM      8  C   UNL     1     -35.674  22.414   5.499  0.00  0.00    +0.276 C 
ATOM      9  H   UNL     1     -35.227  20.470   4.915  0.00  0.00    +0.145 HD
ATOM     10  H   UNL     1     -35.121  21.620   3.661  0.00  0.00    +0.145 HD
ENDBRANCH   4   8
BRANCH   1  11
ATOM     11  C   UNL     1     -37.614  23.466   3.306  0.00  0.00    +0.243 C 
BRANCH  11  12
ATOM     12  O   UNL     1     -36.990  22.839   2.179  0.00  0.00    -0.332 OA
BRANCH  12  13
ATOM     13  C   UNL     1     -37.743  21.752   1.658  0.00  0.00    +0.176 C 
BRANCH  13  14
ATOM     14  C   UNL     1     -36.821  20.568   1.441  0.00  0.00    +0.169 C 
BRANCH  14  15
ATOM     15  O   UNL     1     -36.820  19.761   2.613  0.00  0.00    -0.379 OA
ATOM     16  H   UNL     1     -37.557  19.132   2.573  0.00  0.00    +0.211 HD
ENDBRANCH  14  15
ENDBRANCH  13  14
ENDBRANCH  12  13
ENDBRANCH  11  12
BRANCH  11  17
ATOM     17  C   UNL     1     -38.732  24.374   2.794  0.00  0.00    +0.190 C 
BRANCH  17  18
ATOM     18  O   UNL     1     -39.483  24.909   3.874  0.00  0.00    -0.378 OA
ATOM     19  H   UNL     1     -39.072  25.734   4.177  0.00  0.00    +0.211 HD
ENDBRANCH  17  18
ENDBRANCH  11  17
ENDBRANCH   1  11
TORSDOF 8
ENDMDL
MODEL 7
REMARK VINA RESULT:      -4.4      1.477      3.096
REMARK  Name = 189928
REMARK  8 active torsions:
REMARK  status: ('A' for Active; 'I' for Inactive)
REMARK    1  A    between atoms: N_1  and  C_11
REMARK    2  A    between atoms: C_4  and  C_8
REMARK    3  A    between atoms: C_11  and  O_12
REMARK    4  A    between atoms: C_11  and  C_17
REMARK    5  A    between atoms: O_12  and  C_13
REMARK    6  A    between atoms: C_13  and  C_14
REMARK    7  A    between atoms: C_14  and  O_15
REMARK    8  A    between atoms: C_17  and  O_18
REMARK                            x       y       z     vdW  Elec       q    Type
REMARK                         _______ _______ _______ _____ _____    ______ ____
ROOT
ATOM      1  N   UNL     1     -36.079  22.739   4.180  0.00  0.00    -0.161 N 
ATOM      2  N   UNL     1     -35.921  23.115   5.444  0.00  0.00    -0.152 NA
ATOM      3  N   UNL     1     -35.183  20.983   5.061  0.00  0.00    -0.202 NA
ATOM      4  C   UNL     1     -35.648  21.489   3.943  0.00  0.00    +0.208 C 
ATOM      5  C   UNL     1     -35.369  22.008   5.946  0.00  0.00    +0.219 C 
ENDROOT
BRANCH   4   8
ATOM      6  O   UNL     1     -34.751  20.807   1.851  0.00  0.00    -0.267 OA
ATOM      7  N   UNL     1     -36.794  19.994   2.412  0.00  0.00    -0.323 N 
ATOM      8  C   UNL     1     -35.667  20.775   2.710  0.00  0.00    +0.276 C 
ATOM      9  H   UNL     1     -36.835  19.490   1.567  0.00  0.00    +0.145 HD
ATOM     10  H   UNL     1     -37.544  19.950   3.047  0.00  0.00    +0.145 HD
ENDBRANCH   4   8
BRANCH   1  11
ATOM     11  C   UNL     1     -36.675  23.675   3.217  0.00  0.00    +0.243 C 
BRANCH  11  12
ATOM     12  O   UNL     1     -37.478  22.943   2.283  0.00  0.00    -0.332 OA
BRANCH  12  13
ATOM     13  C   UNL     1     -38.873  23.086   2.514  0.00  0.00    +0.176 C 
BRANCH  13  14
ATOM     14  C   UNL     1     -39.629  22.196   1.546  0.00  0.00    +0.169 C 
BRANCH  14  15
ATOM     15  O   UNL     1     -39.980  20.986   2.206  0.00  0.00    -0.379 OA
ATOM     16  H   UNL     1     -40.133  21.164   3.147  0.00  0.00    +0.211 HD
ENDBRANCH  14  15
ENDBRANCH  13  14
ENDBRANCH  12  13
ENDBRANCH  11  12
BRANCH  11  17
ATOM     17  C   UNL     1     -35.607  24.442   2.437  0.00  0.00    +0.190 C 
BRANCH  17  18
ATOM     18  O   UNL     1     -34.498  24.750   3.269  0.00  0.00    -0.378 OA
ATOM     19  H   UNL     1     -33.681  24.709   2.748  0.00  0.00    +0.211 HD
ENDBRANCH  17  18
ENDBRANCH  11  17
ENDBRANCH   1  11
TORSDOF 8
ENDMDL
MODEL 8
REMARK VINA RESULT:      -4.3      1.773      2.521
REMARK  Name = 189928
REMARK  8 active torsions:
REMARK  status: ('A' for Active; 'I' for Inactive)
REMARK    1  A    between atoms: N_1  and  C_11
REMARK    2  A    between atoms: C_4  and  C_8
REMARK    3  A    between atoms: C_11  and  O_12
REMARK    4  A    between atoms: C_11  and  C_17
REMARK    5  A    between atoms: O_12  and  C_13
REMARK    6  A    between atoms: C_13  and  C_14
REMARK    7  A    between atoms: C_14  and  O_15
REMARK    8  A    between atoms: C_17  and  O_18
REMARK                            x       y       z     vdW  Elec       q    Type
REMARK                         _______ _______ _______ _____ _____    ______ ____
ROOT
ATOM      1  N   UNL     1     -36.229  23.420   4.230  0.00  0.00    -0.161 N 
ATOM      2  N   UNL     1     -36.084  22.201   4.736  0.00  0.00    -0.152 NA
ATOM      3  N   UNL     1     -34.973  23.794   5.946  0.00  0.00    -0.202 NA
ATOM      4  C   UNL     1     -35.582  24.365   4.932  0.00  0.00    +0.208 C 
ATOM      5  C   UNL     1     -35.307  22.480   5.786  0.00  0.00    +0.219 C 
ENDROOT
BRANCH   4   8
ATOM      6  O   UNL     1     -34.646  26.327   3.973  0.00  0.00    -0.267 OA
ATOM      7  N   UNL     1     -36.502  26.587   5.252  0.00  0.00    -0.323 N 
ATOM      8  C   UNL     1     -35.525  25.764   4.673  0.00  0.00    +0.276 C 
ATOM      9  H   UNL     1     -36.488  27.559   5.090  0.00  0.00    +0.145 HD
ATOM     10  H   UNL     1     -37.203  26.195   5.821  0.00  0.00    +0.145 HD
ENDBRANCH   4   8
BRANCH   1  11
ATOM     11  C   UNL     1     -37.038  23.608   3.018  0.00  0.00    +0.243 C 
BRANCH  11  12
ATOM     12  O   UNL     1     -38.380  23.938   3.392  0.00  0.00    -0.332 OA
BRANCH  12  13
ATOM     13  C   UNL     1     -38.903  25.049   2.675  0.00  0.00    +0.176 C 
BRANCH  13  14
ATOM     14  C   UNL     1     -37.785  25.695   1.880  0.00  0.00    +0.169 C 
BRANCH  14  15
ATOM     15  O   UNL     1     -37.656  27.054   2.282  0.00  0.00    -0.379 OA
ATOM     16  H   UNL     1     -37.643  27.623   1.496  0.00  0.00    +0.211 HD
ENDBRANCH  14  15
ENDBRANCH  13  14
ENDBRANCH  12  13
ENDBRANCH  11  12
BRANCH  11  17
ATOM     17  C   UNL     1     -37.075  22.343   2.160  0.00  0.00    +0.190 C 
BRANCH  17  18
ATOM     18  O   UNL     1     -38.149  21.499   2.549  0.00  0.00    -0.378 OA
ATOM     19  H   UNL     1     -38.265  21.546   3.511  0.00  0.00    +0.211 HD
ENDBRANCH  17  18
ENDBRANCH  11  17
ENDBRANCH   1  11
TORSDOF 8
ENDMDL
MODEL 9
REMARK VINA RESULT:      -4.3      2.257      3.661
REMARK  Name = 189928
REMARK  8 active torsions:
REMARK  status: ('A' for Active; 'I' for Inactive)
REMARK    1  A    between atoms: N_1  and  C_11
REMARK    2  A    between atoms: C_4  and  C_8
REMARK    3  A    between atoms: C_11  and  O_12
REMARK    4  A    between atoms: C_11  and  C_17
REMARK    5  A    between atoms: O_12  and  C_13
REMARK    6  A    between atoms: C_13  and  C_14
REMARK    7  A    between atoms: C_14  and  O_15
REMARK    8  A    between atoms: C_17  and  O_18
REMARK                            x       y       z     vdW  Elec       q    Type
REMARK                         _______ _______ _______ _____ _____    ______ ____
ROOT
ATOM      1  N   UNL     1     -35.598  23.105   5.204  0.00  0.00    -0.161 N 
ATOM      2  N   UNL     1     -35.104  22.649   6.348  0.00  0.00    -0.152 NA
ATOM      3  N   UNL     1     -35.265  21.020   4.749  0.00  0.00    -0.202 NA
ATOM      4  C   UNL     1     -35.697  22.158   4.255  0.00  0.00    +0.208 C 
ATOM      5  C   UNL     1     -34.915  21.368   6.023  0.00  0.00    +0.219 C 
ENDROOT
BRANCH   4   8
ATOM      6  O   UNL     1     -35.477  22.635   1.938  0.00  0.00    -0.267 OA
ATOM      7  N   UNL     1     -37.544  22.070   2.685  0.00  0.00    -0.323 N 
ATOM      8  C   UNL     1     -36.181  22.299   2.923  0.00  0.00    +0.276 C 
ATOM      9  H   UNL     1     -37.907  22.160   1.773  0.00  0.00    +0.145 HD
ATOM     10  H   UNL     1     -38.139  21.819   3.427  0.00  0.00    +0.145 HD
ENDBRANCH   4   8
BRANCH   1  11
ATOM     11  C   UNL     1     -35.968  24.522   5.090  0.00  0.00    +0.243 C 
BRANCH  11  12
ATOM     12  O   UNL     1     -37.228  24.629   4.416  0.00  0.00    -0.332 OA
BRANCH  12  13
ATOM     13  C   UNL     1     -37.287  25.725   3.513  0.00  0.00    +0.176 C 
BRANCH  13  14
ATOM     14  C   UNL     1     -38.615  25.693   2.781  0.00  0.00    +0.169 C 
BRANCH  14  15
ATOM     15  O   UNL     1     -39.543  26.524   3.468  0.00  0.00    -0.379 OA
ATOM     16  H   UNL     1     -39.760  27.291   2.915  0.00  0.00    +0.211 HD
ENDBRANCH  14  15
ENDBRANCH  13  14
ENDBRANCH  12  13
ENDBRANCH  11  12
BRANCH  11  17
ATOM     17  C   UNL     1     -34.929  25.316   4.297  0.00  0.00    +0.190 C 
BRANCH  17  18
ATOM     18  O   UNL     1     -33.613  24.897   4.627  0.00  0.00    -0.378 OA
ATOM     19  H   UNL     1     -33.561  24.713   5.578  0.00  0.00    +0.211 HD
ENDBRANCH  17  18
ENDBRANCH  11  17
ENDBRANCH   1  11
TORSDOF 8
ENDMDL
