MODEL 1
REMARK VINA RESULT:      -5.4      0.000      0.000
REMARK  Name = 500902
REMARK  5 active torsions:
REMARK  status: ('A' for Active; 'I' for Inactive)
REMARK    1  A    between atoms: C_2  and  O_17
REMARK    2  A    between atoms: C_3  and  O_19
REMARK    3  A    between atoms: C_4  and  N_8
REMARK    4  A    between atoms: C_5  and  C_21
REMARK    5  A    between atoms: C_21  and  O_22
REMARK                            x       y       z     vdW  Elec       q    Type
REMARK                         _______ _______ _______ _____ _____    ______ ____
ROOT
ATOM      1  O   UNL     1     -37.605  24.420   3.063  0.00  0.00    -0.332 OA
ATOM      2  C   UNL     1     -35.424  24.776   3.901  0.00  0.00    +0.159 C 
ATOM      3  C   UNL     1     -36.209  26.075   4.078  0.00  0.00    +0.169 C 
ATOM      4  C   UNL     1     -36.556  23.759   3.783  0.00  0.00    +0.234 C 
ATOM      5  C   UNL     1     -37.505  25.839   3.298  0.00  0.00    +0.175 C 
ATOM      6  C   UNL     1     -34.509  24.828   2.673  0.00  0.00    +0.036 C 
ENDROOT
BRANCH   4   8
ATOM      7  O   UNL     1     -35.224  21.567   4.945  0.00  0.00    -0.193 OA
ATOM      8  N   UNL     1     -36.205  22.547   3.100  0.00  0.00    -0.178 N 
ATOM      9  N   UNL     1     -35.226  20.345   3.033  0.00  0.00    -0.306 NA
ATOM     10  N   UNL     1     -35.230  19.098   1.070  0.00  0.00    -0.332 N 
ATOM     11  C   UNL     1     -36.536  22.421   1.761  0.00  0.00    +0.083 C 
ATOM     12  C   UNL     1     -35.534  21.486   3.755  0.00  0.00    +0.276 C 
ATOM     13  C   UNL     1     -36.248  21.333   1.049  0.00  0.00    +0.065 C 
ATOM     14  C   UNL     1     -35.545  20.240   1.769  0.00  0.00    +0.193 C 
ATOM     15  H   UNL     1     -34.765  18.357   1.520  0.00  0.00    +0.145 HD
ATOM     16  H   UNL     1     -35.471  19.021   0.118  0.00  0.00    +0.145 HD
ENDBRANCH   4   8
BRANCH   2  17
ATOM     17  O   UNL     1     -34.617  24.490   5.036  0.00  0.00    -0.380 OA
ATOM     18  H   UNL     1     -34.360  25.320   5.467  0.00  0.00    +0.211 HD
ENDBRANCH   2  17
BRANCH   3  19
ATOM     19  O   UNL     1     -36.544  26.274   5.455  0.00  0.00    -0.379 OA
ATOM     20  H   UNL     1     -35.732  26.401   5.970  0.00  0.00    +0.211 HD
ENDBRANCH   3  19
BRANCH   5  21
ATOM     21  C   UNL     1     -37.562  26.559   1.960  0.00  0.00    +0.169 C 
BRANCH  21  22
ATOM     22  O   UNL     1     -36.855  27.782   2.069  0.00  0.00    -0.379 OA
ATOM     23  H   UNL     1     -37.079  28.212   2.909  0.00  0.00    +0.211 HD
ENDBRANCH  21  22
ENDBRANCH   5  21
TORSDOF 5
ENDMDL
MODEL 2
REMARK VINA RESULT:      -5.4      2.078      3.221
REMARK  Name = 500902
REMARK  5 active torsions:
REMARK  status: ('A' for Active; 'I' for Inactive)
REMARK    1  A    between atoms: C_2  and  O_17
REMARK    2  A    between atoms: C_3  and  O_19
REMARK    3  A    between atoms: C_4  and  N_8
REMARK    4  A    between atoms: C_5  and  C_21
REMARK    5  A    between atoms: C_21  and  O_22
REMARK                            x       y       z     vdW  Elec       q    Type
REMARK                         _______ _______ _______ _____ _____    ______ ____
ROOT
ATOM      1  O   UNL     1     -34.459  26.026   1.867  0.00  0.00    -0.332 OA
ATOM      2  C   UNL     1     -34.991  26.262   4.158  0.00  0.00    +0.159 C 
ATOM      3  C   UNL     1     -34.152  27.472   3.746  0.00  0.00    +0.169 C 
ATOM      4  C   UNL     1     -35.519  25.794   2.804  0.00  0.00    +0.234 C 
ATOM      5  C   UNL     1     -33.652  27.121   2.343  0.00  0.00    +0.175 C 
ATOM      6  C   UNL     1     -34.150  25.211   4.891  0.00  0.00    +0.036 C 
ENDROOT
BRANCH   4   8
ATOM      7  O   UNL     1     -37.892  24.723   3.875  0.00  0.00    -0.193 OA
ATOM      8  N   UNL     1     -35.899  24.411   2.754  0.00  0.00    -0.178 N 
ATOM      9  N   UNL     1     -37.415  22.599   3.233  0.00  0.00    -0.306 NA
ATOM     10  N   UNL     1     -36.920  20.425   2.572  0.00  0.00    -0.332 N 
ATOM     11  C   UNL     1     -35.047  23.511   2.137  0.00  0.00    +0.083 C 
ATOM     12  C   UNL     1     -37.113  23.948   3.318  0.00  0.00    +0.276 C 
ATOM     13  C   UNL     1     -35.319  22.211   2.046  0.00  0.00    +0.065 C 
ATOM     14  C   UNL     1     -36.601  21.761   2.646  0.00  0.00    +0.193 C 
ATOM     15  H   UNL     1     -37.763  20.097   2.961  0.00  0.00    +0.145 HD
ATOM     16  H   UNL     1     -36.306  19.796   2.130  0.00  0.00    +0.145 HD
ENDBRANCH   4   8
BRANCH   2  17
ATOM     17  O   UNL     1     -36.067  26.633   5.009  0.00  0.00    -0.380 OA
ATOM     18  H   UNL     1     -36.890  26.656   4.496  0.00  0.00    +0.211 HD
ENDBRANCH   2  17
BRANCH   3  19
ATOM     19  O   UNL     1     -34.972  28.640   3.652  0.00  0.00    -0.379 OA
ATOM     20  H   UNL     1     -35.715  28.466   3.053  0.00  0.00    +0.211 HD
ENDBRANCH   3  19
BRANCH   5  21
ATOM     21  C   UNL     1     -32.190  26.706   2.293  0.00  0.00    +0.169 C 
BRANCH  21  22
ATOM     22  O   UNL     1     -31.545  27.160   3.470  0.00  0.00    -0.379 OA
ATOM     23  H   UNL     1     -30.584  27.136   3.343  0.00  0.00    +0.211 HD
ENDBRANCH  21  22
ENDBRANCH   5  21
TORSDOF 5
ENDMDL
MODEL 3
REMARK VINA RESULT:      -5.3      3.037      5.028
REMARK  Name = 500902
REMARK  5 active torsions:
REMARK  status: ('A' for Active; 'I' for Inactive)
REMARK    1  A    between atoms: C_2  and  O_17
REMARK    2  A    between atoms: C_3  and  O_19
REMARK    3  A    between atoms: C_4  and  N_8
REMARK    4  A    between atoms: C_5  and  C_21
REMARK    5  A    between atoms: C_21  and  O_22
REMARK                            x       y       z     vdW  Elec       q    Type
REMARK                         _______ _______ _______ _____ _____    ______ ____
ROOT
ATOM      1  O   UNL     1     -35.697  23.863   3.465  0.00  0.00    -0.332 OA
ATOM      2  C   UNL     1     -35.448  26.025   4.387  0.00  0.00    +0.159 C 
ATOM      3  C   UNL     1     -34.215  25.208   4.773  0.00  0.00    +0.169 C 
ATOM      4  C   UNL     1     -35.953  25.244   3.176  0.00  0.00    +0.234 C 
ATOM      5  C   UNL     1     -34.568  23.778   4.357  0.00  0.00    +0.175 C 
ATOM      6  C   UNL     1     -36.459  26.107   5.536  0.00  0.00    +0.036 C 
ENDROOT
BRANCH   4   8
ATOM      7  O   UNL     1     -37.075  27.445   1.825  0.00  0.00    -0.193 OA
ATOM      8  N   UNL     1     -37.348  25.417   2.891  0.00  0.00    -0.178 N 
ATOM      9  N   UNL     1     -39.197  26.655   1.964  0.00  0.00    -0.306 NA
ATOM     10  N   UNL     1     -41.371  25.840   2.110  0.00  0.00    -0.332 N 
ATOM     11  C   UNL     1     -38.236  24.436   3.305  0.00  0.00    +0.083 C 
ATOM     12  C   UNL     1     -37.837  26.555   2.204  0.00  0.00    +0.276 C 
ATOM     13  C   UNL     1     -39.547  24.515   3.083  0.00  0.00    +0.065 C 
ATOM     14  C   UNL     1     -40.023  25.721   2.360  0.00  0.00    +0.193 C 
ATOM     15  H   UNL     1     -41.716  26.628   1.632  0.00  0.00    +0.145 HD
ATOM     16  H   UNL     1     -41.990  25.136   2.409  0.00  0.00    +0.145 HD
ENDBRANCH   4   8
BRANCH   2  17
ATOM     17  O   UNL     1     -35.103  27.352   4.012  0.00  0.00    -0.380 OA
ATOM     18  H   UNL     1     -34.140  27.421   3.915  0.00  0.00    +0.211 HD
ENDBRANCH   2  17
BRANCH   3  19
ATOM     19  O   UNL     1     -33.078  25.629   4.016  0.00  0.00    -0.379 OA
ATOM     20  H   UNL     1     -32.274  25.511   4.546  0.00  0.00    +0.211 HD
ENDBRANCH   3  19
BRANCH   5  21
ATOM     21  C   UNL     1     -34.933  22.867   5.518  0.00  0.00    +0.169 C 
BRANCH  21  22
ATOM     22  O   UNL     1     -36.284  22.463   5.375  0.00  0.00    -0.379 OA
ATOM     23  H   UNL     1     -36.699  22.969   4.659  0.00  0.00    +0.211 HD
ENDBRANCH  21  22
ENDBRANCH   5  21
TORSDOF 5
ENDMDL
MODEL 4
REMARK VINA RESULT:      -5.3      2.321      3.282
REMARK  Name = 500902
REMARK  5 active torsions:
REMARK  status: ('A' for Active; 'I' for Inactive)
REMARK    1  A    between atoms: C_2  and  O_17
REMARK    2  A    between atoms: C_3  and  O_19
REMARK    3  A    between atoms: C_4  and  N_8
REMARK    4  A    between atoms: C_5  and  C_21
REMARK    5  A    between atoms: C_21  and  O_22
REMARK                            x       y       z     vdW  Elec       q    Type
REMARK                         _______ _______ _______ _____ _____    ______ ____
ROOT
ATOM      1  O   UNL     1     -36.972  25.256   1.690  0.00  0.00    -0.332 OA
ATOM      2  C   UNL     1     -35.406  26.663   2.764  0.00  0.00    +0.159 C 
ATOM      3  C   UNL     1     -35.880  27.374   1.497  0.00  0.00    +0.169 C 
ATOM      4  C   UNL     1     -36.547  25.675   2.993  0.00  0.00    +0.234 C 
ATOM      5  C   UNL     1     -36.685  26.309   0.748  0.00  0.00    +0.175 C 
ATOM      6  C   UNL     1     -34.041  25.996   2.565  0.00  0.00    +0.036 C 
ENDROOT
BRANCH   4   8
ATOM      7  O   UNL     1     -36.220  25.635   5.790  0.00  0.00    -0.193 OA
ATOM      8  N   UNL     1     -36.194  24.521   3.769  0.00  0.00    -0.178 N 
ATOM      9  N   UNL     1     -35.706  23.426   5.861  0.00  0.00    -0.306 NA
ATOM     10  N   UNL     1     -35.178  21.162   5.927  0.00  0.00    -0.332 N 
ATOM     11  C   UNL     1     -35.992  23.317   3.113  0.00  0.00    +0.083 C 
ATOM     12  C   UNL     1     -36.048  24.580   5.177  0.00  0.00    +0.276 C 
ATOM     13  C   UNL     1     -35.661  22.197   3.753  0.00  0.00    +0.065 C 
ATOM     14  C   UNL     1     -35.518  22.297   5.228  0.00  0.00    +0.193 C 
ATOM     15  H   UNL     1     -35.077  21.197   6.905  0.00  0.00    +0.145 HD
ATOM     16  H   UNL     1     -35.038  20.313   5.448  0.00  0.00    +0.145 HD
ENDBRANCH   4   8
BRANCH   2  17
ATOM     17  O   UNL     1     -35.298  27.559   3.862  0.00  0.00    -0.380 OA
ATOM     18  H   UNL     1     -34.604  27.250   4.465  0.00  0.00    +0.211 HD
ENDBRANCH   2  17
BRANCH   3  19
ATOM     19  O   UNL     1     -36.759  28.453   1.828  0.00  0.00    -0.379 OA
ATOM     20  H   UNL     1     -36.944  28.439   2.780  0.00  0.00    +0.211 HD
ENDBRANCH   3  19
BRANCH   5  21
ATOM     21  C   UNL     1     -35.959  25.710  -0.446  0.00  0.00    +0.169 C 
BRANCH  21  22
ATOM     22  O   UNL     1     -35.821  24.315  -0.243  0.00  0.00    -0.379 OA
ATOM     23  H   UNL     1     -34.888  24.101  -0.083  0.00  0.00    +0.211 HD
ENDBRANCH  21  22
ENDBRANCH   5  21
TORSDOF 5
ENDMDL
MODEL 5
REMARK VINA RESULT:      -5.2      2.633      5.133
REMARK  Name = 500902
REMARK  5 active torsions:
REMARK  status: ('A' for Active; 'I' for Inactive)
REMARK    1  A    between atoms: C_2  and  O_17
REMARK    2  A    between atoms: C_3  and  O_19
REMARK    3  A    between atoms: C_4  and  N_8
REMARK    4  A    between atoms: C_5  and  C_21
REMARK    5  A    between atoms: C_21  and  O_22
REMARK                            x       y       z     vdW  Elec       q    Type
REMARK                         _______ _______ _______ _____ _____    ______ ____
ROOT
ATOM      1  O   UNL     1     -34.623  22.127   1.067  0.00  0.00    -0.332 OA
ATOM      2  C   UNL     1     -36.393  20.781   1.868  0.00  0.00    +0.159 C 
ATOM      3  C   UNL     1     -35.818  20.104   0.624  0.00  0.00    +0.169 C 
ATOM      4  C   UNL     1     -35.226  21.672   2.285  0.00  0.00    +0.234 C 
ATOM      5  C   UNL     1     -34.863  21.147   0.038  0.00  0.00    +0.175 C 
ATOM      6  C   UNL     1     -37.679  21.553   1.552  0.00  0.00    +0.036 C 
ENDROOT
BRANCH   4   8
ATOM      7  O   UNL     1     -35.533  21.660   5.084  0.00  0.00    -0.193 OA
ATOM      8  N   UNL     1     -35.594  22.807   3.083  0.00  0.00    -0.178 N 
ATOM      9  N   UNL     1     -36.087  23.857   5.196  0.00  0.00    -0.306 NA
ATOM     10  N   UNL     1     -36.654  26.110   5.303  0.00  0.00    -0.332 N 
ATOM     11  C   UNL     1     -35.823  24.017   2.448  0.00  0.00    +0.083 C 
ATOM     12  C   UNL     1     -35.728  22.721   4.490  0.00  0.00    +0.276 C 
ATOM     13  C   UNL     1     -36.169  25.120   3.109  0.00  0.00    +0.065 C 
ATOM     14  C   UNL     1     -36.300  24.993   4.583  0.00  0.00    +0.193 C 
ATOM     15  H   UNL     1     -36.748  26.057   6.282  0.00  0.00    +0.145 HD
ATOM     16  H   UNL     1     -36.813  26.964   4.840  0.00  0.00    +0.145 HD
ENDBRANCH   4   8
BRANCH   2  17
ATOM     17  O   UNL     1     -36.688  19.839   2.890  0.00  0.00    -0.380 OA
ATOM     18  H   UNL     1     -36.403  20.192   3.747  0.00  0.00    +0.211 HD
ENDBRANCH   2  17
BRANCH   3  19
ATOM     19  O   UNL     1     -35.056  18.950   0.988  0.00  0.00    -0.379 OA
ATOM     20  H   UNL     1     -34.122  19.195   1.078  0.00  0.00    +0.211 HD
ENDBRANCH   3  19
BRANCH   5  21
ATOM     21  C   UNL     1     -35.401  21.857  -1.194  0.00  0.00    +0.169 C 
BRANCH  21  22
ATOM     22  O   UNL     1     -35.457  23.248  -0.932  0.00  0.00    -0.379 OA
ATOM     23  H   UNL     1     -36.056  23.673  -1.565  0.00  0.00    +0.211 HD
ENDBRANCH  21  22
ENDBRANCH   5  21
TORSDOF 5
ENDMDL
MODEL 6
REMARK VINA RESULT:      -5.1      2.715      5.216
REMARK  Name = 500902
REMARK  5 active torsions:
REMARK  status: ('A' for Active; 'I' for Inactive)
REMARK    1  A    between atoms: C_2  and  O_17
REMARK    2  A    between atoms: C_3  and  O_19
REMARK    3  A    between atoms: C_4  and  N_8
REMARK    4  A    between atoms: C_5  and  C_21
REMARK    5  A    between atoms: C_21  and  O_22
REMARK                            x       y       z     vdW  Elec       q    Type
REMARK                         _______ _______ _______ _____ _____    ______ ____
ROOT
ATOM      1  O   UNL     1     -34.696  23.035   1.786  0.00  0.00    -0.332 OA
ATOM      2  C   UNL     1     -36.364  22.788   3.442  0.00  0.00    +0.159 C 
ATOM      3  C   UNL     1     -36.199  21.440   2.741  0.00  0.00    +0.169 C 
ATOM      4  C   UNL     1     -35.031  23.456   3.114  0.00  0.00    +0.234 C 
ATOM      5  C   UNL     1     -35.298  21.748   1.543  0.00  0.00    +0.175 C 
ATOM      6  C   UNL     1     -37.585  23.555   2.921  0.00  0.00    +0.036 C 
ENDROOT
BRANCH   4   8
ATOM      7  O   UNL     1     -34.825  25.004   5.458  0.00  0.00    -0.193 OA
ATOM      8  N   UNL     1     -35.051  24.890   3.164  0.00  0.00    -0.178 N 
ATOM      9  N   UNL     1     -34.969  26.983   4.357  0.00  0.00    -0.306 NA
ATOM     10  N   UNL     1     -35.117  29.009   3.224  0.00  0.00    -0.332 N 
ATOM     11  C   UNL     1     -35.182  25.593   1.977  0.00  0.00    +0.083 C 
ATOM     12  C   UNL     1     -34.941  25.599   4.385  0.00  0.00    +0.276 C 
ATOM     13  C   UNL     1     -35.211  26.923   1.930  0.00  0.00    +0.065 C 
ATOM     14  C   UNL     1     -35.093  27.633   3.229  0.00  0.00    +0.193 C 
ATOM     15  H   UNL     1     -35.040  29.506   4.069  0.00  0.00    +0.145 HD
ATOM     16  H   UNL     1     -35.210  29.496   2.373  0.00  0.00    +0.145 HD
ENDBRANCH   4   8
BRANCH   2  17
ATOM     17  O   UNL     1     -36.511  22.637   4.847  0.00  0.00    -0.380 OA
ATOM     18  H   UNL     1     -35.954  23.288   5.302  0.00  0.00    +0.211 HD
ENDBRANCH   2  17
BRANCH   3  19
ATOM     19  O   UNL     1     -35.516  20.514   3.591  0.00  0.00    -0.379 OA
ATOM     20  H   UNL     1     -34.960  19.930   3.052  0.00  0.00    +0.211 HD
ENDBRANCH   3  19
BRANCH   5  21
ATOM     21  C   UNL     1     -36.033  21.798   0.212  0.00  0.00    +0.169 C 
BRANCH  21  22
ATOM     22  O   UNL     1     -37.142  20.918   0.269  0.00  0.00    -0.379 OA
ATOM     23  H   UNL     1     -36.909  20.076  -0.154  0.00  0.00    +0.211 HD
ENDBRANCH  21  22
ENDBRANCH   5  21
TORSDOF 5
ENDMDL
MODEL 7
REMARK VINA RESULT:      -5.0      2.881      4.540
REMARK  Name = 500902
REMARK  5 active torsions:
REMARK  status: ('A' for Active; 'I' for Inactive)
REMARK    1  A    between atoms: C_2  and  O_17
REMARK    2  A    between atoms: C_3  and  O_19
REMARK    3  A    between atoms: C_4  and  N_8
REMARK    4  A    between atoms: C_5  and  C_21
REMARK    5  A    between atoms: C_21  and  O_22
REMARK                            x       y       z     vdW  Elec       q    Type
REMARK                         _______ _______ _______ _____ _____    ______ ____
ROOT
ATOM      1  O   UNL     1     -36.564  25.506   4.870  0.00  0.00    -0.332 OA
ATOM      2  C   UNL     1     -36.214  23.397   3.863  0.00  0.00    +0.159 C 
ATOM      3  C   UNL     1     -35.422  23.427   5.169  0.00  0.00    +0.169 C 
ATOM      4  C   UNL     1     -37.244  24.494   4.116  0.00  0.00    +0.234 C 
ATOM      5  C   UNL     1     -35.502  24.887   5.622  0.00  0.00    +0.175 C 
ATOM      6  C   UNL     1     -35.317  23.659   2.648  0.00  0.00    +0.036 C 
ENDROOT
BRANCH   4   8
ATOM      7  O   UNL     1     -39.373  23.423   2.616  0.00  0.00    -0.193 OA
ATOM      8  N   UNL     1     -37.799  25.081   2.930  0.00  0.00    -0.178 N 
ATOM      9  N   UNL     1     -39.358  25.104   1.091  0.00  0.00    -0.306 NA
ATOM     10  N   UNL     1     -39.337  26.828  -0.469  0.00  0.00    -0.332 N 
ATOM     11  C   UNL     1     -37.261  26.270   2.464  0.00  0.00    +0.083 C 
ATOM     12  C   UNL     1     -38.873  24.481   2.229  0.00  0.00    +0.276 C 
ATOM     13  C   UNL     1     -37.712  26.883   1.372  0.00  0.00    +0.065 C 
ATOM     14  C   UNL     1     -38.840  26.226   0.664  0.00  0.00    +0.193 C 
ATOM     15  H   UNL     1     -40.084  26.416  -0.959  0.00  0.00    +0.145 HD
ATOM     16  H   UNL     1     -38.945  27.673  -0.789  0.00  0.00    +0.145 HD
ENDBRANCH   4   8
BRANCH   2  17
ATOM     17  O   UNL     1     -36.859  22.146   3.667  0.00  0.00    -0.380 OA
ATOM     18  H   UNL     1     -36.469  21.697   2.900  0.00  0.00    +0.211 HD
ENDBRANCH   2  17
BRANCH   3  19
ATOM     19  O   UNL     1     -36.057  22.614   6.159  0.00  0.00    -0.379 OA
ATOM     20  H   UNL     1     -36.301  23.163   6.921  0.00  0.00    +0.211 HD
ENDBRANCH   3  19
BRANCH   5  21
ATOM     21  C   UNL     1     -34.222  25.677   5.397  0.00  0.00    +0.169 C 
BRANCH  21  22
ATOM     22  O   UNL     1     -34.554  26.936   4.838  0.00  0.00    -0.379 OA
ATOM     23  H   UNL     1     -33.929  27.151   4.128  0.00  0.00    +0.211 HD
ENDBRANCH  21  22
ENDBRANCH   5  21
TORSDOF 5
ENDMDL
MODEL 8
REMARK VINA RESULT:      -4.9      2.910      4.836
REMARK  Name = 500902
REMARK  5 active torsions:
REMARK  status: ('A' for Active; 'I' for Inactive)
REMARK    1  A    between atoms: C_2  and  O_17
REMARK    2  A    between atoms: C_3  and  O_19
REMARK    3  A    between atoms: C_4  and  N_8
REMARK    4  A    between atoms: C_5  and  C_21
REMARK    5  A    between atoms: C_21  and  O_22
REMARK                            x       y       z     vdW  Elec       q    Type
REMARK                         _______ _______ _______ _____ _____    ______ ____
ROOT
ATOM      1  O   UNL     1     -36.957  23.779   3.767  0.00  0.00    -0.332 OA
ATOM      2  C   UNL     1     -36.684  21.866   2.405  0.00  0.00    +0.159 C 
ATOM      3  C   UNL     1     -35.513  21.911   3.386  0.00  0.00    +0.169 C 
ATOM      4  C   UNL     1     -37.708  22.739   3.127  0.00  0.00    +0.234 C 
ATOM      5  C   UNL     1     -35.632  23.286   4.048  0.00  0.00    +0.175 C 
ATOM      6  C   UNL     1     -36.288  22.393   1.022  0.00  0.00    +0.036 C 
ENDROOT
BRANCH   4   8
ATOM      7  O   UNL     1     -40.024  21.441   2.189  0.00  0.00    -0.193 OA
ATOM      8  N   UNL     1     -38.700  23.329   2.274  0.00  0.00    -0.178 N 
ATOM      9  N   UNL     1     -40.757  23.243   1.021  0.00  0.00    -0.306 NA
ATOM     10  N   UNL     1     -41.504  25.093  -0.174  0.00  0.00    -0.332 N 
ATOM     11  C   UNL     1     -38.527  24.641   1.865  0.00  0.00    +0.083 C 
ATOM     12  C   UNL     1     -39.842  22.609   1.844  0.00  0.00    +0.276 C 
ATOM     13  C   UNL     1     -39.396  25.267   1.073  0.00  0.00    +0.065 C 
ATOM     14  C   UNL     1     -40.581  24.482   0.643  0.00  0.00    +0.193 C 
ATOM     15  H   UNL     1     -42.299  24.598  -0.476  0.00  0.00    +0.145 HD
ATOM     16  H   UNL     1     -41.369  26.026  -0.458  0.00  0.00    +0.145 HD
ENDBRANCH   4   8
BRANCH   2  17
ATOM     17  O   UNL     1     -37.185  20.546   2.244  0.00  0.00    -0.380 OA
ATOM     18  H   UNL     1     -36.609  19.922   2.714  0.00  0.00    +0.211 HD
ENDBRANCH   2  17
BRANCH   3  19
ATOM     19  O   UNL     1     -35.667  20.911   4.397  0.00  0.00    -0.379 OA
ATOM     20  H   UNL     1     -35.107  20.148   4.185  0.00  0.00    +0.211 HD
ENDBRANCH   3  19
BRANCH   5  21
ATOM     21  C   UNL     1     -34.618  24.304   3.549  0.00  0.00    +0.169 C 
BRANCH  21  22
ATOM     22  O   UNL     1     -33.705  24.591   4.594  0.00  0.00    -0.379 OA
ATOM     23  H   UNL     1     -34.181  24.628   5.438  0.00  0.00    +0.211 HD
ENDBRANCH  21  22
ENDBRANCH   5  21
TORSDOF 5
ENDMDL
MODEL 9
REMARK VINA RESULT:      -4.9      1.776      2.059
REMARK  Name = 500902
REMARK  5 active torsions:
REMARK  status: ('A' for Active; 'I' for Inactive)
REMARK    1  A    between atoms: C_2  and  O_17
REMARK    2  A    between atoms: C_3  and  O_19
REMARK    3  A    between atoms: C_4  and  N_8
REMARK    4  A    between atoms: C_5  and  C_21
REMARK    5  A    between atoms: C_21  and  O_22
REMARK                            x       y       z     vdW  Elec       q    Type
REMARK                         _______ _______ _______ _____ _____    ______ ____
ROOT
ATOM      1  O   UNL     1     -36.599  24.307   1.463  0.00  0.00    -0.332 OA
ATOM      2  C   UNL     1     -36.176  23.635   3.689  0.00  0.00    +0.159 C 
ATOM      3  C   UNL     1     -37.025  24.905   3.739  0.00  0.00    +0.169 C 
ATOM      4  C   UNL     1     -36.475  23.135   2.278  0.00  0.00    +0.234 C 
ATOM      5  C   UNL     1     -37.041  25.402   2.291  0.00  0.00    +0.175 C 
ATOM      6  C   UNL     1     -34.694  23.932   3.940  0.00  0.00    +0.036 C 
ENDROOT
BRANCH   4   8
ATOM      7  O   UNL     1     -36.130  20.413   2.910  0.00  0.00    -0.193 OA
ATOM      8  N   UNL     1     -35.469  22.276   1.721  0.00  0.00    -0.178 N 
ATOM      9  N   UNL     1     -34.364  20.145   1.512  0.00  0.00    -0.306 NA
ATOM     10  N   UNL     1     -32.553  19.876   0.077  0.00  0.00    -0.332 N 
ATOM     11  C   UNL     1     -34.583  22.806   0.797  0.00  0.00    +0.083 C 
ATOM     12  C   UNL     1     -35.359  20.913   2.090  0.00  0.00    +0.276 C 
ATOM     13  C   UNL     1     -33.619  22.083   0.230  0.00  0.00    +0.065 C 
ATOM     14  C   UNL     1     -33.535  20.658   0.640  0.00  0.00    +0.193 C 
ATOM     15  H   UNL     1     -32.473  18.928   0.329  0.00  0.00    +0.145 HD
ATOM     16  H   UNL     1     -31.930  20.265  -0.579  0.00  0.00    +0.145 HD
ENDBRANCH   4   8
BRANCH   2  17
ATOM     17  O   UNL     1     -36.600  22.681   4.654  0.00  0.00    -0.380 OA
ATOM     18  H   UNL     1     -37.441  22.968   5.044  0.00  0.00    +0.211 HD
ENDBRANCH   2  17
BRANCH   3  19
ATOM     19  O   UNL     1     -38.367  24.596   4.123  0.00  0.00    -0.379 OA
ATOM     20  H   UNL     1     -38.507  23.638   4.067  0.00  0.00    +0.211 HD
ENDBRANCH   3  19
BRANCH   5  21
ATOM     21  C   UNL     1     -36.139  26.599   2.036  0.00  0.00    +0.169 C 
BRANCH  21  22
ATOM     22  O   UNL     1     -35.923  27.276   3.262  0.00  0.00    -0.379 OA
ATOM     23  H   UNL     1     -36.529  28.030   3.328  0.00  0.00    +0.211 HD
ENDBRANCH  21  22
ENDBRANCH   5  21
TORSDOF 5
ENDMDL
