MODEL 1
REMARK VINA RESULT:      -5.7      0.000      0.000
REMARK  Name = 21115981
REMARK  7 active torsions:
REMARK  status: ('A' for Active; 'I' for Inactive)
REMARK    1  A    between atoms: C_2  and  O_16
REMARK    2  A    between atoms: C_3  and  O_18
REMARK    3  A    between atoms: C_4  and  C_20
REMARK    4  A    between atoms: C_5  and  N_7
REMARK    5  A    between atoms: C_20  and  O_21
REMARK    6  A    between atoms: O_21  and  P_22
REMARK    7  A    between atoms: P_22  and  O_25
REMARK                            x       y       z     vdW  Elec       q    Type
REMARK                         _______ _______ _______ _____ _____    ______ ____
ROOT
ATOM      1  O   UNL     1     -34.412  24.568   3.581  0.00  0.00    -0.332 OA
ATOM      2  C   UNL     1     -35.933  23.893   5.296  0.00  0.00    +0.171 C 
ATOM      3  C   UNL     1     -35.425  25.288   5.593  0.00  0.00    +0.188 C 
ATOM      4  C   UNL     1     -35.495  23.652   3.851  0.00  0.00    +0.176 C 
ATOM      5  C   UNL     1     -34.150  25.331   4.765  0.00  0.00    +0.236 C 
ENDROOT
BRANCH   5   7
ATOM      6  O   UNL     1     -32.590  27.038   6.375  0.00  0.00    -0.193 OA
ATOM      7  N   UNL     1     -33.727  26.652   4.405  0.00  0.00    -0.178 N 
ATOM      8  N   UNL     1     -32.567  28.724   4.856  0.00  0.00    -0.306 NA
ATOM      9  N   UNL     1     -32.549  30.447   3.294  0.00  0.00    -0.332 N 
ATOM     10  C   UNL     1     -34.102  27.161   3.169  0.00  0.00    +0.083 C 
ATOM     11  C   UNL     1     -32.939  27.457   5.271  0.00  0.00    +0.276 C 
ATOM     12  C   UNL     1     -33.755  28.377   2.752  0.00  0.00    +0.065 C 
ATOM     13  C   UNL     1     -32.930  29.185   3.687  0.00  0.00    +0.193 C 
ATOM     14  H   UNL     1     -32.002  31.005   3.894  0.00  0.00    +0.145 HD
ATOM     15  H   UNL     1     -32.824  30.793   2.415  0.00  0.00    +0.145 HD
ENDBRANCH   5   7
BRANCH   2  16
ATOM     16  O   UNL     1     -35.256  22.958   6.133  0.00  0.00    -0.379 OA
ATOM     17  H   UNL     1     -34.576  22.496   5.618  0.00  0.00    +0.211 HD
ENDBRANCH   2  16
BRANCH   3  18
ATOM     18  O   UNL     1     -36.382  26.228   5.118  0.00  0.00    -0.378 OA
ATOM     19  H   UNL     1     -36.975  26.480   5.842  0.00  0.00    +0.211 HD
ENDBRANCH   3  18
BRANCH   4  20
ATOM     20  C   UNL     1     -36.594  23.919   2.832  0.00  0.00    +0.183 C 
BRANCH  20  21
ATOM     21  O   UNL     1     -37.831  24.025   3.516  0.00  0.00    -0.291 OA
BRANCH  21  22
ATOM     22  P   UNL     1     -38.975  25.048   3.009  0.00  0.00    +0.341 P 
ATOM     23  O   UNL     1     -38.480  26.437   2.728  0.00  0.00    -0.258 OA
ATOM     24  C   UNL     1     -39.735  24.261   1.603  0.00  0.00    +0.129 C 
BRANCH  22  25
ATOM     25  O   UNL     1     -40.115  24.973   4.153  0.00  0.00    -0.323 OA
ATOM     26  H   UNL     1     -40.318  25.869   4.467  0.00  0.00    +0.220 HD
ENDBRANCH  22  25
ENDBRANCH  21  22
ENDBRANCH  20  21
ENDBRANCH   4  20
TORSDOF 7
ENDMDL
MODEL 2
REMARK VINA RESULT:      -5.6      2.180      2.575
REMARK  Name = 21115981
REMARK  7 active torsions:
REMARK  status: ('A' for Active; 'I' for Inactive)
REMARK    1  A    between atoms: C_2  and  O_16
REMARK    2  A    between atoms: C_3  and  O_18
REMARK    3  A    between atoms: C_4  and  C_20
REMARK    4  A    between atoms: C_5  and  N_7
REMARK    5  A    between atoms: C_20  and  O_21
REMARK    6  A    between atoms: O_21  and  P_22
REMARK    7  A    between atoms: P_22  and  O_25
REMARK                            x       y       z     vdW  Elec       q    Type
REMARK                         _______ _______ _______ _____ _____    ______ ____
ROOT
ATOM      1  O   UNL     1     -34.898  23.174   2.405  0.00  0.00    -0.332 OA
ATOM      2  C   UNL     1     -36.073  21.802   3.970  0.00  0.00    +0.171 C 
ATOM      3  C   UNL     1     -36.020  23.224   4.487  0.00  0.00    +0.188 C 
ATOM      4  C   UNL     1     -35.628  21.934   2.512  0.00  0.00    +0.176 C 
ATOM      5  C   UNL     1     -34.851  23.793   3.696  0.00  0.00    +0.236 C 
ENDROOT
BRANCH   5   7
ATOM      6  O   UNL     1     -33.639  25.632   5.454  0.00  0.00    -0.193 OA
ATOM      7  N   UNL     1     -34.877  25.218   3.552  0.00  0.00    -0.178 N 
ATOM      8  N   UNL     1     -34.308  27.452   4.275  0.00  0.00    -0.306 NA
ATOM      9  N   UNL     1     -34.998  29.313   3.063  0.00  0.00    -0.332 N 
ATOM     10  C   UNL     1     -35.548  25.768   2.467  0.00  0.00    +0.083 C 
ATOM     11  C   UNL     1     -34.242  26.085   4.479  0.00  0.00    +0.276 C 
ATOM     12  C   UNL     1     -35.624  27.080   2.254  0.00  0.00    +0.065 C 
ATOM     13  C   UNL     1     -34.944  27.951   3.247  0.00  0.00    +0.193 C 
ATOM     14  H   UNL     1     -34.557  29.914   3.705  0.00  0.00    +0.145 HD
ATOM     15  H   UNL     1     -35.478  29.686   2.289  0.00  0.00    +0.145 HD
ENDBRANCH   5   7
BRANCH   2  16
ATOM     16  O   UNL     1     -35.109  21.013   4.664  0.00  0.00    -0.379 OA
ATOM     17  H   UNL     1     -34.764  21.514   5.420  0.00  0.00    +0.211 HD
ENDBRANCH   2  16
BRANCH   3  18
ATOM     18  O   UNL     1     -37.239  23.875   4.145  0.00  0.00    -0.378 OA
ATOM     19  H   UNL     1     -37.810  23.922   4.927  0.00  0.00    +0.211 HD
ENDBRANCH   3  18
BRANCH   4  20
ATOM     20  C   UNL     1     -36.789  21.990   1.528  0.00  0.00    +0.183 C 
BRANCH  20  21
ATOM     21  O   UNL     1     -37.963  21.544   2.184  0.00  0.00    -0.291 OA
BRANCH  21  22
ATOM     22  P   UNL     1     -39.413  22.143   1.791  0.00  0.00    +0.341 P 
ATOM     23  O   UNL     1     -39.750  23.437   2.471  0.00  0.00    -0.258 OA
ATOM     24  C   UNL     1     -39.424  22.243   0.012  0.00  0.00    +0.129 C 
BRANCH  22  25
ATOM     25  O   UNL     1     -40.443  20.940   2.114  0.00  0.00    -0.323 OA
ATOM     26  H   UNL     1     -40.681  20.961   3.054  0.00  0.00    +0.220 HD
ENDBRANCH  22  25
ENDBRANCH  21  22
ENDBRANCH  20  21
ENDBRANCH   4  20
TORSDOF 7
ENDMDL
MODEL 3
REMARK VINA RESULT:      -5.5      1.351      1.652
REMARK  Name = 21115981
REMARK  7 active torsions:
REMARK  status: ('A' for Active; 'I' for Inactive)
REMARK    1  A    between atoms: C_2  and  O_16
REMARK    2  A    between atoms: C_3  and  O_18
REMARK    3  A    between atoms: C_4  and  C_20
REMARK    4  A    between atoms: C_5  and  N_7
REMARK    5  A    between atoms: C_20  and  O_21
REMARK    6  A    between atoms: O_21  and  P_22
REMARK    7  A    between atoms: P_22  and  O_25
REMARK                            x       y       z     vdW  Elec       q    Type
REMARK                         _______ _______ _______ _____ _____    ______ ____
ROOT
ATOM      1  O   UNL     1     -34.795  24.924   3.348  0.00  0.00    -0.332 OA
ATOM      2  C   UNL     1     -35.928  24.135   5.299  0.00  0.00    +0.171 C 
ATOM      3  C   UNL     1     -35.329  25.497   5.580  0.00  0.00    +0.188 C 
ATOM      4  C   UNL     1     -35.819  24.002   3.779  0.00  0.00    +0.176 C 
ATOM      5  C   UNL     1     -34.263  25.590   4.499  0.00  0.00    +0.236 C 
ENDROOT
BRANCH   5   7
ATOM      6  O   UNL     1     -32.390  27.172   5.890  0.00  0.00    -0.193 OA
ATOM      7  N   UNL     1     -33.891  26.930   4.154  0.00  0.00    -0.178 N 
ATOM      8  N   UNL     1     -32.626  28.958   4.510  0.00  0.00    -0.306 NA
ATOM      9  N   UNL     1     -32.875  30.786   3.093  0.00  0.00    -0.332 N 
ATOM     10  C   UNL     1     -34.486  27.526   3.050  0.00  0.00    +0.083 C 
ATOM     11  C   UNL     1     -32.937  27.668   4.903  0.00  0.00    +0.276 C 
ATOM     12  C   UNL     1     -34.202  28.765   2.656  0.00  0.00    +0.065 C 
ATOM     13  C   UNL     1     -33.197  29.502   3.466  0.00  0.00    +0.193 C 
ATOM     14  H   UNL     1     -32.213  31.297   3.612  0.00  0.00    +0.145 HD
ATOM     15  H   UNL     1     -33.306  31.193   2.308  0.00  0.00    +0.145 HD
ENDBRANCH   5   7
BRANCH   2  16
ATOM     16  O   UNL     1     -35.113  23.130   5.898  0.00  0.00    -0.379 OA
ATOM     17  H   UNL     1     -35.436  22.941   6.792  0.00  0.00    +0.211 HD
ENDBRANCH   2  16
BRANCH   3  18
ATOM     18  O   UNL     1     -36.340  26.482   5.394  0.00  0.00    -0.378 OA
ATOM     19  H   UNL     1     -36.005  27.183   4.813  0.00  0.00    +0.211 HD
ENDBRANCH   3  18
BRANCH   4  20
ATOM     20  C   UNL     1     -37.105  24.359   3.046  0.00  0.00    +0.183 C 
BRANCH  20  21
ATOM     21  O   UNL     1     -38.065  23.346   3.294  0.00  0.00    -0.291 OA
BRANCH  21  22
ATOM     22  P   UNL     1     -38.745  22.530   2.075  0.00  0.00    +0.341 P 
ATOM     23  O   UNL     1     -40.224  22.741   1.941  0.00  0.00    -0.258 OA
ATOM     24  C   UNL     1     -37.822  22.983   0.620  0.00  0.00    +0.129 C 
BRANCH  22  25
ATOM     25  O   UNL     1     -38.319  20.992   2.336  0.00  0.00    -0.323 OA
ATOM     26  H   UNL     1     -37.650  20.727   1.684  0.00  0.00    +0.220 HD
ENDBRANCH  22  25
ENDBRANCH  21  22
ENDBRANCH  20  21
ENDBRANCH   4  20
TORSDOF 7
ENDMDL
MODEL 4
REMARK VINA RESULT:      -5.4      3.506      6.201
REMARK  Name = 21115981
REMARK  7 active torsions:
REMARK  status: ('A' for Active; 'I' for Inactive)
REMARK    1  A    between atoms: C_2  and  O_16
REMARK    2  A    between atoms: C_3  and  O_18
REMARK    3  A    between atoms: C_4  and  C_20
REMARK    4  A    between atoms: C_5  and  N_7
REMARK    5  A    between atoms: C_20  and  O_21
REMARK    6  A    between atoms: O_21  and  P_22
REMARK    7  A    between atoms: P_22  and  O_25
REMARK                            x       y       z     vdW  Elec       q    Type
REMARK                         _______ _______ _______ _____ _____    ______ ____
ROOT
ATOM      1  O   UNL     1     -36.073  25.282   2.842  0.00  0.00    -0.332 OA
ATOM      2  C   UNL     1     -35.331  26.342   4.851  0.00  0.00    +0.171 C 
ATOM      3  C   UNL     1     -35.042  24.857   4.927  0.00  0.00    +0.188 C 
ATOM      4  C   UNL     1     -35.681  26.563   3.379  0.00  0.00    +0.176 C 
ATOM      5  C   UNL     1     -36.005  24.305   3.888  0.00  0.00    +0.236 C 
ENDROOT
BRANCH   5   7
ATOM      6  O   UNL     1     -35.942  21.870   5.305  0.00  0.00    -0.193 OA
ATOM      7  N   UNL     1     -35.617  23.038   3.342  0.00  0.00    -0.178 N 
ATOM      8  N   UNL     1     -35.225  20.660   3.524  0.00  0.00    -0.306 NA
ATOM      9  N   UNL     1     -34.489  19.427   1.694  0.00  0.00    -0.332 N 
ATOM     10  C   UNL     1     -35.235  22.972   2.009  0.00  0.00    +0.083 C 
ATOM     11  C   UNL     1     -35.611  21.849   4.119  0.00  0.00    +0.276 C 
ATOM     12  C   UNL     1     -34.860  21.840   1.418  0.00  0.00    +0.065 C 
ATOM     13  C   UNL     1     -34.869  20.619   2.266  0.00  0.00    +0.193 C 
ATOM     14  H   UNL     1     -34.485  18.603   2.233  0.00  0.00    +0.145 HD
ATOM     15  H   UNL     1     -34.220  19.399   0.748  0.00  0.00    +0.145 HD
ENDBRANCH   5   7
BRANCH   2  16
ATOM     16  O   UNL     1     -36.483  26.638   5.636  0.00  0.00    -0.379 OA
ATOM     17  H   UNL     1     -36.513  27.589   5.822  0.00  0.00    +0.211 HD
ENDBRANCH   2  16
BRANCH   3  18
ATOM     18  O   UNL     1     -33.688  24.640   4.544  0.00  0.00    -0.378 OA
ATOM     19  H   UNL     1     -33.335  25.446   4.137  0.00  0.00    +0.211 HD
ENDBRANCH   3  18
BRANCH   4  20
ATOM     20  C   UNL     1     -34.513  27.078   2.549  0.00  0.00    +0.183 C 
BRANCH  20  21
ATOM     21  O   UNL     1     -34.027  28.271   3.140  0.00  0.00    -0.291 OA
BRANCH  21  22
ATOM     22  P   UNL     1     -32.522  28.355   3.724  0.00  0.00    +0.341 P 
ATOM     23  O   UNL     1     -31.889  27.021   3.991  0.00  0.00    -0.258 OA
ATOM     24  C   UNL     1     -31.613  29.361   2.567  0.00  0.00    +0.129 C 
BRANCH  22  25
ATOM     25  O   UNL     1     -32.652  29.297   5.031  0.00  0.00    -0.323 OA
ATOM     26  H   UNL     1     -33.428  29.029   5.547  0.00  0.00    +0.220 HD
ENDBRANCH  22  25
ENDBRANCH  21  22
ENDBRANCH  20  21
ENDBRANCH   4  20
TORSDOF 7
ENDMDL
MODEL 5
REMARK VINA RESULT:      -5.3      2.677      3.287
REMARK  Name = 21115981
REMARK  7 active torsions:
REMARK  status: ('A' for Active; 'I' for Inactive)
REMARK    1  A    between atoms: C_2  and  O_16
REMARK    2  A    between atoms: C_3  and  O_18
REMARK    3  A    between atoms: C_4  and  C_20
REMARK    4  A    between atoms: C_5  and  N_7
REMARK    5  A    between atoms: C_20  and  O_21
REMARK    6  A    between atoms: O_21  and  P_22
REMARK    7  A    between atoms: P_22  and  O_25
REMARK                            x       y       z     vdW  Elec       q    Type
REMARK                         _______ _______ _______ _____ _____    ______ ____
ROOT
ATOM      1  O   UNL     1     -34.801  23.723   3.247  0.00  0.00    -0.332 OA
ATOM      2  C   UNL     1     -35.828  22.887   5.237  0.00  0.00    +0.171 C 
ATOM      3  C   UNL     1     -35.763  24.399   5.299  0.00  0.00    +0.188 C 
ATOM      4  C   UNL     1     -35.498  22.575   3.777  0.00  0.00    +0.176 C 
ATOM      5  C   UNL     1     -34.669  24.700   4.287  0.00  0.00    +0.236 C 
ENDROOT
BRANCH   5   7
ATOM      6  O   UNL     1     -33.561  27.019   5.442  0.00  0.00    -0.193 OA
ATOM      7  N   UNL     1     -34.732  26.016   3.725  0.00  0.00    -0.178 N 
ATOM      8  N   UNL     1     -34.250  28.384   3.764  0.00  0.00    -0.306 NA
ATOM      9  N   UNL     1     -34.959  29.776   2.041  0.00  0.00    -0.332 N 
ATOM     10  C   UNL     1     -35.387  26.196   2.515  0.00  0.00    +0.083 C 
ATOM     11  C   UNL     1     -34.149  27.141   4.366  0.00  0.00    +0.276 C 
ATOM     12  C   UNL     1     -35.496  27.382   1.920  0.00  0.00    +0.065 C 
ATOM     13  C   UNL     1     -34.871  28.532   2.623  0.00  0.00    +0.193 C 
ATOM     14  H   UNL     1     -34.554  30.556   2.485  0.00  0.00    +0.145 HD
ATOM     15  H   UNL     1     -35.428  29.886   1.183  0.00  0.00    +0.145 HD
ENDBRANCH   5   7
BRANCH   2  16
ATOM     16  O   UNL     1     -34.800  22.338   6.057  0.00  0.00    -0.379 OA
ATOM     17  H   UNL     1     -34.956  22.587   6.982  0.00  0.00    +0.211 HD
ENDBRANCH   2  16
BRANCH   3  18
ATOM     18  O   UNL     1     -37.017  24.923   4.875  0.00  0.00    -0.378 OA
ATOM     19  H   UNL     1     -37.671  24.208   4.839  0.00  0.00    +0.211 HD
ENDBRANCH   3  18
BRANCH   4  20
ATOM     20  C   UNL     1     -36.730  22.340   2.914  0.00  0.00    +0.183 C 
BRANCH  20  21
ATOM     21  O   UNL     1     -36.313  21.867   1.645  0.00  0.00    -0.291 OA
BRANCH  21  22
ATOM     22  P   UNL     1     -36.208  20.282   1.342  0.00  0.00    +0.341 P 
ATOM     23  O   UNL     1     -36.788  19.867   0.022  0.00  0.00    -0.258 OA
ATOM     24  C   UNL     1     -34.484  19.872   1.528  0.00  0.00    +0.129 C 
BRANCH  22  25
ATOM     25  O   UNL     1     -36.908  19.583   2.619  0.00  0.00    -0.323 OA
ATOM     26  H   UNL     1     -37.268  20.266   3.206  0.00  0.00    +0.220 HD
ENDBRANCH  22  25
ENDBRANCH  21  22
ENDBRANCH  20  21
ENDBRANCH   4  20
TORSDOF 7
ENDMDL
MODEL 6
REMARK VINA RESULT:      -5.3      3.256      6.451
REMARK  Name = 21115981
REMARK  7 active torsions:
REMARK  status: ('A' for Active; 'I' for Inactive)
REMARK    1  A    between atoms: C_2  and  O_16
REMARK    2  A    between atoms: C_3  and  O_18
REMARK    3  A    between atoms: C_4  and  C_20
REMARK    4  A    between atoms: C_5  and  N_7
REMARK    5  A    between atoms: C_20  and  O_21
REMARK    6  A    between atoms: O_21  and  P_22
REMARK    7  A    between atoms: P_22  and  O_25
REMARK                            x       y       z     vdW  Elec       q    Type
REMARK                         _______ _______ _______ _____ _____    ______ ____
ROOT
ATOM      1  O   UNL     1     -33.152  26.359   2.767  0.00  0.00    -0.332 OA
ATOM      2  C   UNL     1     -34.381  28.239   1.953  0.00  0.00    +0.171 C 
ATOM      3  C   UNL     1     -35.342  27.221   2.532  0.00  0.00    +0.188 C 
ATOM      4  C   UNL     1     -33.014  27.757   2.438  0.00  0.00    +0.176 C 
ATOM      5  C   UNL     1     -34.500  25.955   2.498  0.00  0.00    +0.236 C 
ENDROOT
BRANCH   5   7
ATOM      6  O   UNL     1     -36.769  24.301   2.253  0.00  0.00    -0.193 OA
ATOM      7  N   UNL     1     -34.903  24.956   3.443  0.00  0.00    -0.178 N 
ATOM      8  N   UNL     1     -36.391  23.211   4.207  0.00  0.00    -0.306 NA
ATOM      9  N   UNL     1     -35.997  22.098   6.211  0.00  0.00    -0.332 N 
ATOM     10  C   UNL     1     -34.135  24.763   4.583  0.00  0.00    +0.083 C 
ATOM     11  C   UNL     1     -36.062  24.157   3.252  0.00  0.00    +0.276 C 
ATOM     12  C   UNL     1     -34.433  23.860   5.513  0.00  0.00    +0.065 C 
ATOM     13  C   UNL     1     -35.653  23.044   5.274  0.00  0.00    +0.193 C 
ATOM     14  H   UNL     1     -36.800  21.544   6.078  0.00  0.00    +0.145 HD
ATOM     15  H   UNL     1     -35.441  21.975   7.013  0.00  0.00    +0.145 HD
ENDBRANCH   5   7
BRANCH   2  16
ATOM     16  O   UNL     1     -34.409  28.156   0.530  0.00  0.00    -0.379 OA
ATOM     17  H   UNL     1     -33.871  28.870   0.153  0.00  0.00    +0.211 HD
ENDBRANCH   2  16
BRANCH   3  18
ATOM     18  O   UNL     1     -35.651  27.600   3.868  0.00  0.00    -0.378 OA
ATOM     19  H   UNL     1     -35.420  28.533   4.001  0.00  0.00    +0.211 HD
ENDBRANCH   3  18
BRANCH   4  20
ATOM     20  C   UNL     1     -32.522  28.482   3.683  0.00  0.00    +0.183 C 
BRANCH  20  21
ATOM     21  O   UNL     1     -32.042  27.522   4.608  0.00  0.00    -0.291 OA
BRANCH  21  22
ATOM     22  P   UNL     1     -31.348  27.979   5.995  0.00  0.00    +0.341 P 
ATOM     23  O   UNL     1     -29.864  27.765   6.041  0.00  0.00    -0.258 OA
ATOM     24  C   UNL     1     -31.835  29.676   6.240  0.00  0.00    +0.129 C 
BRANCH  22  25
ATOM     25  O   UNL     1     -32.166  27.177   7.136  0.00  0.00    -0.323 OA
ATOM     26  H   UNL     1     -32.220  26.239   6.896  0.00  0.00    +0.220 HD
ENDBRANCH  22  25
ENDBRANCH  21  22
ENDBRANCH  20  21
ENDBRANCH   4  20
TORSDOF 7
ENDMDL
MODEL 7
REMARK VINA RESULT:      -5.2      3.965      5.233
REMARK  Name = 21115981
REMARK  7 active torsions:
REMARK  status: ('A' for Active; 'I' for Inactive)
REMARK    1  A    between atoms: C_2  and  O_16
REMARK    2  A    between atoms: C_3  and  O_18
REMARK    3  A    between atoms: C_4  and  C_20
REMARK    4  A    between atoms: C_5  and  N_7
REMARK    5  A    between atoms: C_20  and  O_21
REMARK    6  A    between atoms: O_21  and  P_22
REMARK    7  A    between atoms: P_22  and  O_25
REMARK                            x       y       z     vdW  Elec       q    Type
REMARK                         _______ _______ _______ _____ _____    ______ ____
ROOT
ATOM      1  O   UNL     1     -35.571  22.151   0.918  0.00  0.00    -0.332 OA
ATOM      2  C   UNL     1     -36.360  19.902   1.100  0.00  0.00    +0.171 C 
ATOM      3  C   UNL     1     -36.518  20.602   2.434  0.00  0.00    +0.188 C 
ATOM      4  C   UNL     1     -36.061  21.046   0.130  0.00  0.00    +0.176 C 
ATOM      5  C   UNL     1     -35.534  21.752   2.294  0.00  0.00    +0.236 C 
ENDROOT
BRANCH   5   7
ATOM      6  O   UNL     1     -35.317  21.789   5.103  0.00  0.00    -0.193 OA
ATOM      7  N   UNL     1     -35.821  22.877   3.132  0.00  0.00    -0.178 N 
ATOM      8  N   UNL     1     -35.984  23.950   5.292  0.00  0.00    -0.306 NA
ATOM      9  N   UNL     1     -36.670  26.165   5.478  0.00  0.00    -0.332 N 
ATOM     10  C   UNL     1     -36.245  24.061   2.542  0.00  0.00    +0.083 C 
ATOM     11  C   UNL     1     -35.689  22.823   4.545  0.00  0.00    +0.276 C 
ATOM     12  C   UNL     1     -36.535  25.155   3.242  0.00  0.00    +0.065 C 
ATOM     13  C   UNL     1     -36.381  25.055   4.717  0.00  0.00    +0.193 C 
ATOM     14  H   UNL     1     -36.577  26.127   6.457  0.00  0.00    +0.145 HD
ATOM     15  H   UNL     1     -36.969  26.995   5.043  0.00  0.00    +0.145 HD
ENDBRANCH   5   7
BRANCH   2  16
ATOM     16  O   UNL     1     -35.222  19.046   1.150  0.00  0.00    -0.379 OA
ATOM     17  H   UNL     1     -34.735  19.202   1.974  0.00  0.00    +0.211 HD
ENDBRANCH   2  16
BRANCH   3  18
ATOM     18  O   UNL     1     -37.856  21.077   2.539  0.00  0.00    -0.378 OA
ATOM     19  H   UNL     1     -38.243  20.771   3.374  0.00  0.00    +0.211 HD
ENDBRANCH   3  18
BRANCH   4  20
ATOM     20  C   UNL     1     -37.287  21.527  -0.635  0.00  0.00    +0.183 C 
BRANCH  20  21
ATOM     21  O   UNL     1     -38.369  20.658  -0.353  0.00  0.00    -0.291 OA
BRANCH  21  22
ATOM     22  P   UNL     1     -39.888  21.210  -0.302  0.00  0.00    +0.341 P 
ATOM     23  O   UNL     1     -40.023  22.671  -0.616  0.00  0.00    -0.258 OA
ATOM     24  C   UNL     1     -40.820  20.154  -1.393  0.00  0.00    +0.129 C 
BRANCH  22  25
ATOM     25  O   UNL     1     -40.414  20.800   1.170  0.00  0.00    -0.323 OA
ATOM     26  H   UNL     1     -41.061  20.081   1.094  0.00  0.00    +0.220 HD
ENDBRANCH  22  25
ENDBRANCH  21  22
ENDBRANCH  20  21
ENDBRANCH   4  20
TORSDOF 7
ENDMDL
MODEL 8
REMARK VINA RESULT:      -5.2      5.545      8.002
REMARK  Name = 21115981
REMARK  7 active torsions:
REMARK  status: ('A' for Active; 'I' for Inactive)
REMARK    1  A    between atoms: C_2  and  O_16
REMARK    2  A    between atoms: C_3  and  O_18
REMARK    3  A    between atoms: C_4  and  C_20
REMARK    4  A    between atoms: C_5  and  N_7
REMARK    5  A    between atoms: C_20  and  O_21
REMARK    6  A    between atoms: O_21  and  P_22
REMARK    7  A    between atoms: P_22  and  O_25
REMARK                            x       y       z     vdW  Elec       q    Type
REMARK                         _______ _______ _______ _____ _____    ______ ____
ROOT
ATOM      1  O   UNL     1     -34.984  21.703   0.975  0.00  0.00    -0.332 OA
ATOM      2  C   UNL     1     -37.259  21.856   1.691  0.00  0.00    +0.171 C 
ATOM      3  C   UNL     1     -36.924  20.412   1.382  0.00  0.00    +0.188 C 
ATOM      4  C   UNL     1     -35.892  22.543   1.718  0.00  0.00    +0.176 C 
ATOM      5  C   UNL     1     -35.706  20.567   0.483  0.00  0.00    +0.236 C 
ENDROOT
BRANCH   5   7
ATOM      6  O   UNL     1     -36.157  18.227  -1.021  0.00  0.00    -0.193 OA
ATOM      7  N   UNL     1     -34.847  19.422   0.456  0.00  0.00    -0.178 N 
ATOM      8  N   UNL     1     -34.261  17.204  -0.307  0.00  0.00    -0.306 NA
ATOM      9  N   UNL     1     -32.317  16.161   0.430  0.00  0.00    -0.332 N 
ATOM     10  C   UNL     1     -33.689  19.434   1.223  0.00  0.00    +0.083 C 
ATOM     11  C   UNL     1     -35.139  18.275  -0.329  0.00  0.00    +0.276 C 
ATOM     12  C   UNL     1     -32.834  18.416   1.259  0.00  0.00    +0.065 C 
ATOM     13  C   UNL     1     -33.176  17.236   0.422  0.00  0.00    +0.193 C 
ATOM     14  H   UNL     1     -32.519  15.367  -0.114  0.00  0.00    +0.145 HD
ATOM     15  H   UNL     1     -31.502  16.187   0.980  0.00  0.00    +0.145 HD
ENDBRANCH   5   7
BRANCH   2  16
ATOM     16  O   UNL     1     -38.016  22.405   0.615  0.00  0.00    -0.379 OA
ATOM     17  H   UNL     1     -37.466  23.030   0.118  0.00  0.00    +0.211 HD
ENDBRANCH   2  16
BRANCH   3  18
ATOM     18  O   UNL     1     -36.587  19.756   2.599  0.00  0.00    -0.378 OA
ATOM     19  H   UNL     1     -36.553  18.798   2.451  0.00  0.00    +0.211 HD
ENDBRANCH   3  18
BRANCH   4  20
ATOM     20  C   UNL     1     -35.327  22.712   3.122  0.00  0.00    +0.183 C 
BRANCH  20  21
ATOM     21  O   UNL     1     -35.399  24.082   3.478  0.00  0.00    -0.291 OA
BRANCH  21  22
ATOM     22  P   UNL     1     -35.818  24.530   4.974  0.00  0.00    +0.341 P 
ATOM     23  O   UNL     1     -36.000  23.389   5.931  0.00  0.00    -0.258 OA
ATOM     24  C   UNL     1     -34.580  25.705   5.488  0.00  0.00    +0.129 C 
BRANCH  22  25
ATOM     25  O   UNL     1     -37.141  25.434   4.766  0.00  0.00    -0.323 OA
ATOM     26  H   UNL     1     -37.659  25.444   5.586  0.00  0.00    +0.220 HD
ENDBRANCH  22  25
ENDBRANCH  21  22
ENDBRANCH  20  21
ENDBRANCH   4  20
TORSDOF 7
ENDMDL
MODEL 9
REMARK VINA RESULT:      -5.1      5.483      7.080
REMARK  Name = 21115981
REMARK  7 active torsions:
REMARK  status: ('A' for Active; 'I' for Inactive)
REMARK    1  A    between atoms: C_2  and  O_16
REMARK    2  A    between atoms: C_3  and  O_18
REMARK    3  A    between atoms: C_4  and  C_20
REMARK    4  A    between atoms: C_5  and  N_7
REMARK    5  A    between atoms: C_20  and  O_21
REMARK    6  A    between atoms: O_21  and  P_22
REMARK    7  A    between atoms: P_22  and  O_25
REMARK                            x       y       z     vdW  Elec       q    Type
REMARK                         _______ _______ _______ _____ _____    ______ ____
ROOT
ATOM      1  O   UNL     1     -35.973  21.422   0.220  0.00  0.00    -0.332 OA
ATOM      2  C   UNL     1     -34.967  19.460   1.141  0.00  0.00    +0.171 C 
ATOM      3  C   UNL     1     -35.539  20.305   2.259  0.00  0.00    +0.188 C 
ATOM      4  C   UNL     1     -35.570  20.079  -0.121  0.00  0.00    +0.176 C 
ATOM      5  C   UNL     1     -35.639  21.668   1.592  0.00  0.00    +0.236 C 
ENDROOT
BRANCH   5   7
ATOM      6  O   UNL     1     -35.351  23.009   4.053  0.00  0.00    -0.193 OA
ATOM      7  N   UNL     1     -36.612  22.540   2.178  0.00  0.00    -0.178 N 
ATOM      8  N   UNL     1     -37.383  24.014   3.932  0.00  0.00    -0.306 NA
ATOM      9  N   UNL     1     -39.466  25.040   3.801  0.00  0.00    -0.332 N 
ATOM     10  C   UNL     1     -37.804  22.763   1.503  0.00  0.00    +0.083 C 
ATOM     11  C   UNL     1     -36.397  23.184   3.426  0.00  0.00    +0.276 C 
ATOM     12  C   UNL     1     -38.765  23.556   1.972  0.00  0.00    +0.065 C 
ATOM     13  C   UNL     1     -38.499  24.211   3.280  0.00  0.00    +0.193 C 
ATOM     14  H   UNL     1     -39.317  25.487   4.665  0.00  0.00    +0.145 HD
ATOM     15  H   UNL     1     -40.305  25.186   3.309  0.00  0.00    +0.145 HD
ENDBRANCH   5   7
BRANCH   2  16
ATOM     16  O   UNL     1     -33.553  19.635   1.095  0.00  0.00    -0.379 OA
ATOM     17  H   UNL     1     -33.334  20.344   0.469  0.00  0.00    +0.211 HD
ENDBRANCH   2  16
BRANCH   3  18
ATOM     18  O   UNL     1     -36.827  19.799   2.594  0.00  0.00    -0.378 OA
ATOM     19  H   UNL     1     -36.924  18.901   2.239  0.00  0.00    +0.211 HD
ENDBRANCH   3  18
BRANCH   4  20
ATOM     20  C   UNL     1     -36.800  19.339  -0.630  0.00  0.00    +0.183 C 
BRANCH  20  21
ATOM     21  O   UNL     1     -37.033  18.217   0.204  0.00  0.00    -0.291 OA
BRANCH  21  22
ATOM     22  P   UNL     1     -37.533  16.811  -0.417  0.00  0.00    +0.341 P 
ATOM     23  O   UNL     1     -39.024  16.686  -0.538  0.00  0.00    -0.258 OA
ATOM     24  C   UNL     1     -36.672  16.636  -1.967  0.00  0.00    +0.129 C 
BRANCH  22  25
ATOM     25  O   UNL     1     -36.852  15.690   0.529  0.00  0.00    -0.323 OA
ATOM     26  H   UNL     1     -35.907  15.882   0.629  0.00  0.00    +0.220 HD
ENDBRANCH  22  25
ENDBRANCH  21  22
ENDBRANCH  20  21
ENDBRANCH   4  20
TORSDOF 7
ENDMDL
