MODEL 1
REMARK VINA RESULT:      -6.5      0.000      0.000
REMARK  Name = 5281665
REMARK  5 active torsions:
REMARK  status: ('A' for Active; 'I' for Inactive)
REMARK    1  A    between atoms: C_5  and  C_12
REMARK    2  A    between atoms: C_7  and  O_20
REMARK    3  A    between atoms: C_8  and  O_22
REMARK    4  A    between atoms: C_10  and  O_24
REMARK    5  A    between atoms: C_17  and  O_18
REMARK                            x       y       z     vdW  Elec       q    Type
REMARK                         _______ _______ _______ _____ _____    ______ ____
ROOT
ATOM      1  O   UNL     1     -36.482  25.442   3.872  0.00  0.00    -0.450 OA
ATOM      2  O   UNL     1     -35.621  21.506   3.265  0.00  0.00    -0.286 OA
ATOM      3  C   UNL     1     -37.207  23.250   3.115  0.00  0.00    +0.110 C 
ATOM      4  C   UNL     1     -37.435  24.605   3.347  0.00  0.00    +0.188 C 
ATOM      5  C   UNL     1     -35.242  24.910   4.193  0.00  0.00    +0.149 C 
ATOM      6  C   UNL     1     -35.890  22.685   3.446  0.00  0.00    +0.205 C 
ATOM      7  C   UNL     1     -38.215  22.446   2.577  0.00  0.00    +0.143 C 
ATOM      8  C   UNL     1     -38.675  25.166   3.040  0.00  0.00    +0.203 C 
ATOM      9  C   UNL     1     -34.901  23.625   4.011  0.00  0.00    +0.080 C 
ATOM     10  C   UNL     1     -39.684  24.367   2.503  0.00  0.00    +0.174 C 
ATOM     11  C   UNL     1     -39.454  23.010   2.272  0.00  0.00    +0.077 C 
ENDROOT
BRANCH   5  12
ATOM     12  C   UNL     1     -34.292  25.896   4.746  0.00  0.00    +0.035 C 
ATOM     13  C   UNL     1     -34.052  25.945   6.121  0.00  0.00    +0.006 C 
ATOM     14  C   UNL     1     -33.627  26.782   3.895  0.00  0.00    +0.006 C 
ATOM     15  C   UNL     1     -33.153  26.875   6.643  0.00  0.00    +0.037 C 
ATOM     16  C   UNL     1     -32.728  27.713   4.417  0.00  0.00    +0.037 C 
ATOM     17  C   UNL     1     -32.491  27.760   5.791  0.00  0.00    +0.134 C 
BRANCH  17  18
ATOM     18  O   UNL     1     -31.614  28.666   6.300  0.00  0.00    -0.506 OA
ATOM     19  H   UNL     1     -31.931  29.459   6.688  0.00  0.00    +0.292 HD
ENDBRANCH  17  18
ENDBRANCH   5  12
BRANCH   7  20
ATOM     20  O   UNL     1     -38.041  21.117   2.332  0.00  0.00    -0.505 OA
ATOM     21  H   UNL     1     -37.579  20.840   1.566  0.00  0.00    +0.292 HD
ENDBRANCH   7  20
BRANCH   8  22
ATOM     22  O   UNL     1     -38.906  26.492   3.263  0.00  0.00    -0.501 OA
ATOM     23  H   UNL     1     -39.761  26.849   3.122  0.00  0.00    +0.292 HD
ENDBRANCH   8  22
BRANCH  10  24
ATOM     24  O   UNL     1     -40.901  24.899   2.198  0.00  0.00    -0.503 OA
ATOM     25  H   UNL     1     -41.684  24.449   2.446  0.00  0.00    +0.292 HD
ENDBRANCH  10  24
TORSDOF 5
ENDMDL
MODEL 2
REMARK VINA RESULT:      -6.5      3.031      7.371
REMARK  Name = 5281665
REMARK  5 active torsions:
REMARK  status: ('A' for Active; 'I' for Inactive)
REMARK    1  A    between atoms: C_5  and  C_12
REMARK    2  A    between atoms: C_7  and  O_20
REMARK    3  A    between atoms: C_8  and  O_22
REMARK    4  A    between atoms: C_10  and  O_24
REMARK    5  A    between atoms: C_17  and  O_18
REMARK                            x       y       z     vdW  Elec       q    Type
REMARK                         _______ _______ _______ _____ _____    ______ ____
ROOT
ATOM      1  O   UNL     1     -33.292  26.314   4.983  0.00  0.00    -0.450 OA
ATOM      2  O   UNL     1     -33.610  28.948   1.891  0.00  0.00    -0.286 OA
ATOM      3  C   UNL     1     -32.832  28.522   4.080  0.00  0.00    +0.110 C 
ATOM      4  C   UNL     1     -32.758  27.573   5.098  0.00  0.00    +0.188 C 
ATOM      5  C   UNL     1     -33.941  25.979   3.804  0.00  0.00    +0.149 C 
ATOM      6  C   UNL     1     -33.511  28.166   2.826  0.00  0.00    +0.205 C 
ATOM      7  C   UNL     1     -32.269  29.789   4.253  0.00  0.00    +0.143 C 
ATOM      8  C   UNL     1     -32.117  27.886   6.298  0.00  0.00    +0.203 C 
ATOM      9  C   UNL     1     -34.072  26.802   2.752  0.00  0.00    +0.080 C 
ATOM     10  C   UNL     1     -31.553  29.149   6.475  0.00  0.00    +0.174 C 
ATOM     11  C   UNL     1     -31.629  30.098   5.454  0.00  0.00    +0.077 C 
ENDROOT
BRANCH   5  12
ATOM     12  C   UNL     1     -34.473  24.601   3.785  0.00  0.00    +0.035 C 
ATOM     13  C   UNL     1     -34.710  23.923   4.983  0.00  0.00    +0.006 C 
ATOM     14  C   UNL     1     -34.744  23.971   2.568  0.00  0.00    +0.006 C 
ATOM     15  C   UNL     1     -35.215  22.623   4.964  0.00  0.00    +0.037 C 
ATOM     16  C   UNL     1     -35.249  22.671   2.549  0.00  0.00    +0.037 C 
ATOM     17  C   UNL     1     -35.484  21.996   3.747  0.00  0.00    +0.134 C 
BRANCH  17  18
ATOM     18  O   UNL     1     -35.976  20.728   3.729  0.00  0.00    -0.506 OA
ATOM     19  H   UNL     1     -36.798  20.538   4.139  0.00  0.00    +0.292 HD
ENDBRANCH  17  18
ENDBRANCH   5  12
BRANCH   7  20
ATOM     20  O   UNL     1     -32.314  30.750   3.289  0.00  0.00    -0.505 OA
ATOM     21  H   UNL     1     -32.234  31.654   3.525  0.00  0.00    +0.292 HD
ENDBRANCH   7  20
BRANCH   8  22
ATOM     22  O   UNL     1     -32.040  26.962   7.299  0.00  0.00    -0.501 OA
ATOM     23  H   UNL     1     -32.332  27.182   8.162  0.00  0.00    +0.292 HD
ENDBRANCH   8  22
BRANCH  10  24
ATOM     24  O   UNL     1     -30.925  29.470   7.640  0.00  0.00    -0.503 OA
ATOM     25  H   UNL     1     -31.412  29.843   8.348  0.00  0.00    +0.292 HD
ENDBRANCH  10  24
TORSDOF 5
ENDMDL
MODEL 3
REMARK VINA RESULT:      -6.3      0.990      1.448
REMARK  Name = 5281665
REMARK  5 active torsions:
REMARK  status: ('A' for Active; 'I' for Inactive)
REMARK    1  A    between atoms: C_5  and  C_12
REMARK    2  A    between atoms: C_7  and  O_20
REMARK    3  A    between atoms: C_8  and  O_22
REMARK    4  A    between atoms: C_10  and  O_24
REMARK    5  A    between atoms: C_17  and  O_18
REMARK                            x       y       z     vdW  Elec       q    Type
REMARK                         _______ _______ _______ _____ _____    ______ ____
ROOT
ATOM      1  O   UNL     1     -35.811  25.990   3.681  0.00  0.00    -0.450 OA
ATOM      2  O   UNL     1     -35.624  21.958   4.240  0.00  0.00    -0.286 OA
ATOM      3  C   UNL     1     -36.749  23.789   3.258  0.00  0.00    +0.110 C 
ATOM      4  C   UNL     1     -36.754  25.174   3.106  0.00  0.00    +0.188 C 
ATOM      5  C   UNL     1     -34.817  25.407   4.452  0.00  0.00    +0.149 C 
ATOM      6  C   UNL     1     -35.691  23.168   4.068  0.00  0.00    +0.205 C 
ATOM      7  C   UNL     1     -37.735  23.008   2.649  0.00  0.00    +0.143 C 
ATOM      8  C   UNL     1     -37.747  25.788   2.342  0.00  0.00    +0.203 C 
ATOM      9  C   UNL     1     -34.703  24.087   4.667  0.00  0.00    +0.080 C 
ATOM     10  C   UNL     1     -38.732  25.013   1.732  0.00  0.00    +0.174 C 
ATOM     11  C   UNL     1     -38.726  23.625   1.886  0.00  0.00    +0.077 C 
ENDROOT
BRANCH   5  12
ATOM     12  C   UNL     1     -33.854  26.373   5.018  0.00  0.00    +0.035 C 
ATOM     13  C   UNL     1     -33.228  27.307   4.189  0.00  0.00    +0.006 C 
ATOM     14  C   UNL     1     -33.566  26.358   6.385  0.00  0.00    +0.006 C 
ATOM     15  C   UNL     1     -32.320  28.221   4.724  0.00  0.00    +0.037 C 
ATOM     16  C   UNL     1     -32.658  27.272   6.919  0.00  0.00    +0.037 C 
ATOM     17  C   UNL     1     -32.034  28.203   6.089  0.00  0.00    +0.134 C 
BRANCH  17  18
ATOM     18  O   UNL     1     -31.149  29.094   6.611  0.00  0.00    -0.506 OA
ATOM     19  H   UNL     1     -31.040  29.159   7.539  0.00  0.00    +0.292 HD
ENDBRANCH  17  18
ENDBRANCH   5  12
BRANCH   7  20
ATOM     20  O   UNL     1     -37.773  21.651   2.767  0.00  0.00    -0.505 OA
ATOM     21  H   UNL     1     -38.395  21.156   2.271  0.00  0.00    +0.292 HD
ENDBRANCH   7  20
BRANCH   8  22
ATOM     22  O   UNL     1     -37.758  27.144   2.188  0.00  0.00    -0.501 OA
ATOM     23  H   UNL     1     -38.556  27.583   1.966  0.00  0.00    +0.292 HD
ENDBRANCH   8  22
BRANCH  10  24
ATOM     24  O   UNL     1     -39.709  25.597   0.982  0.00  0.00    -0.503 OA
ATOM     25  H   UNL     1     -39.503  26.326   0.432  0.00  0.00    +0.292 HD
ENDBRANCH  10  24
TORSDOF 5
ENDMDL
MODEL 4
REMARK VINA RESULT:      -6.1      2.651      6.113
REMARK  Name = 5281665
REMARK  5 active torsions:
REMARK  status: ('A' for Active; 'I' for Inactive)
REMARK    1  A    between atoms: C_5  and  C_12
REMARK    2  A    between atoms: C_7  and  O_20
REMARK    3  A    between atoms: C_8  and  O_22
REMARK    4  A    between atoms: C_10  and  O_24
REMARK    5  A    between atoms: C_17  and  O_18
REMARK                            x       y       z     vdW  Elec       q    Type
REMARK                         _______ _______ _______ _____ _____    ______ ____
ROOT
ATOM      1  O   UNL     1     -34.899  26.502   3.635  0.00  0.00    -0.450 OA
ATOM      2  O   UNL     1     -37.937  27.392   1.070  0.00  0.00    -0.286 OA
ATOM      3  C   UNL     1     -35.992  28.123   2.193  0.00  0.00    +0.110 C 
ATOM      4  C   UNL     1     -34.979  27.753   3.076  0.00  0.00    +0.188 C 
ATOM      5  C   UNL     1     -35.875  25.571   3.311  0.00  0.00    +0.149 C 
ATOM      6  C   UNL     1     -37.023  27.135   1.841  0.00  0.00    +0.205 C 
ATOM      7  C   UNL     1     -36.023  29.412   1.654  0.00  0.00    +0.143 C 
ATOM      8  C   UNL     1     -33.988  28.671   3.425  0.00  0.00    +0.203 C 
ATOM      9  C   UNL     1     -36.894  25.806   2.470  0.00  0.00    +0.080 C 
ATOM     10  C   UNL     1     -34.015  29.959   2.890  0.00  0.00    +0.174 C 
ATOM     11  C   UNL     1     -35.030  30.327   2.005  0.00  0.00    +0.077 C 
ENDROOT
BRANCH   5  12
ATOM     12  C   UNL     1     -35.691  24.259   3.963  0.00  0.00    +0.035 C 
ATOM     13  C   UNL     1     -35.499  24.182   5.344  0.00  0.00    +0.006 C 
ATOM     14  C   UNL     1     -35.710  23.089   3.201  0.00  0.00    +0.006 C 
ATOM     15  C   UNL     1     -35.327  22.942   5.960  0.00  0.00    +0.037 C 
ATOM     16  C   UNL     1     -35.539  21.849   3.817  0.00  0.00    +0.037 C 
ATOM     17  C   UNL     1     -35.346  21.775   5.196  0.00  0.00    +0.134 C 
BRANCH  17  18
ATOM     18  O   UNL     1     -35.180  20.566   5.797  0.00  0.00    -0.506 OA
ATOM     19  H   UNL     1     -34.321  20.199   5.882  0.00  0.00    +0.292 HD
ENDBRANCH  17  18
ENDBRANCH   5  12
BRANCH   7  20
ATOM     20  O   UNL     1     -36.990  29.822   0.786  0.00  0.00    -0.505 OA
ATOM     21  H   UNL     1     -37.892  29.656   0.979  0.00  0.00    +0.292 HD
ENDBRANCH   7  20
BRANCH   8  22
ATOM     22  O   UNL     1     -32.994  28.316   4.289  0.00  0.00    -0.501 OA
ATOM     23  H   UNL     1     -32.430  27.596   4.083  0.00  0.00    +0.292 HD
ENDBRANCH   8  22
BRANCH  10  24
ATOM     24  O   UNL     1     -33.055  30.867   3.221  0.00  0.00    -0.503 OA
ATOM     25  H   UNL     1     -33.065  31.721   2.835  0.00  0.00    +0.292 HD
ENDBRANCH  10  24
TORSDOF 5
ENDMDL
MODEL 5
REMARK VINA RESULT:      -6.0      2.065      6.518
REMARK  Name = 5281665
REMARK  5 active torsions:
REMARK  status: ('A' for Active; 'I' for Inactive)
REMARK    1  A    between atoms: C_5  and  C_12
REMARK    2  A    between atoms: C_7  and  O_20
REMARK    3  A    between atoms: C_8  and  O_22
REMARK    4  A    between atoms: C_10  and  O_24
REMARK    5  A    between atoms: C_17  and  O_18
REMARK                            x       y       z     vdW  Elec       q    Type
REMARK                         _______ _______ _______ _____ _____    ______ ____
ROOT
ATOM      1  O   UNL     1     -38.445  25.238   3.637  0.00  0.00    -0.450 OA
ATOM      2  O   UNL     1     -37.600  21.521   2.198  0.00  0.00    -0.286 OA
ATOM      3  C   UNL     1     -36.896  23.373   3.485  0.00  0.00    +0.110 C 
ATOM      4  C   UNL     1     -37.248  24.640   3.945  0.00  0.00    +0.188 C 
ATOM      5  C   UNL     1     -39.336  24.551   2.827  0.00  0.00    +0.149 C 
ATOM      6  C   UNL     1     -37.844  22.638   2.633  0.00  0.00    +0.205 C 
ATOM      7  C   UNL     1     -35.664  22.813   3.831  0.00  0.00    +0.143 C 
ATOM      8  C   UNL     1     -36.369  25.357   4.756  0.00  0.00    +0.203 C 
ATOM      9  C   UNL     1     -39.115  23.324   2.328  0.00  0.00    +0.080 C 
ATOM     10  C   UNL     1     -35.137  24.803   5.104  0.00  0.00    +0.174 C 
ATOM     11  C   UNL     1     -34.786  23.533   4.642  0.00  0.00    +0.077 C 
ENDROOT
BRANCH   5  12
ATOM     12  C   UNL     1     -40.592  25.282   2.563  0.00  0.00    +0.035 C 
ATOM     13  C   UNL     1     -41.359  24.976   1.436  0.00  0.00    +0.006 C 
ATOM     14  C   UNL     1     -41.021  26.280   3.441  0.00  0.00    +0.006 C 
ATOM     15  C   UNL     1     -42.546  25.665   1.188  0.00  0.00    +0.037 C 
ATOM     16  C   UNL     1     -42.208  26.969   3.193  0.00  0.00    +0.037 C 
ATOM     17  C   UNL     1     -42.970  26.662   2.066  0.00  0.00    +0.134 C 
BRANCH  17  18
ATOM     18  O   UNL     1     -44.129  27.334   1.825  0.00  0.00    -0.506 OA
ATOM     19  H   UNL     1     -44.410  27.481   0.943  0.00  0.00    +0.292 HD
ENDBRANCH  17  18
ENDBRANCH   5  12
BRANCH   7  20
ATOM     20  O   UNL     1     -35.274  21.578   3.409  0.00  0.00    -0.505 OA
ATOM     21  H   UNL     1     -34.650  21.088   3.908  0.00  0.00    +0.292 HD
ENDBRANCH   7  20
BRANCH   8  22
ATOM     22  O   UNL     1     -36.706  26.599   5.210  0.00  0.00    -0.501 OA
ATOM     23  H   UNL     1     -37.429  26.701   5.799  0.00  0.00    +0.292 HD
ENDBRANCH   8  22
BRANCH  10  24
ATOM     24  O   UNL     1     -34.266  25.490   5.895  0.00  0.00    -0.503 OA
ATOM     25  H   UNL     1     -34.120  26.403   5.747  0.00  0.00    +0.292 HD
ENDBRANCH  10  24
TORSDOF 5
ENDMDL
MODEL 6
REMARK VINA RESULT:      -6.0      3.304      5.802
REMARK  Name = 5281665
REMARK  5 active torsions:
REMARK  status: ('A' for Active; 'I' for Inactive)
REMARK    1  A    between atoms: C_5  and  C_12
REMARK    2  A    between atoms: C_7  and  O_20
REMARK    3  A    between atoms: C_8  and  O_22
REMARK    4  A    between atoms: C_10  and  O_24
REMARK    5  A    between atoms: C_17  and  O_18
REMARK                            x       y       z     vdW  Elec       q    Type
REMARK                         _______ _______ _______ _____ _____    ______ ____
ROOT
ATOM      1  O   UNL     1     -35.593  22.246   2.009  0.00  0.00    -0.450 OA
ATOM      2  O   UNL     1     -39.124  20.659   0.738  0.00  0.00    -0.286 OA
ATOM      3  C   UNL     1     -38.015  22.394   1.895  0.00  0.00    +0.110 C 
ATOM      4  C   UNL     1     -36.774  22.883   2.298  0.00  0.00    +0.188 C 
ATOM      5  C   UNL     1     -35.642  21.060   1.291  0.00  0.00    +0.149 C 
ATOM      6  C   UNL     1     -38.069  21.142   1.126  0.00  0.00    +0.205 C 
ATOM      7  C   UNL     1     -39.186  23.086   2.217  0.00  0.00    +0.143 C 
ATOM      8  C   UNL     1     -36.695  24.070   3.027  0.00  0.00    +0.203 C 
ATOM      9  C   UNL     1     -36.773  20.493   0.844  0.00  0.00    +0.080 C 
ATOM     10  C   UNL     1     -37.861  24.764   3.351  0.00  0.00    +0.174 C 
ATOM     11  C   UNL     1     -39.103  24.273   2.947  0.00  0.00    +0.077 C 
ENDROOT
BRANCH   5  12
ATOM     12  C   UNL     1     -34.317  20.462   1.032  0.00  0.00    +0.035 C 
ATOM     13  C   UNL     1     -33.996  19.210   1.561  0.00  0.00    +0.006 C 
ATOM     14  C   UNL     1     -33.380  21.145   0.253  0.00  0.00    +0.006 C 
ATOM     15  C   UNL     1     -32.745  18.644   1.314  0.00  0.00    +0.037 C 
ATOM     16  C   UNL     1     -32.129  20.578   0.006  0.00  0.00    +0.037 C 
ATOM     17  C   UNL     1     -31.811  19.329   0.537  0.00  0.00    +0.134 C 
BRANCH  17  18
ATOM     18  O   UNL     1     -30.591  18.776   0.295  0.00  0.00    -0.506 OA
ATOM     19  H   UNL     1     -30.266  18.096   0.852  0.00  0.00    +0.292 HD
ENDBRANCH  17  18
ENDBRANCH   5  12
BRANCH   7  20
ATOM     20  O   UNL     1     -40.421  22.651   1.846  0.00  0.00    -0.505 OA
ATOM     21  H   UNL     1     -40.574  21.736   1.711  0.00  0.00    +0.292 HD
ENDBRANCH   7  20
BRANCH   8  22
ATOM     22  O   UNL     1     -35.483  24.555   3.425  0.00  0.00    -0.501 OA
ATOM     23  H   UNL     1     -35.376  24.892   4.293  0.00  0.00    +0.292 HD
ENDBRANCH   8  22
BRANCH  10  24
ATOM     24  O   UNL     1     -37.801  25.925   4.063  0.00  0.00    -0.503 OA
ATOM     25  H   UNL     1     -37.707  26.743   3.617  0.00  0.00    +0.292 HD
ENDBRANCH  10  24
TORSDOF 5
ENDMDL
MODEL 7
REMARK VINA RESULT:      -5.9      2.448      4.455
REMARK  Name = 5281665
REMARK  5 active torsions:
REMARK  status: ('A' for Active; 'I' for Inactive)
REMARK    1  A    between atoms: C_5  and  C_12
REMARK    2  A    between atoms: C_7  and  O_20
REMARK    3  A    between atoms: C_8  and  O_22
REMARK    4  A    between atoms: C_10  and  O_24
REMARK    5  A    between atoms: C_17  and  O_18
REMARK                            x       y       z     vdW  Elec       q    Type
REMARK                         _______ _______ _______ _____ _____    ______ ____
ROOT
ATOM      1  O   UNL     1     -36.196  22.043   2.551  0.00  0.00    -0.450 OA
ATOM      2  O   UNL     1     -40.072  22.695   1.475  0.00  0.00    -0.286 OA
ATOM      3  C   UNL     1     -38.154  21.326   1.304  0.00  0.00    +0.110 C 
ATOM      4  C   UNL     1     -36.832  21.162   1.712  0.00  0.00    +0.188 C 
ATOM      5  C   UNL     1     -36.902  23.148   3.003  0.00  0.00    +0.149 C 
ATOM      6  C   UNL     1     -38.907  22.492   1.790  0.00  0.00    +0.205 C 
ATOM      7  C   UNL     1     -38.750  20.395   0.449  0.00  0.00    +0.143 C 
ATOM      8  C   UNL     1     -36.095  20.064   1.267  0.00  0.00    +0.203 C 
ATOM      9  C   UNL     1     -38.179  23.411   2.686  0.00  0.00    +0.080 C 
ATOM     10  C   UNL     1     -36.686  19.132   0.413  0.00  0.00    +0.174 C 
ATOM     11  C   UNL     1     -38.011  19.298   0.006  0.00  0.00    +0.077 C 
ENDROOT
BRANCH   5  12
ATOM     12  C   UNL     1     -36.127  24.027   3.902  0.00  0.00    +0.035 C 
ATOM     13  C   UNL     1     -36.762  25.064   4.590  0.00  0.00    +0.006 C 
ATOM     14  C   UNL     1     -34.755  23.824   4.070  0.00  0.00    +0.006 C 
ATOM     15  C   UNL     1     -36.031  25.893   5.440  0.00  0.00    +0.037 C 
ATOM     16  C   UNL     1     -34.023  24.653   4.921  0.00  0.00    +0.037 C 
ATOM     17  C   UNL     1     -34.661  25.688   5.605  0.00  0.00    +0.134 C 
BRANCH  17  18
ATOM     18  O   UNL     1     -33.947  26.496   6.435  0.00  0.00    -0.506 OA
ATOM     19  H   UNL     1     -33.227  26.994   6.100  0.00  0.00    +0.292 HD
ENDBRANCH  17  18
ENDBRANCH   5  12
BRANCH   7  20
ATOM     20  O   UNL     1     -40.039  20.510   0.023  0.00  0.00    -0.505 OA
ATOM     21  H   UNL     1     -40.240  21.046  -0.719  0.00  0.00    +0.292 HD
ENDBRANCH   7  20
BRANCH   8  22
ATOM     22  O   UNL     1     -34.800  19.896   1.662  0.00  0.00    -0.501 OA
ATOM     23  H   UNL     1     -34.239  19.312   1.191  0.00  0.00    +0.292 HD
ENDBRANCH   8  22
BRANCH  10  24
ATOM     24  O   UNL     1     -35.981  18.054  -0.031  0.00  0.00    -0.503 OA
ATOM     25  H   UNL     1     -35.045  18.072  -0.024  0.00  0.00    +0.292 HD
ENDBRANCH  10  24
TORSDOF 5
ENDMDL
MODEL 8
REMARK VINA RESULT:      -5.9      1.264      3.272
REMARK  Name = 5281665
REMARK  5 active torsions:
REMARK  status: ('A' for Active; 'I' for Inactive)
REMARK    1  A    between atoms: C_5  and  C_12
REMARK    2  A    between atoms: C_7  and  O_20
REMARK    3  A    between atoms: C_8  and  O_22
REMARK    4  A    between atoms: C_10  and  O_24
REMARK    5  A    between atoms: C_17  and  O_18
REMARK                            x       y       z     vdW  Elec       q    Type
REMARK                         _______ _______ _______ _____ _____    ______ ____
ROOT
ATOM      1  O   UNL     1     -35.769  23.689   3.371  0.00  0.00    -0.450 OA
ATOM      2  O   UNL     1     -39.577  25.094   3.018  0.00  0.00    -0.286 OA
ATOM      3  C   UNL     1     -38.065  23.312   2.673  0.00  0.00    +0.110 C 
ATOM      4  C   UNL     1     -36.744  22.893   2.825  0.00  0.00    +0.188 C 
ATOM      5  C   UNL     1     -36.114  24.968   3.783  0.00  0.00    +0.149 C 
ATOM      6  C   UNL     1     -38.436  24.664   3.117  0.00  0.00    +0.205 C 
ATOM      7  C   UNL     1     -39.017  22.458   2.111  0.00  0.00    +0.143 C 
ATOM      8  C   UNL     1     -36.366  21.615   2.413  0.00  0.00    +0.203 C 
ATOM      9  C   UNL     1     -37.351  25.482   3.695  0.00  0.00    +0.080 C 
ATOM     10  C   UNL     1     -37.313  20.759   1.851  0.00  0.00    +0.174 C 
ATOM     11  C   UNL     1     -38.635  21.180   1.700  0.00  0.00    +0.077 C 
ENDROOT
BRANCH   5  12
ATOM     12  C   UNL     1     -34.992  25.735   4.359  0.00  0.00    +0.035 C 
ATOM     13  C   UNL     1     -34.202  26.545   3.541  0.00  0.00    +0.006 C 
ATOM     14  C   UNL     1     -34.718  25.656   5.727  0.00  0.00    +0.006 C 
ATOM     15  C   UNL     1     -33.143  27.272   4.086  0.00  0.00    +0.037 C 
ATOM     16  C   UNL     1     -33.659  26.383   6.272  0.00  0.00    +0.037 C 
ATOM     17  C   UNL     1     -32.871  27.190   5.452  0.00  0.00    +0.134 C 
BRANCH  17  18
ATOM     18  O   UNL     1     -31.839  27.899   5.984  0.00  0.00    -0.506 OA
ATOM     19  H   UNL     1     -31.912  28.828   6.087  0.00  0.00    +0.292 HD
ENDBRANCH  17  18
ENDBRANCH   5  12
BRANCH   7  20
ATOM     20  O   UNL     1     -40.319  22.820   1.942  0.00  0.00    -0.505 OA
ATOM     21  H   UNL     1     -40.985  22.435   2.478  0.00  0.00    +0.292 HD
ENDBRANCH   7  20
BRANCH   8  22
ATOM     22  O   UNL     1     -35.076  21.197   2.558  0.00  0.00    -0.501 OA
ATOM     23  H   UNL     1     -34.885  20.283   2.636  0.00  0.00    +0.292 HD
ENDBRANCH   8  22
BRANCH  10  24
ATOM     24  O   UNL     1     -36.961  19.507   1.444  0.00  0.00    -0.503 OA
ATOM     25  H   UNL     1     -36.590  19.378   0.593  0.00  0.00    +0.292 HD
ENDBRANCH  10  24
TORSDOF 5
ENDMDL
MODEL 9
REMARK VINA RESULT:      -5.9      3.687      6.137
REMARK  Name = 5281665
REMARK  5 active torsions:
REMARK  status: ('A' for Active; 'I' for Inactive)
REMARK    1  A    between atoms: C_5  and  C_12
REMARK    2  A    between atoms: C_7  and  O_20
REMARK    3  A    between atoms: C_8  and  O_22
REMARK    4  A    between atoms: C_10  and  O_24
REMARK    5  A    between atoms: C_17  and  O_18
REMARK                            x       y       z     vdW  Elec       q    Type
REMARK                         _______ _______ _______ _____ _____    ______ ____
ROOT
ATOM      1  O   UNL     1     -36.313  20.712   1.061  0.00  0.00    -0.450 OA
ATOM      2  O   UNL     1     -36.184  24.017   3.440  0.00  0.00    -0.286 OA
ATOM      3  C   UNL     1     -37.502  22.496   2.203  0.00  0.00    +0.110 C 
ATOM      4  C   UNL     1     -37.475  21.361   1.396  0.00  0.00    +0.188 C 
ATOM      5  C   UNL     1     -35.114  21.216   1.543  0.00  0.00    +0.149 C 
ATOM      6  C   UNL     1     -36.233  23.028   2.723  0.00  0.00    +0.205 C 
ATOM      7  C   UNL     1     -38.716  23.115   2.512  0.00  0.00    +0.143 C 
ATOM      8  C   UNL     1     -38.665  20.836   0.890  0.00  0.00    +0.203 C 
ATOM      9  C   UNL     1     -35.011  22.297   2.333  0.00  0.00    +0.080 C 
ATOM     10  C   UNL     1     -39.879  21.451   1.196  0.00  0.00    +0.174 C 
ATOM     11  C   UNL     1     -39.904  22.588   2.005  0.00  0.00    +0.077 C 
ENDROOT
BRANCH   5  12
ATOM     12  C   UNL     1     -33.928  20.441   1.128  0.00  0.00    +0.035 C 
ATOM     13  C   UNL     1     -33.729  19.147   1.615  0.00  0.00    +0.006 C 
ATOM     14  C   UNL     1     -33.000  20.997   0.244  0.00  0.00    +0.006 C 
ATOM     15  C   UNL     1     -32.610  18.414   1.221  0.00  0.00    +0.037 C 
ATOM     16  C   UNL     1     -31.881  20.264  -0.150  0.00  0.00    +0.037 C 
ATOM     17  C   UNL     1     -31.685  18.973   0.339  0.00  0.00    +0.134 C 
BRANCH  17  18
ATOM     18  O   UNL     1     -30.593  18.257  -0.045  0.00  0.00    -0.506 OA
ATOM     19  H   UNL     1     -29.849  18.696  -0.408  0.00  0.00    +0.292 HD
ENDBRANCH  17  18
ENDBRANCH   5  12
BRANCH   7  20
ATOM     20  O   UNL     1     -38.795  24.226   3.297  0.00  0.00    -0.505 OA
ATOM     21  H   UNL     1     -38.155  24.373   3.965  0.00  0.00    +0.292 HD
ENDBRANCH   7  20
BRANCH   8  22
ATOM     22  O   UNL     1     -38.647  19.725   0.099  0.00  0.00    -0.501 OA
ATOM     23  H   UNL     1     -38.502  19.809  -0.823  0.00  0.00    +0.292 HD
ENDBRANCH   8  22
BRANCH  10  24
ATOM     24  O   UNL     1     -41.050  20.951   0.711  0.00  0.00    -0.503 OA
ATOM     25  H   UNL     1     -41.764  20.780   1.293  0.00  0.00    +0.292 HD
ENDBRANCH  10  24
TORSDOF 5
ENDMDL
