MODEL 1
REMARK VINA RESULT:      -5.0      0.000      0.000
REMARK  Name = 5702160
REMARK  10 active torsions:
REMARK  status: ('A' for Active; 'I' for Inactive)
REMARK    1  A    between atoms: S_1  and  C_2
REMARK    2  A    between atoms: S_1  and  C_15
REMARK    3  A    between atoms: C_2  and  C_3
REMARK    4  A    between atoms: C_3  and  C_6
REMARK    5  A    between atoms: N_4  and  C_6
REMARK    6  A    between atoms: N_4  and  S_9
REMARK    7  A    between atoms: S_9  and  N_12
REMARK    8  A    between atoms: C_15  and  C_18
REMARK    9  A    between atoms: C_20  and  N_21
REMARK   10  A    between atoms: N_21  and  C_24
REMARK                            x       y       z     vdW  Elec       q    Type
REMARK                         _______ _______ _______ _____ _____    ______ ____
ROOT
ATOM      1  S   UNL     1     -36.756  25.580   0.816  0.00  0.00    -0.133 S 
ENDROOT
BRANCH   1   2
ATOM      2  C   UNL     1     -38.511  25.327   0.409  0.00  0.00    +0.066 C 
BRANCH   2   3
ATOM      3  C   UNL     1     -39.434  25.736   1.553  0.00  0.00    +0.074 C 
BRANCH   3   5
ATOM      4  N   UNL     1     -39.741  24.678   3.753  0.00  0.00    -0.387 N 
ATOM      5  C   UNL     1     -39.886  24.544   2.391  0.00  0.00    +0.122 C 
ATOM      6  H   UNL     1     -40.014  23.946   4.351  0.00  0.00    +0.157 HD
ATOM      7  H   UNL     1     -39.364  25.507   4.128  0.00  0.00    +0.157 HD
BRANCH   5   8
ATOM      8  N   UNL     1     -40.367  23.533   1.731  0.00  0.00    -0.074 NA
BRANCH   8   9
ATOM      9  S   UNL     1     -39.574  22.105   1.669  0.00  0.00    +0.127 S 
ATOM     10  O   UNL     1     -39.099  21.893   0.312  0.00  0.00    -0.137 OA
ATOM     11  O   UNL     1     -40.397  21.086   2.301  0.00  0.00    -0.137 OA
BRANCH   9  12
ATOM     12  N   UNL     1     -38.170  22.273   2.653  0.00  0.00    -0.189 NA
ATOM     13  H   UNL     1     -38.222  21.618   3.434  0.00  0.00    +0.146 HD
ATOM     14  H   UNL     1     -38.119  23.226   3.013  0.00  0.00    +0.146 HD
ENDBRANCH   9  12
ENDBRANCH   8   9
ENDBRANCH   5   8
ENDBRANCH   3   5
ENDBRANCH   2   3
ENDBRANCH   1   2
BRANCH   1  15
ATOM     15  C   UNL     1     -36.976  26.596   2.293  0.00  0.00    +0.113 C 
BRANCH  15  18
ATOM     16  S   UNL     1     -34.628  25.635   5.363  0.00  0.00    -0.055 S 
ATOM     17  N   UNL     1     -36.639  24.822   3.956  0.00  0.00    -0.384 NA
ATOM     18  C   UNL     1     -36.230  26.035   3.460  0.00  0.00    +0.111 C 
ATOM     19  C   UNL     1     -35.165  26.635   4.077  0.00  0.00    +0.121 C 
ATOM     20  C   UNL     1     -35.862  24.509   4.969  0.00  0.00    +0.243 C 
BRANCH  20  21
ATOM     21  N   UNL     1     -35.953  23.383   5.721  0.00  0.00    -0.178 NA
BRANCH  21  24
ATOM     22  N   UNL     1     -35.419  21.970   3.833  0.00  0.00    -0.370 N 
ATOM     23  N   UNL     1     -35.264  21.167   5.962  0.00  0.00    -0.370 N 
ATOM     24  C   UNL     1     -35.570  22.252   5.174  0.00  0.00    +0.196 C 
ATOM     25  H   UNL     1     -35.607  22.662   3.159  0.00  0.00    +0.159 HD
ATOM     26  H   UNL     1     -35.124  21.075   3.549  0.00  0.00    +0.159 HD
ATOM     27  H   UNL     1     -35.331  21.235   6.941  0.00  0.00    +0.159 HD
ATOM     28  H   UNL     1     -34.978  20.321   5.545  0.00  0.00    +0.159 HD
ENDBRANCH  21  24
ENDBRANCH  20  21
ENDBRANCH  15  18
ENDBRANCH   1  15
TORSDOF 10
ENDMDL
MODEL 2
REMARK VINA RESULT:      -4.7      3.341      4.878
REMARK  Name = 5702160
REMARK  10 active torsions:
REMARK  status: ('A' for Active; 'I' for Inactive)
REMARK    1  A    between atoms: S_1  and  C_2
REMARK    2  A    between atoms: S_1  and  C_15
REMARK    3  A    between atoms: C_2  and  C_3
REMARK    4  A    between atoms: C_3  and  C_6
REMARK    5  A    between atoms: N_4  and  C_6
REMARK    6  A    between atoms: N_4  and  S_9
REMARK    7  A    between atoms: S_9  and  N_12
REMARK    8  A    between atoms: C_15  and  C_18
REMARK    9  A    between atoms: C_20  and  N_21
REMARK   10  A    between atoms: N_21  and  C_24
REMARK                            x       y       z     vdW  Elec       q    Type
REMARK                         _______ _______ _______ _____ _____    ______ ____
ROOT
ATOM      1  S   UNL     1     -39.329  25.069   0.986  0.00  0.00    -0.133 S 
ENDROOT
BRANCH   1   2
ATOM      2  C   UNL     1     -38.633  26.359   2.063  0.00  0.00    +0.066 C 
BRANCH   2   3
ATOM      3  C   UNL     1     -37.113  26.434   1.968  0.00  0.00    +0.074 C 
BRANCH   3   5
ATOM      4  N   UNL     1     -37.259  25.905   4.367  0.00  0.00    -0.387 N 
ATOM      5  C   UNL     1     -36.428  26.064   3.281  0.00  0.00    +0.122 C 
ATOM      6  H   UNL     1     -36.881  25.666   5.244  0.00  0.00    +0.157 HD
ATOM      7  H   UNL     1     -38.230  26.029   4.266  0.00  0.00    +0.157 HD
BRANCH   5   8
ATOM      8  N   UNL     1     -35.136  25.933   3.233  0.00  0.00    -0.074 NA
BRANCH   8   9
ATOM      9  S   UNL     1     -34.151  26.909   4.097  0.00  0.00    +0.127 S 
ATOM     10  O   UNL     1     -34.294  26.588   5.507  0.00  0.00    -0.137 OA
ATOM     11  O   UNL     1     -34.350  28.281   3.657  0.00  0.00    -0.137 OA
BRANCH   9  12
ATOM     12  N   UNL     1     -32.536  26.492   3.667  0.00  0.00    -0.189 NA
ATOM     13  H   UNL     1     -31.886  27.122   4.137  0.00  0.00    +0.146 HD
ATOM     14  H   UNL     1     -32.421  26.576   2.657  0.00  0.00    +0.146 HD
ENDBRANCH   9  12
ENDBRANCH   8   9
ENDBRANCH   5   8
ENDBRANCH   3   5
ENDBRANCH   2   3
ENDBRANCH   1   2
BRANCH   1  15
ATOM     15  C   UNL     1     -39.360  23.719   2.186  0.00  0.00    +0.113 C 
BRANCH  15  18
ATOM     16  S   UNL     1     -36.098  21.540   1.498  0.00  0.00    -0.055 S 
ATOM     17  N   UNL     1     -37.382  22.829   3.335  0.00  0.00    -0.384 NA
ATOM     18  C   UNL     1     -38.087  22.936   2.163  0.00  0.00    +0.111 C 
ATOM     19  C   UNL     1     -37.565  22.314   1.060  0.00  0.00    +0.121 C 
ATOM     20  C   UNL     1     -36.306  22.109   3.103  0.00  0.00    +0.243 C 
BRANCH  20  21
ATOM     21  N   UNL     1     -35.357  21.782   4.017  0.00  0.00    -0.178 NA
BRANCH  21  24
ATOM     22  N   UNL     1     -36.057  21.999   6.321  0.00  0.00    -0.370 N 
ATOM     23  N   UNL     1     -34.715  23.575   5.364  0.00  0.00    -0.370 N 
ATOM     24  C   UNL     1     -35.393  22.393   5.178  0.00  0.00    +0.196 C 
ATOM     25  H   UNL     1     -36.582  21.166   6.323  0.00  0.00    +0.159 HD
ATOM     26  H   UNL     1     -36.005  22.550   7.135  0.00  0.00    +0.159 HD
ATOM     27  H   UNL     1     -34.199  23.968   4.624  0.00  0.00    +0.159 HD
ATOM     28  H   UNL     1     -34.747  24.029   6.238  0.00  0.00    +0.159 HD
ENDBRANCH  21  24
ENDBRANCH  20  21
ENDBRANCH  15  18
ENDBRANCH   1  15
TORSDOF 10
ENDMDL
MODEL 3
REMARK VINA RESULT:      -4.7      6.237      8.482
REMARK  Name = 5702160
REMARK  10 active torsions:
REMARK  status: ('A' for Active; 'I' for Inactive)
REMARK    1  A    between atoms: S_1  and  C_2
REMARK    2  A    between atoms: S_1  and  C_15
REMARK    3  A    between atoms: C_2  and  C_3
REMARK    4  A    between atoms: C_3  and  C_6
REMARK    5  A    between atoms: N_4  and  C_6
REMARK    6  A    between atoms: N_4  and  S_9
REMARK    7  A    between atoms: S_9  and  N_12
REMARK    8  A    between atoms: C_15  and  C_18
REMARK    9  A    between atoms: C_20  and  N_21
REMARK   10  A    between atoms: N_21  and  C_24
REMARK                            x       y       z     vdW  Elec       q    Type
REMARK                         _______ _______ _______ _____ _____    ______ ____
ROOT
ATOM      1  S   UNL     1     -31.420  30.376   3.277  0.00  0.00    -0.133 S 
ENDROOT
BRANCH   1   2
ATOM      2  C   UNL     1     -31.264  31.261   4.859  0.00  0.00    +0.066 C 
BRANCH   2   3
ATOM      3  C   UNL     1     -31.992  30.548   5.994  0.00  0.00    +0.074 C 
BRANCH   3   5
ATOM      4  N   UNL     1     -31.963  28.277   6.941  0.00  0.00    -0.387 N 
ATOM      5  C   UNL     1     -31.209  29.350   6.526  0.00  0.00    +0.122 C 
ATOM      6  H   UNL     1     -31.521  27.472   7.295  0.00  0.00    +0.157 HD
ATOM      7  H   UNL     1     -32.946  28.314   6.884  0.00  0.00    +0.157 HD
BRANCH   5   8
ATOM      8  N   UNL     1     -29.915  29.469   6.524  0.00  0.00    -0.074 NA
BRANCH   8   9
ATOM      9  S   UNL     1     -28.956  28.299   5.908  0.00  0.00    +0.127 S 
ATOM     10  O   UNL     1     -27.607  28.824   5.770  0.00  0.00    -0.137 OA
ATOM     11  O   UNL     1     -29.613  27.717   4.749  0.00  0.00    -0.137 OA
BRANCH   9  12
ATOM     12  N   UNL     1     -28.871  27.051   7.093  0.00  0.00    -0.189 NA
ATOM     13  H   UNL     1     -28.021  27.165   7.646  0.00  0.00    +0.146 HD
ATOM     14  H   UNL     1     -28.855  26.143   6.630  0.00  0.00    +0.146 HD
ENDBRANCH   9  12
ENDBRANCH   8   9
ENDBRANCH   5   8
ENDBRANCH   3   5
ENDBRANCH   2   3
ENDBRANCH   1   2
BRANCH   1  15
ATOM     15  C   UNL     1     -33.135  29.835   3.450  0.00  0.00    +0.113 C 
BRANCH  15  18
ATOM     16  S   UNL     1     -33.152  25.907   2.797  0.00  0.00    -0.055 S 
ATOM     17  N   UNL     1     -33.805  27.727   4.513  0.00  0.00    -0.384 NA
ATOM     18  C   UNL     1     -33.245  28.345   3.423  0.00  0.00    +0.111 C 
ATOM     19  C   UNL     1     -32.829  27.542   2.394  0.00  0.00    +0.121 C 
ATOM     20  C   UNL     1     -33.809  26.430   4.293  0.00  0.00    +0.243 C 
BRANCH  20  21
ATOM     21  N   UNL     1     -34.283  25.483   5.141  0.00  0.00    -0.178 NA
BRANCH  21  24
ATOM     22  N   UNL     1     -36.498  26.414   5.404  0.00  0.00    -0.370 N 
ATOM     23  N   UNL     1     -36.192  24.156   5.332  0.00  0.00    -0.370 N 
ATOM     24  C   UNL     1     -35.584  25.389   5.285  0.00  0.00    +0.196 C 
ATOM     25  H   UNL     1     -36.193  27.350   5.386  0.00  0.00    +0.159 HD
ATOM     26  H   UNL     1     -37.455  26.211   5.508  0.00  0.00    +0.159 HD
ATOM     27  H   UNL     1     -35.650  23.337   5.258  0.00  0.00    +0.159 HD
ATOM     28  H   UNL     1     -37.168  24.092   5.440  0.00  0.00    +0.159 HD
ENDBRANCH  21  24
ENDBRANCH  20  21
ENDBRANCH  15  18
ENDBRANCH   1  15
TORSDOF 10
ENDMDL
MODEL 4
REMARK VINA RESULT:      -4.7      2.523      3.111
REMARK  Name = 5702160
REMARK  10 active torsions:
REMARK  status: ('A' for Active; 'I' for Inactive)
REMARK    1  A    between atoms: S_1  and  C_2
REMARK    2  A    between atoms: S_1  and  C_15
REMARK    3  A    between atoms: C_2  and  C_3
REMARK    4  A    between atoms: C_3  and  C_6
REMARK    5  A    between atoms: N_4  and  C_6
REMARK    6  A    between atoms: N_4  and  S_9
REMARK    7  A    between atoms: S_9  and  N_12
REMARK    8  A    between atoms: C_15  and  C_18
REMARK    9  A    between atoms: C_20  and  N_21
REMARK   10  A    between atoms: N_21  and  C_24
REMARK                            x       y       z     vdW  Elec       q    Type
REMARK                         _______ _______ _______ _____ _____    ______ ____
ROOT
ATOM      1  S   UNL     1     -39.493  25.217   0.489  0.00  0.00    -0.133 S 
ENDROOT
BRANCH   1   2
ATOM      2  C   UNL     1     -39.540  23.400   0.434  0.00  0.00    +0.066 C 
BRANCH   2   3
ATOM      3  C   UNL     1     -38.161  22.779   0.638  0.00  0.00    +0.074 C 
BRANCH   3   5
ATOM      4  N   UNL     1     -39.196  21.293   2.304  0.00  0.00    -0.387 N 
ATOM      5  C   UNL     1     -38.065  21.987   1.939  0.00  0.00    +0.122 C 
ATOM      6  H   UNL     1     -39.201  20.761   3.132  0.00  0.00    +0.157 HD
ATOM      7  H   UNL     1     -40.000  21.328   1.735  0.00  0.00    +0.157 HD
BRANCH   5   8
ATOM      8  N   UNL     1     -36.925  22.048   2.560  0.00  0.00    -0.074 NA
BRANCH   8   9
ATOM      9  S   UNL     1     -35.837  20.834   2.459  0.00  0.00    +0.127 S 
ATOM     10  O   UNL     1     -35.216  20.653   3.760  0.00  0.00    -0.137 OA
ATOM     11  O   UNL     1     -34.994  21.058   1.295  0.00  0.00    -0.137 OA
BRANCH   9  12
ATOM     12  N   UNL     1     -36.727  19.394   2.142  0.00  0.00    -0.189 NA
ATOM     13  H   UNL     1     -37.704  19.534   2.401  0.00  0.00    +0.146 HD
ATOM     14  H   UNL     1     -36.338  18.626   2.689  0.00  0.00    +0.146 HD
ENDBRANCH   9  12
ENDBRANCH   8   9
ENDBRANCH   5   8
ENDBRANCH   3   5
ENDBRANCH   2   3
ENDBRANCH   1   2
BRANCH   1  15
ATOM     15  C   UNL     1     -39.559  25.425   2.282  0.00  0.00    +0.113 C 
BRANCH  15  18
ATOM     16  S   UNL     1     -35.837  26.401   3.308  0.00  0.00    -0.055 S 
ATOM     17  N   UNL     1     -37.888  25.001   4.030  0.00  0.00    -0.384 NA
ATOM     18  C   UNL     1     -38.199  25.646   2.858  0.00  0.00    +0.111 C 
ATOM     19  C   UNL     1     -37.231  26.445   2.310  0.00  0.00    +0.121 C 
ATOM     20  C   UNL     1     -36.659  25.327   4.364  0.00  0.00    +0.243 C 
BRANCH  20  21
ATOM     21  N   UNL     1     -35.994  24.889   5.463  0.00  0.00    -0.178 NA
BRANCH  21  24
ATOM     22  N   UNL     1     -36.167  22.504   5.818  0.00  0.00    -0.370 N 
ATOM     23  N   UNL     1     -34.239  23.419   5.012  0.00  0.00    -0.370 N 
ATOM     24  C   UNL     1     -35.522  23.664   5.443  0.00  0.00    +0.196 C 
ATOM     25  H   UNL     1     -37.094  22.539   6.147  0.00  0.00    +0.159 HD
ATOM     26  H   UNL     1     -35.700  21.640   5.755  0.00  0.00    +0.159 HD
ATOM     27  H   UNL     1     -33.669  24.164   4.715  0.00  0.00    +0.159 HD
ATOM     28  H   UNL     1     -33.892  22.497   5.000  0.00  0.00    +0.159 HD
ENDBRANCH  21  24
ENDBRANCH  20  21
ENDBRANCH  15  18
ENDBRANCH   1  15
TORSDOF 10
ENDMDL
MODEL 5
REMARK VINA RESULT:      -4.7      3.341      4.956
REMARK  Name = 5702160
REMARK  10 active torsions:
REMARK  status: ('A' for Active; 'I' for Inactive)
REMARK    1  A    between atoms: S_1  and  C_2
REMARK    2  A    between atoms: S_1  and  C_15
REMARK    3  A    between atoms: C_2  and  C_3
REMARK    4  A    between atoms: C_3  and  C_6
REMARK    5  A    between atoms: N_4  and  C_6
REMARK    6  A    between atoms: N_4  and  S_9
REMARK    7  A    between atoms: S_9  and  N_12
REMARK    8  A    between atoms: C_15  and  C_18
REMARK    9  A    between atoms: C_20  and  N_21
REMARK   10  A    between atoms: N_21  and  C_24
REMARK                            x       y       z     vdW  Elec       q    Type
REMARK                         _______ _______ _______ _____ _____    ______ ____
ROOT
ATOM      1  S   UNL     1     -37.512  26.451   0.263  0.00  0.00    -0.133 S 
ENDROOT
BRANCH   1   2
ATOM      2  C   UNL     1     -35.810  26.995   0.606  0.00  0.00    +0.066 C 
BRANCH   2   3
ATOM      3  C   UNL     1     -35.768  28.332   1.340  0.00  0.00    +0.074 C 
BRANCH   3   5
ATOM      4  N   UNL     1     -35.044  29.372   3.449  0.00  0.00    -0.387 N 
ATOM      5  C   UNL     1     -34.992  28.252   2.652  0.00  0.00    +0.122 C 
ATOM      6  H   UNL     1     -34.566  29.387   4.309  0.00  0.00    +0.157 HD
ATOM      7  H   UNL     1     -35.560  30.159   3.159  0.00  0.00    +0.157 HD
BRANCH   5   8
ATOM      8  N   UNL     1     -34.371  27.133   2.879  0.00  0.00    -0.074 NA
BRANCH   8   9
ATOM      9  S   UNL     1     -34.153  26.577   4.400  0.00  0.00    +0.127 S 
ATOM     10  O   UNL     1     -33.412  27.571   5.159  0.00  0.00    -0.137 OA
ATOM     11  O   UNL     1     -33.648  25.215   4.332  0.00  0.00    -0.137 OA
BRANCH   9  12
ATOM     12  N   UNL     1     -35.713  26.479   5.123  0.00  0.00    -0.189 NA
ATOM     13  H   UNL     1     -35.878  27.313   5.688  0.00  0.00    +0.146 HD
ATOM     14  H   UNL     1     -35.762  25.651   5.716  0.00  0.00    +0.146 HD
ENDBRANCH   9  12
ENDBRANCH   8   9
ENDBRANCH   5   8
ENDBRANCH   3   5
ENDBRANCH   2   3
ENDBRANCH   1   2
BRANCH   1  15
ATOM     15  C   UNL     1     -37.986  26.004   1.948  0.00  0.00    +0.113 C 
BRANCH  15  18
ATOM     16  S   UNL     1     -37.858  22.044   2.351  0.00  0.00    -0.055 S 
ATOM     17  N   UNL     1     -36.609  24.230   2.940  0.00  0.00    -0.384 NA
ATOM     18  C   UNL     1     -37.733  24.558   2.222  0.00  0.00    +0.111 C 
ATOM     19  C   UNL     1     -38.535  23.525   1.814  0.00  0.00    +0.121 C 
ATOM     20  C   UNL     1     -36.571  22.923   3.070  0.00  0.00    +0.243 C 
BRANCH  20  21
ATOM     21  N   UNL     1     -35.610  22.217   3.719  0.00  0.00    -0.178 NA
BRANCH  21  24
ATOM     22  N   UNL     1     -35.781  23.418   5.810  0.00  0.00    -0.370 N 
ATOM     23  N   UNL     1     -35.289  21.192   5.790  0.00  0.00    -0.370 N 
ATOM     24  C   UNL     1     -35.569  22.302   5.028  0.00  0.00    +0.196 C 
ATOM     25  H   UNL     1     -35.991  24.283   5.389  0.00  0.00    +0.159 HD
ATOM     26  H   UNL     1     -35.721  23.351   6.790  0.00  0.00    +0.159 HD
ATOM     27  H   UNL     1     -35.117  20.327   5.353  0.00  0.00    +0.159 HD
ATOM     28  H   UNL     1     -35.260  21.262   6.771  0.00  0.00    +0.159 HD
ENDBRANCH  21  24
ENDBRANCH  20  21
ENDBRANCH  15  18
ENDBRANCH   1  15
TORSDOF 10
ENDMDL
MODEL 6
REMARK VINA RESULT:      -4.7      1.897      2.256
REMARK  Name = 5702160
REMARK  10 active torsions:
REMARK  status: ('A' for Active; 'I' for Inactive)
REMARK    1  A    between atoms: S_1  and  C_2
REMARK    2  A    between atoms: S_1  and  C_15
REMARK    3  A    between atoms: C_2  and  C_3
REMARK    4  A    between atoms: C_3  and  C_6
REMARK    5  A    between atoms: N_4  and  C_6
REMARK    6  A    between atoms: N_4  and  S_9
REMARK    7  A    between atoms: S_9  and  N_12
REMARK    8  A    between atoms: C_15  and  C_18
REMARK    9  A    between atoms: C_20  and  N_21
REMARK   10  A    between atoms: N_21  and  C_24
REMARK                            x       y       z     vdW  Elec       q    Type
REMARK                         _______ _______ _______ _____ _____    ______ ____
ROOT
ATOM      1  S   UNL     1     -34.466  26.910   0.866  0.00  0.00    -0.133 S 
ENDROOT
BRANCH   1   2
ATOM      2  C   UNL     1     -35.954  26.031   0.298  0.00  0.00    +0.066 C 
BRANCH   2   3
ATOM      3  C   UNL     1     -37.239  26.742   0.711  0.00  0.00    +0.074 C 
BRANCH   3   5
ATOM      4  N   UNL     1     -37.486  26.386   3.133  0.00  0.00    -0.387 N 
ATOM      5  C   UNL     1     -37.938  26.049   1.877  0.00  0.00    +0.122 C 
ATOM      6  H   UNL     1     -37.895  25.976   3.929  0.00  0.00    +0.157 HD
ATOM      7  H   UNL     1     -36.755  27.038   3.235  0.00  0.00    +0.157 HD
BRANCH   5   8
ATOM      8  N   UNL     1     -38.888  25.221   1.562  0.00  0.00    -0.074 NA
BRANCH   8   9
ATOM      9  S   UNL     1     -39.383  24.061   2.600  0.00  0.00    +0.127 S 
ATOM     10  O   UNL     1     -40.258  23.141   1.891  0.00  0.00    -0.137 OA
ATOM     11  O   UNL     1     -39.860  24.697   3.819  0.00  0.00    -0.137 OA
BRANCH   9  12
ATOM     12  N   UNL     1     -37.985  23.157   3.040  0.00  0.00    -0.189 NA
ATOM     13  H   UNL     1     -38.165  22.653   3.909  0.00  0.00    +0.146 HD
ATOM     14  H   UNL     1     -37.198  23.792   3.173  0.00  0.00    +0.146 HD
ENDBRANCH   9  12
ENDBRANCH   8   9
ENDBRANCH   5   8
ENDBRANCH   3   5
ENDBRANCH   2   3
ENDBRANCH   1   2
BRANCH   1  15
ATOM     15  C   UNL     1     -33.640  25.524   1.677  0.00  0.00    +0.113 C 
BRANCH  15  18
ATOM     16  S   UNL     1     -34.458  25.721   5.569  0.00  0.00    -0.055 S 
ATOM     17  N   UNL     1     -34.825  24.298   3.442  0.00  0.00    -0.384 NA
ATOM     18  C   UNL     1     -34.067  25.390   3.102  0.00  0.00    +0.111 C 
ATOM     19  C   UNL     1     -33.761  26.274   4.103  0.00  0.00    +0.121 C 
ATOM     20  C   UNL     1     -35.092  24.367   4.728  0.00  0.00    +0.243 C 
BRANCH  20  21
ATOM     21  N   UNL     1     -35.821  23.467   5.436  0.00  0.00    -0.178 NA
BRANCH  21  24
ATOM     22  N   UNL     1     -34.743  21.480   6.294  0.00  0.00    -0.370 N 
ATOM     23  N   UNL     1     -35.809  21.442   4.279  0.00  0.00    -0.370 N 
ATOM     24  C   UNL     1     -35.464  22.206   5.369  0.00  0.00    +0.196 C 
ATOM     25  H   UNL     1     -34.433  21.910   7.124  0.00  0.00    +0.159 HD
ATOM     26  H   UNL     1     -34.539  20.533   6.125  0.00  0.00    +0.159 HD
ATOM     27  H   UNL     1     -36.327  21.841   3.543  0.00  0.00    +0.159 HD
ATOM     28  H   UNL     1     -35.538  20.496   4.234  0.00  0.00    +0.159 HD
ENDBRANCH  21  24
ENDBRANCH  20  21
ENDBRANCH  15  18
ENDBRANCH   1  15
TORSDOF 10
ENDMDL
MODEL 7
REMARK VINA RESULT:      -4.7      1.929      4.742
REMARK  Name = 5702160
REMARK  10 active torsions:
REMARK  status: ('A' for Active; 'I' for Inactive)
REMARK    1  A    between atoms: S_1  and  C_2
REMARK    2  A    between atoms: S_1  and  C_15
REMARK    3  A    between atoms: C_2  and  C_3
REMARK    4  A    between atoms: C_3  and  C_6
REMARK    5  A    between atoms: N_4  and  C_6
REMARK    6  A    between atoms: N_4  and  S_9
REMARK    7  A    between atoms: S_9  and  N_12
REMARK    8  A    between atoms: C_15  and  C_18
REMARK    9  A    between atoms: C_20  and  N_21
REMARK   10  A    between atoms: N_21  and  C_24
REMARK                            x       y       z     vdW  Elec       q    Type
REMARK                         _______ _______ _______ _____ _____    ______ ____
ROOT
ATOM      1  S   UNL     1     -34.648  26.264   4.790  0.00  0.00    -0.133 S 
ENDROOT
BRANCH   1   2
ATOM      2  C   UNL     1     -34.066  24.568   4.488  0.00  0.00    +0.066 C 
BRANCH   2   3
ATOM      3  C   UNL     1     -34.434  23.619   5.625  0.00  0.00    +0.074 C 
BRANCH   3   5
ATOM      4  N   UNL     1     -35.938  21.750   6.171  0.00  0.00    -0.387 N 
ATOM      5  C   UNL     1     -35.682  22.796   5.315  0.00  0.00    +0.122 C 
ATOM      6  H   UNL     1     -36.727  21.179   6.029  0.00  0.00    +0.157 HD
ATOM      7  H   UNL     1     -35.332  21.573   6.927  0.00  0.00    +0.157 HD
BRANCH   5   8
ATOM      8  N   UNL     1     -36.372  23.174   4.280  0.00  0.00    -0.074 NA
BRANCH   8   9
ATOM      9  S   UNL     1     -36.449  22.257   2.930  0.00  0.00    +0.127 S 
ATOM     10  O   UNL     1     -35.471  22.750   1.974  0.00  0.00    -0.137 OA
ATOM     11  O   UNL     1     -37.840  22.139   2.525  0.00  0.00    -0.137 OA
BRANCH   9  12
ATOM     12  N   UNL     1     -35.937  20.674   3.375  0.00  0.00    -0.189 NA
ATOM     13  H   UNL     1     -36.753  20.071   3.482  0.00  0.00    +0.146 HD
ATOM     14  H   UNL     1     -35.427  20.716   4.257  0.00  0.00    +0.146 HD
ENDBRANCH   9  12
ENDBRANCH   8   9
ENDBRANCH   5   8
ENDBRANCH   3   5
ENDBRANCH   2   3
ENDBRANCH   1   2
BRANCH   1  15
ATOM     15  C   UNL     1     -34.423  26.916   3.120  0.00  0.00    +0.113 C 
BRANCH  15  18
ATOM     16  S   UNL     1     -37.028  25.812   0.318  0.00  0.00    -0.055 S 
ATOM     17  N   UNL     1     -36.838  26.704   2.737  0.00  0.00    -0.384 NA
ATOM     18  C   UNL     1     -35.570  26.557   2.233  0.00  0.00    +0.111 C 
ATOM     19  C   UNL     1     -35.458  26.091   0.950  0.00  0.00    +0.121 C 
ATOM     20  C   UNL     1     -37.695  26.338   1.809  0.00  0.00    +0.243 C 
BRANCH  20  21
ATOM     21  N   UNL     1     -39.046  26.342   1.931  0.00  0.00    -0.178 NA
BRANCH  21  24
ATOM     22  N   UNL     1     -39.051  24.750   3.750  0.00  0.00    -0.370 N 
ATOM     23  N   UNL     1     -40.760  26.241   3.511  0.00  0.00    -0.370 N 
ATOM     24  C   UNL     1     -39.564  25.789   3.003  0.00  0.00    +0.196 C 
ATOM     25  H   UNL     1     -38.196  24.334   3.494  0.00  0.00    +0.159 HD
ATOM     26  H   UNL     1     -39.540  24.424   4.540  0.00  0.00    +0.159 HD
ATOM     27  H   UNL     1     -41.233  26.982   3.069  0.00  0.00    +0.159 HD
ATOM     28  H   UNL     1     -41.143  25.822   4.315  0.00  0.00    +0.159 HD
ENDBRANCH  21  24
ENDBRANCH  20  21
ENDBRANCH  15  18
ENDBRANCH   1  15
TORSDOF 10
ENDMDL
MODEL 8
REMARK VINA RESULT:      -4.6      5.103      7.001
REMARK  Name = 5702160
REMARK  10 active torsions:
REMARK  status: ('A' for Active; 'I' for Inactive)
REMARK    1  A    between atoms: S_1  and  C_2
REMARK    2  A    between atoms: S_1  and  C_15
REMARK    3  A    between atoms: C_2  and  C_3
REMARK    4  A    between atoms: C_3  and  C_6
REMARK    5  A    between atoms: N_4  and  C_6
REMARK    6  A    between atoms: N_4  and  S_9
REMARK    7  A    between atoms: S_9  and  N_12
REMARK    8  A    between atoms: C_15  and  C_18
REMARK    9  A    between atoms: C_20  and  N_21
REMARK   10  A    between atoms: N_21  and  C_24
REMARK                            x       y       z     vdW  Elec       q    Type
REMARK                         _______ _______ _______ _____ _____    ______ ____
ROOT
ATOM      1  S   UNL     1     -35.564  26.158   2.418  0.00  0.00    -0.133 S 
ENDROOT
BRANCH   1   2
ATOM      2  C   UNL     1     -34.715  27.368   3.478  0.00  0.00    +0.066 C 
BRANCH   2   3
ATOM      3  C   UNL     1     -33.397  26.831   4.026  0.00  0.00    +0.074 C 
BRANCH   3   5
ATOM      4  N   UNL     1     -33.251  26.849   6.483  0.00  0.00    -0.387 N 
ATOM      5  C   UNL     1     -32.976  27.528   5.318  0.00  0.00    +0.122 C 
ATOM      6  H   UNL     1     -33.006  27.242   7.351  0.00  0.00    +0.157 HD
ATOM      7  H   UNL     1     -33.692  25.969   6.447  0.00  0.00    +0.157 HD
BRANCH   5   8
ATOM      8  N   UNL     1     -32.400  28.684   5.180  0.00  0.00    -0.074 NA
BRANCH   8   9
ATOM      9  S   UNL     1     -31.194  29.156   6.177  0.00  0.00    +0.127 S 
ATOM     10  O   UNL     1     -31.770  29.552   7.451  0.00  0.00    -0.137 OA
ATOM     11  O   UNL     1     -30.337  30.091   5.464  0.00  0.00    -0.137 OA
BRANCH   9  12
ATOM     12  N   UNL     1     -30.234  27.762   6.491  0.00  0.00    -0.189 NA
ATOM     13  H   UNL     1     -30.442  27.042   5.798  0.00  0.00    +0.146 HD
ATOM     14  H   UNL     1     -30.445  27.406   7.423  0.00  0.00    +0.146 HD
ENDBRANCH   9  12
ENDBRANCH   8   9
ENDBRANCH   5   8
ENDBRANCH   3   5
ENDBRANCH   2   3
ENDBRANCH   1   2
BRANCH   1  15
ATOM     15  C   UNL     1     -36.702  25.488   3.650  0.00  0.00    +0.113 C 
BRANCH  15  18
ATOM     16  S   UNL     1     -35.152  22.568   5.870  0.00  0.00    -0.055 S 
ATOM     17  N   UNL     1     -36.126  23.105   3.536  0.00  0.00    -0.384 NA
ATOM     18  C   UNL     1     -36.154  24.253   4.288  0.00  0.00    +0.111 C 
ATOM     19  C   UNL     1     -35.675  24.173   5.568  0.00  0.00    +0.121 C 
ATOM     20  C   UNL     1     -35.613  22.144   4.273  0.00  0.00    +0.243 C 
BRANCH  20  21
ATOM     21  N   UNL     1     -35.422  20.859   3.880  0.00  0.00    -0.178 NA
BRANCH  21  24
ATOM     22  N   UNL     1     -34.790  20.846   1.546  0.00  0.00    -0.370 N 
ATOM     23  N   UNL     1     -36.764  19.922   2.217  0.00  0.00    -0.370 N 
ATOM     24  C   UNL     1     -35.618  20.573   2.614  0.00  0.00    +0.196 C 
ATOM     25  H   UNL     1     -33.934  21.310   1.693  0.00  0.00    +0.159 HD
ATOM     26  H   UNL     1     -35.053  20.577   0.637  0.00  0.00    +0.159 HD
ATOM     27  H   UNL     1     -37.442  19.669   2.884  0.00  0.00    +0.159 HD
ATOM     28  H   UNL     1     -36.905  19.711   1.266  0.00  0.00    +0.159 HD
ENDBRANCH  21  24
ENDBRANCH  20  21
ENDBRANCH  15  18
ENDBRANCH   1  15
TORSDOF 10
ENDMDL
MODEL 9
REMARK VINA RESULT:      -4.6      1.894      2.432
REMARK  Name = 5702160
REMARK  10 active torsions:
REMARK  status: ('A' for Active; 'I' for Inactive)
REMARK    1  A    between atoms: S_1  and  C_2
REMARK    2  A    between atoms: S_1  and  C_15
REMARK    3  A    between atoms: C_2  and  C_3
REMARK    4  A    between atoms: C_3  and  C_6
REMARK    5  A    between atoms: N_4  and  C_6
REMARK    6  A    between atoms: N_4  and  S_9
REMARK    7  A    between atoms: S_9  and  N_12
REMARK    8  A    between atoms: C_15  and  C_18
REMARK    9  A    between atoms: C_20  and  N_21
REMARK   10  A    between atoms: N_21  and  C_24
REMARK                            x       y       z     vdW  Elec       q    Type
REMARK                         _______ _______ _______ _____ _____    ______ ____
ROOT
ATOM      1  S   UNL     1     -36.917  26.317   2.226  0.00  0.00    -0.133 S 
ENDROOT
BRANCH   1   2
ATOM      2  C   UNL     1     -38.499  26.204   1.335  0.00  0.00    +0.066 C 
BRANCH   2   3
ATOM      3  C   UNL     1     -38.530  25.034   0.357  0.00  0.00    +0.074 C 
BRANCH   3   5
ATOM      4  N   UNL     1     -40.232  24.096   1.867  0.00  0.00    -0.387 N 
ATOM      5  C   UNL     1     -39.271  23.824   0.920  0.00  0.00    +0.122 C 
ATOM      6  H   UNL     1     -40.747  23.361   2.270  0.00  0.00    +0.157 HD
ATOM      7  H   UNL     1     -40.404  25.026   2.140  0.00  0.00    +0.157 HD
BRANCH   5   8
ATOM      8  N   UNL     1     -38.921  22.668   0.441  0.00  0.00    -0.074 NA
BRANCH   8   9
ATOM      9  S   UNL     1     -39.857  21.345   0.645  0.00  0.00    +0.127 S 
ATOM     10  O   UNL     1     -39.165  20.193   0.090  0.00  0.00    -0.137 OA
ATOM     11  O   UNL     1     -41.204  21.651   0.191  0.00  0.00    -0.137 OA
BRANCH   9  12
ATOM     12  N   UNL     1     -39.968  21.072   2.342  0.00  0.00    -0.189 NA
ATOM     13  H   UNL     1     -40.741  21.617   2.724  0.00  0.00    +0.146 HD
ATOM     14  H   UNL     1     -39.097  21.357   2.790  0.00  0.00    +0.146 HD
ENDBRANCH   9  12
ENDBRANCH   8   9
ENDBRANCH   5   8
ENDBRANCH   3   5
ENDBRANCH   2   3
ENDBRANCH   1   2
BRANCH   1  15
ATOM     15  C   UNL     1     -37.443  25.567   3.783  0.00  0.00    +0.113 C 
BRANCH  15  18
ATOM     16  S   UNL     1     -35.142  22.678   5.273  0.00  0.00    -0.055 S 
ATOM     17  N   UNL     1     -36.454  23.406   3.167  0.00  0.00    -0.384 NA
ATOM     18  C   UNL     1     -36.609  24.376   4.127  0.00  0.00    +0.111 C 
ATOM     19  C   UNL     1     -35.982  24.172   5.327  0.00  0.00    +0.121 C 
ATOM     20  C   UNL     1     -35.694  22.455   3.663  0.00  0.00    +0.243 C 
BRANCH  20  21
ATOM     21  N   UNL     1     -35.314  21.324   3.016  0.00  0.00    -0.178 NA
BRANCH  21  24
ATOM     22  N   UNL     1     -36.187  21.272   0.762  0.00  0.00    -0.370 N 
ATOM     23  N   UNL     1     -36.997  19.851   2.351  0.00  0.00    -0.370 N 
ATOM     24  C   UNL     1     -36.107  20.863   2.077  0.00  0.00    +0.196 C 
ATOM     25  H   UNL     1     -35.602  21.993   0.434  0.00  0.00    +0.159 HD
ATOM     26  H   UNL     1     -36.829  20.843   0.152  0.00  0.00    +0.159 HD
ATOM     27  H   UNL     1     -37.042  19.468   3.256  0.00  0.00    +0.159 HD
ATOM     28  H   UNL     1     -37.589  19.511   1.642  0.00  0.00    +0.159 HD
ENDBRANCH  21  24
ENDBRANCH  20  21
ENDBRANCH  15  18
ENDBRANCH   1  15
TORSDOF 10
ENDMDL
