MODEL 1
REMARK VINA RESULT:      -5.5      0.000      0.000
REMARK  Name = 194337
REMARK  12 active torsions:
REMARK  status: ('A' for Active; 'I' for Inactive)
REMARK    1  A    between atoms: N_1  and  C_6
REMARK    2  A    between atoms: N_1  and  C_15
REMARK    3  A    between atoms: C_10  and  N_14
REMARK    4  A    between atoms: C_15  and  C_16
REMARK    5  A    between atoms: C_16  and  C_17
REMARK    6  A    between atoms: C_17  and  C_18
REMARK    7  A    between atoms: C_18  and  C_19
REMARK    8  A    between atoms: C_19  and  C_21
REMARK    9  A    between atoms: C_21  and  O_22
REMARK   10  A    between atoms: O_22  and  C_23
REMARK   11  A    between atoms: C_23  and  C_24
REMARK   12  A    between atoms: C_24  and  N_25
REMARK                            x       y       z     vdW  Elec       q    Type
REMARK                         _______ _______ _______ _____ _____    ______ ____
ROOT
ATOM      1  N   UNL     1     -36.795  21.851   3.092  0.00  0.00    -0.331 N 
ATOM      2  H   UNL     1     -37.143  20.952   2.892  0.00  0.00    +0.147 HD
ENDROOT
BRANCH   1   6
ATOM      3  O   UNL     1     -40.704  22.295   1.195  0.00  0.00    -0.241 OA
ATOM      4  N   UNL     1     -39.508  21.817   1.703  0.00  0.00    -0.047 NA
ATOM      5  N   UNL     1     -40.849  23.655   1.412  0.00  0.00    -0.047 NA
ATOM      6  C   UNL     1     -37.635  22.935   2.896  0.00  0.00    +0.068 C 
ATOM      7  C   UNL     1     -38.891  22.875   2.244  0.00  0.00    +0.158 A 
ATOM      8  C   UNL     1     -37.299  24.235   3.345  0.00  0.00    +0.018 C 
ATOM      9  C   UNL     1     -39.744  24.043   2.058  0.00  0.00    +0.167 A 
ATOM     10  C   UNL     1     -39.378  25.322   2.517  0.00  0.00    +0.165 C 
ATOM     11  C   UNL     1     -38.130  25.372   3.165  0.00  0.00    +0.027 C 
BRANCH  10  14
ATOM     12  O   UNL     1     -40.200  27.052   1.232  0.00  0.00    -0.126 OA
ATOM     13  O   UNL     1     -40.945  26.830   3.285  0.00  0.00    -0.126 OA
ATOM     14  N   UNL     1     -40.209  26.449   2.338  0.00  0.00    +0.059 N 
ENDBRANCH  10  14
ENDBRANCH   1   6
BRANCH   1  15
ATOM     15  C   UNL     1     -35.439  21.964   3.573  0.00  0.00    +0.087 C 
BRANCH  15  16
ATOM     16  C   UNL     1     -35.357  21.445   5.004  0.00  0.00    +0.021 C 
BRANCH  16  17
ATOM     17  C   UNL     1     -35.148  22.588   6.000  0.00  0.00    +0.002 C 
BRANCH  17  18
ATOM     18  C   UNL     1     -34.479  23.792   5.332  0.00  0.00    +0.012 C 
BRANCH  18  19
ATOM     19  C   UNL     1     -35.002  25.124   5.870  0.00  0.00    +0.110 C 
BRANCH  19  21
ATOM     20  O   UNL     1     -33.033  26.532   5.625  0.00  0.00    -0.250 OA
ATOM     21  C   UNL     1     -34.211  26.317   5.379  0.00  0.00    +0.317 C 
BRANCH  21  22
ATOM     22  O   UNL     1     -35.036  27.123   4.647  0.00  0.00    -0.451 OA
BRANCH  22  23
ATOM     23  C   UNL     1     -34.748  27.186   3.246  0.00  0.00    +0.186 C 
BRANCH  23  24
ATOM     24  C   UNL     1     -34.583  28.635   2.827  0.00  0.00    -0.025 C 
BRANCH  24  25
ATOM     25  N   UNL     1     -33.144  28.917   2.596  0.00  0.00    +0.388 N 
ATOM     26  C   UNL     1     -32.519  29.593   3.824  0.00  0.00    -0.096 C 
ATOM     27  C   UNL     1     -32.959  29.850   1.391  0.00  0.00    -0.096 C 
ATOM     28  C   UNL     1     -32.373  27.620   2.319  0.00  0.00    -0.096 C 
ENDBRANCH  24  25
ENDBRANCH  23  24
ENDBRANCH  22  23
ENDBRANCH  21  22
ENDBRANCH  19  21
ENDBRANCH  18  19
ENDBRANCH  17  18
ENDBRANCH  16  17
ENDBRANCH  15  16
ENDBRANCH   1  15
TORSDOF 12
ENDMDL
MODEL 2
REMARK VINA RESULT:      -5.4      1.877      2.653
REMARK  Name = 194337
REMARK  12 active torsions:
REMARK  status: ('A' for Active; 'I' for Inactive)
REMARK    1  A    between atoms: N_1  and  C_6
REMARK    2  A    between atoms: N_1  and  C_15
REMARK    3  A    between atoms: C_10  and  N_14
REMARK    4  A    between atoms: C_15  and  C_16
REMARK    5  A    between atoms: C_16  and  C_17
REMARK    6  A    between atoms: C_17  and  C_18
REMARK    7  A    between atoms: C_18  and  C_19
REMARK    8  A    between atoms: C_19  and  C_21
REMARK    9  A    between atoms: C_21  and  O_22
REMARK   10  A    between atoms: O_22  and  C_23
REMARK   11  A    between atoms: C_23  and  C_24
REMARK   12  A    between atoms: C_24  and  N_25
REMARK                            x       y       z     vdW  Elec       q    Type
REMARK                         _______ _______ _______ _____ _____    ______ ____
ROOT
ATOM      1  N   UNL     1     -36.955  22.783   3.590  0.00  0.00    -0.331 N 
ATOM      2  H   UNL     1     -37.734  22.353   4.014  0.00  0.00    +0.147 HD
ENDROOT
BRANCH   1   6
ATOM      3  O   UNL     1     -40.348  25.521   3.322  0.00  0.00    -0.241 OA
ATOM      4  N   UNL     1     -39.493  24.472   3.613  0.00  0.00    -0.047 NA
ATOM      5  N   UNL     1     -39.753  26.454   2.490  0.00  0.00    -0.047 NA
ATOM      6  C   UNL     1     -37.154  23.984   2.927  0.00  0.00    +0.068 C 
ATOM      7  C   UNL     1     -38.352  24.738   2.966  0.00  0.00    +0.158 A 
ATOM      8  C   UNL     1     -36.145  24.577   2.132  0.00  0.00    +0.018 C 
ATOM      9  C   UNL     1     -38.518  25.998   2.251  0.00  0.00    +0.167 A 
ATOM     10  C   UNL     1     -37.493  26.559   1.467  0.00  0.00    +0.165 C 
ATOM     11  C   UNL     1     -36.306  25.804   1.436  0.00  0.00    +0.027 C 
BRANCH  10  14
ATOM     12  O   UNL     1     -38.403  27.822  -0.234  0.00  0.00    -0.126 OA
ATOM     13  O   UNL     1     -37.059  28.808   1.195  0.00  0.00    -0.126 OA
ATOM     14  N   UNL     1     -37.658  27.781   0.780  0.00  0.00    +0.059 N 
ENDBRANCH  10  14
ENDBRANCH   1   6
BRANCH   1  15
ATOM     15  C   UNL     1     -35.675  22.127   3.695  0.00  0.00    +0.087 C 
BRANCH  15  16
ATOM     16  C   UNL     1     -35.377  21.811   5.156  0.00  0.00    +0.021 C 
BRANCH  16  17
ATOM     17  C   UNL     1     -35.291  23.086   5.997  0.00  0.00    +0.002 C 
BRANCH  17  18
ATOM     18  C   UNL     1     -34.336  24.103   5.367  0.00  0.00    +0.012 C 
BRANCH  18  19
ATOM     19  C   UNL     1     -34.813  25.544   5.550  0.00  0.00    +0.110 C 
BRANCH  19  21
ATOM     20  O   UNL     1     -32.923  26.533   6.721  0.00  0.00    -0.250 OA
ATOM     21  C   UNL     1     -33.680  26.526   5.761  0.00  0.00    +0.317 C 
BRANCH  21  22
ATOM     22  O   UNL     1     -33.663  27.411   4.721  0.00  0.00    -0.451 OA
BRANCH  22  23
ATOM     23  C   UNL     1     -32.367  27.877   4.331  0.00  0.00    +0.186 C 
BRANCH  23  24
ATOM     24  C   UNL     1     -32.401  29.384   4.156  0.00  0.00    -0.025 C 
BRANCH  24  25
ATOM     25  N   UNL     1     -31.355  30.000   5.010  0.00  0.00    +0.388 N 
ATOM     26  C   UNL     1     -29.992  29.338   4.764  0.00  0.00    -0.096 C 
ATOM     27  C   UNL     1     -31.702  29.842   6.496  0.00  0.00    -0.096 C 
ATOM     28  C   UNL     1     -31.219  31.499   4.708  0.00  0.00    -0.096 C 
ENDBRANCH  24  25
ENDBRANCH  23  24
ENDBRANCH  22  23
ENDBRANCH  21  22
ENDBRANCH  19  21
ENDBRANCH  18  19
ENDBRANCH  17  18
ENDBRANCH  16  17
ENDBRANCH  15  16
ENDBRANCH   1  15
TORSDOF 12
ENDMDL
MODEL 3
REMARK VINA RESULT:      -5.3      1.322      1.775
REMARK  Name = 194337
REMARK  12 active torsions:
REMARK  status: ('A' for Active; 'I' for Inactive)
REMARK    1  A    between atoms: N_1  and  C_6
REMARK    2  A    between atoms: N_1  and  C_15
REMARK    3  A    between atoms: C_10  and  N_14
REMARK    4  A    between atoms: C_15  and  C_16
REMARK    5  A    between atoms: C_16  and  C_17
REMARK    6  A    between atoms: C_17  and  C_18
REMARK    7  A    between atoms: C_18  and  C_19
REMARK    8  A    between atoms: C_19  and  C_21
REMARK    9  A    between atoms: C_21  and  O_22
REMARK   10  A    between atoms: O_22  and  C_23
REMARK   11  A    between atoms: C_23  and  C_24
REMARK   12  A    between atoms: C_24  and  N_25
REMARK                            x       y       z     vdW  Elec       q    Type
REMARK                         _______ _______ _______ _____ _____    ______ ____
ROOT
ATOM      1  N   UNL     1     -37.243  22.115   3.060  0.00  0.00    -0.331 N 
ATOM      2  H   UNL     1     -37.653  21.221   3.097  0.00  0.00    +0.147 HD
ENDROOT
BRANCH   1   6
ATOM      3  O   UNL     1     -40.993  22.586   0.871  0.00  0.00    -0.241 OA
ATOM      4  N   UNL     1     -39.839  22.101   1.463  0.00  0.00    -0.047 NA
ATOM      5  N   UNL     1     -41.157  23.942   1.097  0.00  0.00    -0.047 NA
ATOM      6  C   UNL     1     -38.068  23.202   2.816  0.00  0.00    +0.068 C 
ATOM      7  C   UNL     1     -39.268  23.151   2.067  0.00  0.00    +0.158 A 
ATOM      8  C   UNL     1     -37.770  24.494   3.310  0.00  0.00    +0.018 C 
ATOM      9  C   UNL     1     -40.107  24.321   1.833  0.00  0.00    +0.167 A 
ATOM     10  C   UNL     1     -39.781  25.593   2.339  0.00  0.00    +0.165 C 
ATOM     11  C   UNL     1     -38.587  25.634   3.083  0.00  0.00    +0.027 C 
BRANCH  10  14
ATOM     12  O   UNL     1     -40.492  27.351   1.026  0.00  0.00    -0.126 OA
ATOM     13  O   UNL     1     -41.417  27.078   2.999  0.00  0.00    -0.126 OA
ATOM     14  N   UNL     1     -40.597  26.721   2.113  0.00  0.00    +0.059 N 
ENDBRANCH  10  14
ENDBRANCH   1   6
BRANCH   1  15
ATOM     15  C   UNL     1     -35.818  22.219   3.264  0.00  0.00    +0.087 C 
BRANCH  15  16
ATOM     16  C   UNL     1     -35.460  21.712   4.656  0.00  0.00    +0.021 C 
BRANCH  16  17
ATOM     17  C   UNL     1     -35.399  22.857   5.669  0.00  0.00    +0.002 C 
BRANCH  17  18
ATOM     18  C   UNL     1     -34.491  23.987   5.176  0.00  0.00    +0.012 C 
BRANCH  18  19
ATOM     19  C   UNL     1     -35.005  25.368   5.580  0.00  0.00    +0.110 C 
BRANCH  19  21
ATOM     20  O   UNL     1     -32.926  26.628   5.471  0.00  0.00    -0.250 OA
ATOM     21  C   UNL     1     -34.096  26.496   5.140  0.00  0.00    +0.317 C 
BRANCH  21  22
ATOM     22  O   UNL     1     -34.804  27.349   4.342  0.00  0.00    -0.451 OA
BRANCH  22  23
ATOM     23  C   UNL     1     -34.303  27.503   3.010  0.00  0.00    +0.186 C 
BRANCH  23  24
ATOM     24  C   UNL     1     -34.823  26.376   2.138  0.00  0.00    -0.025 C 
BRANCH  24  25
ATOM     25  N   UNL     1     -35.482  26.949   0.938  0.00  0.00    +0.388 N 
ATOM     26  C   UNL     1     -36.462  28.061   1.335  0.00  0.00    -0.096 C 
ATOM     27  C   UNL     1     -36.266  25.870   0.179  0.00  0.00    -0.096 C 
ATOM     28  C   UNL     1     -34.443  27.547  -0.021  0.00  0.00    -0.096 C 
ENDBRANCH  24  25
ENDBRANCH  23  24
ENDBRANCH  22  23
ENDBRANCH  21  22
ENDBRANCH  19  21
ENDBRANCH  18  19
ENDBRANCH  17  18
ENDBRANCH  16  17
ENDBRANCH  15  16
ENDBRANCH   1  15
TORSDOF 12
ENDMDL
MODEL 4
REMARK VINA RESULT:      -5.1      4.476      8.228
REMARK  Name = 194337
REMARK  12 active torsions:
REMARK  status: ('A' for Active; 'I' for Inactive)
REMARK    1  A    between atoms: N_1  and  C_6
REMARK    2  A    between atoms: N_1  and  C_15
REMARK    3  A    between atoms: C_10  and  N_14
REMARK    4  A    between atoms: C_15  and  C_16
REMARK    5  A    between atoms: C_16  and  C_17
REMARK    6  A    between atoms: C_17  and  C_18
REMARK    7  A    between atoms: C_18  and  C_19
REMARK    8  A    between atoms: C_19  and  C_21
REMARK    9  A    between atoms: C_21  and  O_22
REMARK   10  A    between atoms: O_22  and  C_23
REMARK   11  A    between atoms: C_23  and  C_24
REMARK   12  A    between atoms: C_24  and  N_25
REMARK                            x       y       z     vdW  Elec       q    Type
REMARK                         _______ _______ _______ _____ _____    ______ ____
ROOT
ATOM      1  N   UNL     1     -38.212  24.603   3.939  0.00  0.00    -0.331 N 
ATOM      2  H   UNL     1     -38.808  24.612   4.722  0.00  0.00    +0.147 HD
ENDROOT
BRANCH   1   6
ATOM      3  O   UNL     1     -36.389  27.895   1.722  0.00  0.00    -0.241 OA
ATOM      4  N   UNL     1     -37.233  26.908   2.200  0.00  0.00    -0.047 NA
ATOM      5  N   UNL     1     -35.197  27.939   2.424  0.00  0.00    -0.047 NA
ATOM      6  C   UNL     1     -36.992  25.253   4.040  0.00  0.00    +0.068 C 
ATOM      7  C   UNL     1     -36.577  26.322   3.210  0.00  0.00    +0.158 A 
ATOM      8  C   UNL     1     -36.029  24.892   5.012  0.00  0.00    +0.018 C 
ATOM      9  C   UNL     1     -35.282  26.978   3.351  0.00  0.00    +0.167 A 
ATOM     10  C   UNL     1     -34.346  26.593   4.329  0.00  0.00    +0.165 C 
ATOM     11  C   UNL     1     -34.768  25.531   5.150  0.00  0.00    +0.027 C 
BRANCH  10  14
ATOM     12  O   UNL     1     -32.994  28.232   5.224  0.00  0.00    -0.126 OA
ATOM     13  O   UNL     1     -32.106  26.795   3.821  0.00  0.00    -0.126 OA
ATOM     14  N   UNL     1     -33.096  27.234   4.464  0.00  0.00    +0.059 N 
ENDBRANCH  10  14
ENDBRANCH   1   6
BRANCH   1  15
ATOM     15  C   UNL     1     -38.657  23.913   2.753  0.00  0.00    +0.087 C 
BRANCH  15  16
ATOM     16  C   UNL     1     -40.077  24.347   2.408  0.00  0.00    +0.021 C 
BRANCH  16  17
ATOM     17  C   UNL     1     -40.476  25.610   3.173  0.00  0.00    +0.002 C 
BRANCH  17  18
ATOM     18  C   UNL     1     -41.767  26.214   2.613  0.00  0.00    +0.012 C 
BRANCH  18  19
ATOM     19  C   UNL     1     -42.566  26.971   3.675  0.00  0.00    +0.110 C 
BRANCH  19  21
ATOM     20  O   UNL     1     -42.310  29.086   2.499  0.00  0.00    -0.250 OA
ATOM     21  C   UNL     1     -42.450  28.475   3.549  0.00  0.00    +0.317 C 
BRANCH  21  22
ATOM     22  O   UNL     1     -42.499  29.028   4.797  0.00  0.00    -0.451 OA
BRANCH  22  23
ATOM     23  C   UNL     1     -43.813  29.232   5.328  0.00  0.00    +0.186 C 
BRANCH  23  24
ATOM     24  C   UNL     1     -43.856  30.548   6.081  0.00  0.00    -0.025 C 
BRANCH  24  25
ATOM     25  N   UNL     1     -44.699  30.390   7.294  0.00  0.00    +0.388 N 
ATOM     26  C   UNL     1     -45.397  29.024   7.297  0.00  0.00    -0.096 C 
ATOM     27  C   UNL     1     -45.779  31.479   7.352  0.00  0.00    -0.096 C 
ATOM     28  C   UNL     1     -43.847  30.495   8.566  0.00  0.00    -0.096 C 
ENDBRANCH  24  25
ENDBRANCH  23  24
ENDBRANCH  22  23
ENDBRANCH  21  22
ENDBRANCH  19  21
ENDBRANCH  18  19
ENDBRANCH  17  18
ENDBRANCH  16  17
ENDBRANCH  15  16
ENDBRANCH   1  15
TORSDOF 12
ENDMDL
MODEL 5
REMARK VINA RESULT:      -5.0      1.558      2.061
REMARK  Name = 194337
REMARK  12 active torsions:
REMARK  status: ('A' for Active; 'I' for Inactive)
REMARK    1  A    between atoms: N_1  and  C_6
REMARK    2  A    between atoms: N_1  and  C_15
REMARK    3  A    between atoms: C_10  and  N_14
REMARK    4  A    between atoms: C_15  and  C_16
REMARK    5  A    between atoms: C_16  and  C_17
REMARK    6  A    between atoms: C_17  and  C_18
REMARK    7  A    between atoms: C_18  and  C_19
REMARK    8  A    between atoms: C_19  and  C_21
REMARK    9  A    between atoms: C_21  and  O_22
REMARK   10  A    between atoms: O_22  and  C_23
REMARK   11  A    between atoms: C_23  and  C_24
REMARK   12  A    between atoms: C_24  and  N_25
REMARK                            x       y       z     vdW  Elec       q    Type
REMARK                         _______ _______ _______ _____ _____    ______ ____
ROOT
ATOM      1  N   UNL     1     -37.293  22.514   3.636  0.00  0.00    -0.331 N 
ATOM      2  H   UNL     1     -37.842  22.025   4.292  0.00  0.00    +0.147 HD
ENDROOT
BRANCH   1   6
ATOM      3  O   UNL     1     -40.883  22.787   1.163  0.00  0.00    -0.241 OA
ATOM      4  N   UNL     1     -39.847  22.364   1.978  0.00  0.00    -0.047 NA
ATOM      5  N   UNL     1     -40.772  24.129   0.842  0.00  0.00    -0.047 NA
ATOM      6  C   UNL     1     -37.885  23.553   2.936  0.00  0.00    +0.068 C 
ATOM      7  C   UNL     1     -39.075  23.440   2.176  0.00  0.00    +0.158 A 
ATOM      8  C   UNL     1     -37.333  24.856   2.921  0.00  0.00    +0.018 C 
ATOM      9  C   UNL     1     -39.663  24.562   1.454  0.00  0.00    +0.167 A 
ATOM     10  C   UNL     1     -39.087  25.845   1.459  0.00  0.00    +0.165 C 
ATOM     11  C   UNL     1     -37.906  25.949   2.217  0.00  0.00    +0.027 C 
BRANCH  10  14
ATOM     12  O   UNL     1     -39.216  27.235  -0.376  0.00  0.00    -0.126 OA
ATOM     13  O   UNL     1     -40.612  27.566   1.286  0.00  0.00    -0.126 OA
ATOM     14  N   UNL     1     -39.663  26.928   0.761  0.00  0.00    +0.059 N 
ENDBRANCH  10  14
ENDBRANCH   1   6
BRANCH   1  15
ATOM     15  C   UNL     1     -35.920  22.108   3.460  0.00  0.00    +0.087 C 
BRANCH  15  16
ATOM     16  C   UNL     1     -35.281  21.853   4.820  0.00  0.00    +0.021 C 
BRANCH  16  17
ATOM     17  C   UNL     1     -35.297  23.112   5.689  0.00  0.00    +0.002 C 
BRANCH  17  18
ATOM     18  C   UNL     1     -34.432  24.219   5.078  0.00  0.00    +0.012 C 
BRANCH  18  19
ATOM     19  C   UNL     1     -34.718  25.589   5.693  0.00  0.00    +0.110 C 
BRANCH  19  21
ATOM     20  O   UNL     1     -34.419  27.454   4.159  0.00  0.00    -0.250 OA
ATOM     21  C   UNL     1     -33.963  26.715   5.019  0.00  0.00    +0.317 C 
BRANCH  21  22
ATOM     22  O   UNL     1     -32.688  26.746   5.508  0.00  0.00    -0.451 OA
BRANCH  22  23
ATOM     23  C   UNL     1     -32.184  28.047   5.829  0.00  0.00    +0.186 C 
BRANCH  23  24
ATOM     24  C   UNL     1     -31.091  28.425   4.847  0.00  0.00    -0.025 C 
BRANCH  24  25
ATOM     25  N   UNL     1     -30.822  29.881   4.948  0.00  0.00    +0.388 N 
ATOM     26  C   UNL     1     -31.965  30.595   5.684  0.00  0.00    -0.096 C 
ATOM     27  C   UNL     1     -30.686  30.508   3.554  0.00  0.00    -0.096 C 
ATOM     28  C   UNL     1     -29.521  30.142   5.719  0.00  0.00    -0.096 C 
ENDBRANCH  24  25
ENDBRANCH  23  24
ENDBRANCH  22  23
ENDBRANCH  21  22
ENDBRANCH  19  21
ENDBRANCH  18  19
ENDBRANCH  17  18
ENDBRANCH  16  17
ENDBRANCH  15  16
ENDBRANCH   1  15
TORSDOF 12
ENDMDL
MODEL 6
REMARK VINA RESULT:      -5.0      2.348      3.793
REMARK  Name = 194337
REMARK  12 active torsions:
REMARK  status: ('A' for Active; 'I' for Inactive)
REMARK    1  A    between atoms: N_1  and  C_6
REMARK    2  A    between atoms: N_1  and  C_15
REMARK    3  A    between atoms: C_10  and  N_14
REMARK    4  A    between atoms: C_15  and  C_16
REMARK    5  A    between atoms: C_16  and  C_17
REMARK    6  A    between atoms: C_17  and  C_18
REMARK    7  A    between atoms: C_18  and  C_19
REMARK    8  A    between atoms: C_19  and  C_21
REMARK    9  A    between atoms: C_21  and  O_22
REMARK   10  A    between atoms: O_22  and  C_23
REMARK   11  A    between atoms: C_23  and  C_24
REMARK   12  A    between atoms: C_24  and  N_25
REMARK                            x       y       z     vdW  Elec       q    Type
REMARK                         _______ _______ _______ _____ _____    ______ ____
ROOT
ATOM      1  N   UNL     1     -36.749  22.624   3.717  0.00  0.00    -0.331 N 
ATOM      2  H   UNL     1     -36.892  23.387   4.323  0.00  0.00    +0.147 HD
ENDROOT
BRANCH   1   6
ATOM      3  O   UNL     1     -40.439  24.658   2.568  0.00  0.00    -0.241 OA
ATOM      4  N   UNL     1     -39.254  24.273   3.171  0.00  0.00    -0.047 NA
ATOM      5  N   UNL     1     -40.797  23.803   1.540  0.00  0.00    -0.047 NA
ATOM      6  C   UNL     1     -37.705  22.376   2.745  0.00  0.00    +0.068 C 
ATOM      7  C   UNL     1     -38.856  23.170   2.524  0.00  0.00    +0.158 A 
ATOM      8  C   UNL     1     -37.607  21.274   1.862  0.00  0.00    +0.018 C 
ATOM      9  C   UNL     1     -39.838  22.871   1.488  0.00  0.00    +0.167 A 
ATOM     10  C   UNL     1     -39.711  21.765   0.627  0.00  0.00    +0.165 C 
ATOM     11  C   UNL     1     -38.563  20.983   0.853  0.00  0.00    +0.027 C 
BRANCH  10  14
ATOM     12  O   UNL     1     -41.653  20.757  -0.098  0.00  0.00    -0.126 OA
ATOM     13  O   UNL     1     -40.504  21.963  -1.529  0.00  0.00    -0.126 OA
ATOM     14  N   UNL     1     -40.662  21.483  -0.376  0.00  0.00    +0.059 N 
ENDBRANCH  10  14
ENDBRANCH   1   6
BRANCH   1  15
ATOM     15  C   UNL     1     -35.558  21.829   3.892  0.00  0.00    +0.087 C 
BRANCH  15  16
ATOM     16  C   UNL     1     -35.215  21.735   5.375  0.00  0.00    +0.021 C 
BRANCH  16  17
ATOM     17  C   UNL     1     -35.346  23.095   6.065  0.00  0.00    +0.002 C 
BRANCH  17  18
ATOM     18  C   UNL     1     -34.384  24.120   5.457  0.00  0.00    +0.012 C 
BRANCH  18  19
ATOM     19  C   UNL     1     -34.936  25.545   5.517  0.00  0.00    +0.110 C 
BRANCH  19  21
ATOM     20  O   UNL     1     -35.122  27.407   3.961  0.00  0.00    -0.250 OA
ATOM     21  C   UNL     1     -35.036  26.203   4.157  0.00  0.00    +0.317 C 
BRANCH  21  22
ATOM     22  O   UNL     1     -35.043  25.232   3.196  0.00  0.00    -0.451 OA
BRANCH  22  23
ATOM     23  C   UNL     1     -34.968  25.703   1.846  0.00  0.00    +0.186 C 
BRANCH  23  24
ATOM     24  C   UNL     1     -35.669  24.721   0.927  0.00  0.00    -0.025 C 
BRANCH  24  25
ATOM     25  N   UNL     1     -36.594  25.462   0.032  0.00  0.00    +0.388 N 
ATOM     26  C   UNL     1     -35.809  26.335  -0.957  0.00  0.00    -0.096 C 
ATOM     27  C   UNL     1     -37.522  26.375   0.843  0.00  0.00    -0.096 C 
ATOM     28  C   UNL     1     -37.465  24.490  -0.775  0.00  0.00    -0.096 C 
ENDBRANCH  24  25
ENDBRANCH  23  24
ENDBRANCH  22  23
ENDBRANCH  21  22
ENDBRANCH  19  21
ENDBRANCH  18  19
ENDBRANCH  17  18
ENDBRANCH  16  17
ENDBRANCH  15  16
ENDBRANCH   1  15
TORSDOF 12
ENDMDL
MODEL 7
REMARK VINA RESULT:      -5.0      3.275      6.011
REMARK  Name = 194337
REMARK  12 active torsions:
REMARK  status: ('A' for Active; 'I' for Inactive)
REMARK    1  A    between atoms: N_1  and  C_6
REMARK    2  A    between atoms: N_1  and  C_15
REMARK    3  A    between atoms: C_10  and  N_14
REMARK    4  A    between atoms: C_15  and  C_16
REMARK    5  A    between atoms: C_16  and  C_17
REMARK    6  A    between atoms: C_17  and  C_18
REMARK    7  A    between atoms: C_18  and  C_19
REMARK    8  A    between atoms: C_19  and  C_21
REMARK    9  A    between atoms: C_21  and  O_22
REMARK   10  A    between atoms: O_22  and  C_23
REMARK   11  A    between atoms: C_23  and  C_24
REMARK   12  A    between atoms: C_24  and  N_25
REMARK                            x       y       z     vdW  Elec       q    Type
REMARK                         _______ _______ _______ _____ _____    ______ ____
ROOT
ATOM      1  N   UNL     1     -35.415  27.862   3.665  0.00  0.00    -0.331 N 
ATOM      2  H   UNL     1     -35.931  28.524   4.181  0.00  0.00    +0.147 HD
ENDROOT
BRANCH   1   6
ATOM      3  O   UNL     1     -38.365  24.712   2.995  0.00  0.00    -0.241 OA
ATOM      4  N   UNL     1     -37.657  25.900   3.016  0.00  0.00    -0.047 NA
ATOM      5  N   UNL     1     -37.713  23.710   3.693  0.00  0.00    -0.047 NA
ATOM      6  C   UNL     1     -35.488  26.533   4.053  0.00  0.00    +0.068 C 
ATOM      7  C   UNL     1     -36.550  25.655   3.728  0.00  0.00    +0.158 A 
ATOM      8  C   UNL     1     -34.475  25.923   4.831  0.00  0.00    +0.018 C 
ATOM      9  C   UNL     1     -36.587  24.262   4.159  0.00  0.00    +0.167 A 
ATOM     10  C   UNL     1     -35.562  23.687   4.933  0.00  0.00    +0.165 C 
ATOM     11  C   UNL     1     -34.510  24.567   5.250  0.00  0.00    +0.027 C 
BRANCH  10  14
ATOM     12  O   UNL     1     -35.263  21.436   4.533  0.00  0.00    -0.126 OA
ATOM     13  O   UNL     1     -35.971  22.060   6.515  0.00  0.00    -0.126 OA
ATOM     14  N   UNL     1     -35.601  22.338   5.345  0.00  0.00    +0.059 N 
ENDBRANCH  10  14
ENDBRANCH   1   6
BRANCH   1  15
ATOM     15  C   UNL     1     -34.629  28.330   2.551  0.00  0.00    +0.087 C 
BRANCH  15  16
ATOM     16  C   UNL     1     -33.730  29.477   3.001  0.00  0.00    +0.021 C 
BRANCH  16  17
ATOM     17  C   UNL     1     -34.503  30.795   3.075  0.00  0.00    +0.002 C 
BRANCH  17  18
ATOM     18  C   UNL     1     -33.615  31.981   2.689  0.00  0.00    +0.012 C 
BRANCH  18  19
ATOM     19  C   UNL     1     -32.326  31.543   1.993  0.00  0.00    +0.110 C 
BRANCH  19  21
ATOM     20  O   UNL     1     -30.044  32.388   2.006  0.00  0.00    -0.250 OA
ATOM     21  C   UNL     1     -31.082  32.149   2.607  0.00  0.00    +0.317 C 
BRANCH  21  22
ATOM     22  O   UNL     1     -31.302  32.357   3.938  0.00  0.00    -0.451 OA
BRANCH  22  23
ATOM     23  C   UNL     1     -30.557  31.515   4.824  0.00  0.00    +0.186 C 
BRANCH  23  24
ATOM     24  C   UNL     1     -31.510  30.624   5.599  0.00  0.00    -0.025 C 
BRANCH  24  25
ATOM     25  N   UNL     1     -30.890  29.287   5.783  0.00  0.00    +0.388 N 
ATOM     26  C   UNL     1     -31.922  28.277   6.304  0.00  0.00    -0.096 C 
ATOM     27  C   UNL     1     -29.737  29.356   6.792  0.00  0.00    -0.096 C 
ATOM     28  C   UNL     1     -30.332  28.759   4.455  0.00  0.00    -0.096 C 
ENDBRANCH  24  25
ENDBRANCH  23  24
ENDBRANCH  22  23
ENDBRANCH  21  22
ENDBRANCH  19  21
ENDBRANCH  18  19
ENDBRANCH  17  18
ENDBRANCH  16  17
ENDBRANCH  15  16
ENDBRANCH   1  15
TORSDOF 12
ENDMDL
MODEL 8
REMARK VINA RESULT:      -5.0      3.698      5.959
REMARK  Name = 194337
REMARK  12 active torsions:
REMARK  status: ('A' for Active; 'I' for Inactive)
REMARK    1  A    between atoms: N_1  and  C_6
REMARK    2  A    between atoms: N_1  and  C_15
REMARK    3  A    between atoms: C_10  and  N_14
REMARK    4  A    between atoms: C_15  and  C_16
REMARK    5  A    between atoms: C_16  and  C_17
REMARK    6  A    between atoms: C_17  and  C_18
REMARK    7  A    between atoms: C_18  and  C_19
REMARK    8  A    between atoms: C_19  and  C_21
REMARK    9  A    between atoms: C_21  and  O_22
REMARK   10  A    between atoms: O_22  and  C_23
REMARK   11  A    between atoms: C_23  and  C_24
REMARK   12  A    between atoms: C_24  and  N_25
REMARK                            x       y       z     vdW  Elec       q    Type
REMARK                         _______ _______ _______ _____ _____    ______ ____
ROOT
ATOM      1  N   UNL     1     -35.152  27.583   3.809  0.00  0.00    -0.331 N 
ATOM      2  H   UNL     1     -35.902  28.198   3.980  0.00  0.00    +0.147 HD
ENDROOT
BRANCH   1   6
ATOM      3  O   UNL     1     -37.848  24.341   2.667  0.00  0.00    -0.241 OA
ATOM      4  N   UNL     1     -37.179  25.547   2.788  0.00  0.00    -0.047 NA
ATOM      5  N   UNL     1     -37.335  23.380   3.521  0.00  0.00    -0.047 NA
ATOM      6  C   UNL     1     -35.281  26.266   4.223  0.00  0.00    +0.068 C 
ATOM      7  C   UNL     1     -36.238  25.352   3.721  0.00  0.00    +0.158 A 
ATOM      8  C   UNL     1     -34.439  25.707   5.214  0.00  0.00    +0.018 C 
ATOM      9  C   UNL     1     -36.339  23.974   4.187  0.00  0.00    +0.167 A 
ATOM     10  C   UNL     1     -35.485  23.450   5.175  0.00  0.00    +0.165 C 
ATOM     11  C   UNL     1     -34.536  24.365   5.667  0.00  0.00    +0.027 C 
BRANCH  10  14
ATOM     12  O   UNL     1     -36.094  21.877   6.747  0.00  0.00    -0.126 OA
ATOM     13  O   UNL     1     -35.163  21.186   4.882  0.00  0.00    -0.126 OA
ATOM     14  N   UNL     1     -35.584  22.114   5.620  0.00  0.00    +0.059 N 
ENDBRANCH  10  14
ENDBRANCH   1   6
BRANCH   1  15
ATOM     15  C   UNL     1     -33.984  28.104   3.142  0.00  0.00    +0.087 C 
BRANCH  15  16
ATOM     16  C   UNL     1     -33.551  27.145   2.039  0.00  0.00    +0.021 C 
BRANCH  16  17
ATOM     17  C   UNL     1     -32.278  26.388   2.425  0.00  0.00    +0.002 C 
BRANCH  17  18
ATOM     18  C   UNL     1     -31.075  26.876   1.614  0.00  0.00    +0.012 C 
BRANCH  18  19
ATOM     19  C   UNL     1     -30.128  27.746   2.441  0.00  0.00    +0.110 C 
BRANCH  19  21
ATOM     20  O   UNL     1     -28.874  25.768   3.102  0.00  0.00    -0.250 OA
ATOM     21  C   UNL     1     -28.939  26.984   2.984  0.00  0.00    +0.317 C 
BRANCH  21  22
ATOM     22  O   UNL     1     -27.969  27.876   3.344  0.00  0.00    -0.451 OA
BRANCH  22  23
ATOM     23  C   UNL     1     -28.384  28.903   4.251  0.00  0.00    +0.186 C 
BRANCH  23  24
ATOM     24  C   UNL     1     -27.549  28.832   5.515  0.00  0.00    -0.025 C 
BRANCH  24  25
ATOM     25  N   UNL     1     -28.414  28.429   6.653  0.00  0.00    +0.388 N 
ATOM     26  C   UNL     1     -29.897  28.530   6.270  0.00  0.00    -0.096 C 
ATOM     27  C   UNL     1     -28.171  29.333   7.868  0.00  0.00    -0.096 C 
ATOM     28  C   UNL     1     -28.125  26.981   7.069  0.00  0.00    -0.096 C 
ENDBRANCH  24  25
ENDBRANCH  23  24
ENDBRANCH  22  23
ENDBRANCH  21  22
ENDBRANCH  19  21
ENDBRANCH  18  19
ENDBRANCH  17  18
ENDBRANCH  16  17
ENDBRANCH  15  16
ENDBRANCH   1  15
TORSDOF 12
ENDMDL
MODEL 9
REMARK VINA RESULT:      -5.0      3.423      6.003
REMARK  Name = 194337
REMARK  12 active torsions:
REMARK  status: ('A' for Active; 'I' for Inactive)
REMARK    1  A    between atoms: N_1  and  C_6
REMARK    2  A    between atoms: N_1  and  C_15
REMARK    3  A    between atoms: C_10  and  N_14
REMARK    4  A    between atoms: C_15  and  C_16
REMARK    5  A    between atoms: C_16  and  C_17
REMARK    6  A    between atoms: C_17  and  C_18
REMARK    7  A    between atoms: C_18  and  C_19
REMARK    8  A    between atoms: C_19  and  C_21
REMARK    9  A    between atoms: C_21  and  O_22
REMARK   10  A    between atoms: O_22  and  C_23
REMARK   11  A    between atoms: C_23  and  C_24
REMARK   12  A    between atoms: C_24  and  N_25
REMARK                            x       y       z     vdW  Elec       q    Type
REMARK                         _______ _______ _______ _____ _____    ______ ____
ROOT
ATOM      1  N   UNL     1     -32.950  27.652   5.385  0.00  0.00    -0.331 N 
ATOM      2  H   UNL     1     -32.968  28.437   4.790  0.00  0.00    +0.147 HD
ENDROOT
BRANCH   1   6
ATOM      3  O   UNL     1     -33.343  25.432   1.644  0.00  0.00    -0.241 OA
ATOM      4  N   UNL     1     -32.997  26.330   2.638  0.00  0.00    -0.047 NA
ATOM      5  N   UNL     1     -34.247  24.485   2.097  0.00  0.00    -0.047 NA
ATOM      6  C   UNL     1     -33.689  26.539   5.016  0.00  0.00    +0.068 C 
ATOM      7  C   UNL     1     -33.681  25.956   3.726  0.00  0.00    +0.158 A 
ATOM      8  C   UNL     1     -34.540  25.870   5.927  0.00  0.00    +0.018 C 
ATOM      9  C   UNL     1     -34.476  24.783   3.381  0.00  0.00    +0.167 A 
ATOM     10  C   UNL     1     -35.314  24.142   4.313  0.00  0.00    +0.165 C 
ATOM     11  C   UNL     1     -35.315  24.727   5.592  0.00  0.00    +0.027 C 
BRANCH  10  14
ATOM     12  O   UNL     1     -35.538  21.868   4.003  0.00  0.00    -0.126 OA
ATOM     13  O   UNL     1     -37.287  23.148   3.652  0.00  0.00    -0.126 OA
ATOM     14  N   UNL     1     -36.078  23.005   3.975  0.00  0.00    +0.059 N 
ENDBRANCH  10  14
ENDBRANCH   1   6
BRANCH   1  15
ATOM     15  C   UNL     1     -32.157  27.727   6.587  0.00  0.00    +0.087 C 
BRANCH  15  16
ATOM     16  C   UNL     1     -31.784  29.178   6.868  0.00  0.00    +0.021 C 
BRANCH  16  17
ATOM     17  C   UNL     1     -30.368  29.494   6.382  0.00  0.00    +0.002 C 
BRANCH  17  18
ATOM     18  C   UNL     1     -30.392  30.433   5.173  0.00  0.00    +0.012 C 
BRANCH  18  19
ATOM     19  C   UNL     1     -31.753  31.104   4.983  0.00  0.00    +0.110 C 
BRANCH  19  21
ATOM     20  O   UNL     1     -32.003  31.212   2.565  0.00  0.00    -0.250 OA
ATOM     21  C   UNL     1     -32.391  30.792   3.646  0.00  0.00    +0.317 C 
BRANCH  21  22
ATOM     22  O   UNL     1     -33.479  29.993   3.852  0.00  0.00    -0.451 OA
BRANCH  22  23
ATOM     23  C   UNL     1     -34.391  29.901   2.752  0.00  0.00    +0.186 C 
BRANCH  23  24
ATOM     24  C   UNL     1     -35.507  30.912   2.933  0.00  0.00    -0.025 C 
BRANCH  24  25
ATOM     25  N   UNL     1     -36.081  31.250   1.606  0.00  0.00    +0.388 N 
ATOM     26  C   UNL     1     -35.038  31.948   0.723  0.00  0.00    -0.096 C 
ATOM     27  C   UNL     1     -37.285  32.189   1.757  0.00  0.00    -0.096 C 
ATOM     28  C   UNL     1     -36.552  29.983   0.878  0.00  0.00    -0.096 C 
ENDBRANCH  24  25
ENDBRANCH  23  24
ENDBRANCH  22  23
ENDBRANCH  21  22
ENDBRANCH  19  21
ENDBRANCH  18  19
ENDBRANCH  17  18
ENDBRANCH  16  17
ENDBRANCH  15  16
ENDBRANCH   1  15
TORSDOF 12
ENDMDL
