MODEL 1
REMARK VINA RESULT:      -5.5      0.000      0.000
REMARK  Name = 57414702
REMARK  9 active torsions:
REMARK  status: ('A' for Active; 'I' for Inactive)
REMARK    1  A    between atoms: C_3  and  C_14
REMARK    2  A    between atoms: C_3  and  C_19
REMARK    3  A    between atoms: C_4  and  C_24
REMARK    4  A    between atoms: C_14  and  O_15
REMARK    5  A    between atoms: O_15  and  C_16
REMARK    6  A    between atoms: C_19  and  O_20
REMARK    7  A    between atoms: O_20  and  C_21
REMARK    8  A    between atoms: C_24  and  O_25
REMARK    9  A    between atoms: O_25  and  C_26
REMARK                            x       y       z     vdW  Elec       q    Type
REMARK                         _______ _______ _______ _____ _____    ______ ____
ROOT
ATOM      1  O   UNL     1     -33.963  24.522   1.732  0.00  0.00    -0.290 OA
ATOM      2  N   UNL     1     -37.208  22.618   3.320  0.00  0.00    -0.324 N 
ATOM      3  C   UNL     1     -35.630  24.539   3.494  0.00  0.00    +0.259 C 
ATOM      4  C   UNL     1     -37.093  24.050   3.518  0.00  0.00    +0.197 C 
ATOM      5  C   UNL     1     -34.875  23.935   2.305  0.00  0.00    +0.196 C 
ATOM      6  C   UNL     1     -35.230  22.553   1.899  0.00  0.00    +0.049 C 
ATOM      7  C   UNL     1     -36.372  21.950   2.441  0.00  0.00    +0.048 C 
ATOM      8  C   UNL     1     -34.408  21.863   0.998  0.00  0.00    +0.004 C 
ATOM      9  C   UNL     1     -36.653  20.623   2.083  0.00  0.00    +0.014 C 
ATOM     10  C   UNL     1     -34.715  20.551   0.645  0.00  0.00    +0.000 C 
ATOM     11  C   UNL     1     -35.835  19.929   1.189  0.00  0.00    +0.001 C 
ATOM     12  H   UNL     1     -37.890  22.113   3.819  0.00  0.00    +0.147 HD
ENDROOT
BRANCH   3  14
ATOM     13  O   UNL     1     -33.765  24.280   5.018  0.00  0.00    -0.249 OA
ATOM     14  C   UNL     1     -34.952  24.108   4.779  0.00  0.00    +0.336 C 
BRANCH  14  15
ATOM     15  O   UNL     1     -35.865  23.513   5.599  0.00  0.00    -0.448 OA
BRANCH  15  16
ATOM     16  C   UNL     1     -35.339  22.525   6.489  0.00  0.00    +0.209 C 
ATOM     17  C   UNL     1     -35.078  21.250   5.715  0.00  0.00    +0.051 C 
ENDBRANCH  15  16
ENDBRANCH  14  15
ENDBRANCH   3  14
BRANCH   3  19
ATOM     18  O   UNL     1     -35.699  26.764   4.446  0.00  0.00    -0.249 OA
ATOM     19  C   UNL     1     -35.622  26.052   3.454  0.00  0.00    +0.336 C 
BRANCH  19  20
ATOM     20  O   UNL     1     -35.514  26.474   2.161  0.00  0.00    -0.448 OA
BRANCH  20  21
ATOM     21  C   UNL     1     -35.826  27.852   1.936  0.00  0.00    +0.209 C 
ATOM     22  C   UNL     1     -36.936  27.946   0.912  0.00  0.00    +0.051 C 
ENDBRANCH  20  21
ENDBRANCH  19  20
ENDBRANCH   3  19
BRANCH   4  24
ATOM     23  O   UNL     1     -37.907  24.472   1.286  0.00  0.00    -0.248 OA
ATOM     24  C   UNL     1     -37.960  24.714   2.484  0.00  0.00    +0.336 C 
BRANCH  24  25
ATOM     25  O   UNL     1     -38.793  25.606   3.093  0.00  0.00    -0.447 OA
BRANCH  25  26
ATOM     26  C   UNL     1     -40.122  25.137   3.341  0.00  0.00    +0.209 C 
ATOM     27  C   UNL     1     -41.088  26.294   3.205  0.00  0.00    +0.051 C 
ENDBRANCH  25  26
ENDBRANCH  24  25
ENDBRANCH   4  24
TORSDOF 9
ENDMDL
MODEL 2
REMARK VINA RESULT:      -5.5      1.703      3.423
REMARK  Name = 57414702
REMARK  9 active torsions:
REMARK  status: ('A' for Active; 'I' for Inactive)
REMARK    1  A    between atoms: C_3  and  C_14
REMARK    2  A    between atoms: C_3  and  C_19
REMARK    3  A    between atoms: C_4  and  C_24
REMARK    4  A    between atoms: C_14  and  O_15
REMARK    5  A    between atoms: O_15  and  C_16
REMARK    6  A    between atoms: C_19  and  O_20
REMARK    7  A    between atoms: O_20  and  C_21
REMARK    8  A    between atoms: C_24  and  O_25
REMARK    9  A    between atoms: O_25  and  C_26
REMARK                            x       y       z     vdW  Elec       q    Type
REMARK                         _______ _______ _______ _____ _____    ______ ____
ROOT
ATOM      1  O   UNL     1     -35.782  24.234   0.379  0.00  0.00    -0.290 OA
ATOM      2  N   UNL     1     -36.571  21.100   2.875  0.00  0.00    -0.324 N 
ATOM      3  C   UNL     1     -36.956  23.509   2.374  0.00  0.00    +0.259 C 
ATOM      4  C   UNL     1     -37.567  22.147   2.760  0.00  0.00    +0.197 C 
ATOM      5  C   UNL     1     -35.969  23.354   1.213  0.00  0.00    +0.196 C 
ATOM      6  C   UNL     1     -35.163  22.109   1.161  0.00  0.00    +0.049 C 
ATOM      7  C   UNL     1     -35.490  21.044   2.010  0.00  0.00    +0.048 C 
ATOM      8  C   UNL     1     -34.076  22.024   0.282  0.00  0.00    +0.004 C 
ATOM      9  C   UNL     1     -34.678  19.901   1.981  0.00  0.00    +0.014 C 
ATOM     10  C   UNL     1     -33.292  20.872   0.260  0.00  0.00    +0.000 C 
ATOM     11  C   UNL     1     -33.590  19.813   1.111  0.00  0.00    +0.001 C 
ATOM     12  H   UNL     1     -36.663  20.418   3.580  0.00  0.00    +0.147 HD
ENDROOT
BRANCH   3  14
ATOM     13  O   UNL     1     -35.496  25.055   3.536  0.00  0.00    -0.249 OA
ATOM     14  C   UNL     1     -36.221  24.070   3.575  0.00  0.00    +0.336 C 
BRANCH  14  15
ATOM     15  O   UNL     1     -36.497  23.311   4.673  0.00  0.00    -0.448 OA
BRANCH  15  16
ATOM     16  C   UNL     1     -35.488  23.309   5.688  0.00  0.00    +0.209 C 
ATOM     17  C   UNL     1     -35.214  21.881   6.109  0.00  0.00    +0.051 C 
ENDBRANCH  15  16
ENDBRANCH  14  15
ENDBRANCH   3  14
BRANCH   3  19
ATOM     18  O   UNL     1     -38.431  24.731   0.891  0.00  0.00    -0.249 OA
ATOM     19  C   UNL     1     -38.078  24.468   2.033  0.00  0.00    +0.336 C 
BRANCH  19  20
ATOM     20  O   UNL     1     -38.614  24.970   3.182  0.00  0.00    -0.448 OA
BRANCH  20  21
ATOM     21  C   UNL     1     -40.032  24.830   3.312  0.00  0.00    +0.209 C 
ATOM     22  C   UNL     1     -40.682  26.182   3.107  0.00  0.00    +0.051 C 
ENDBRANCH  20  21
ENDBRANCH  19  20
ENDBRANCH   3  19
BRANCH   4  24
ATOM     23  O   UNL     1     -39.798  21.551   2.059  0.00  0.00    -0.248 OA
ATOM     24  C   UNL     1     -38.610  21.665   1.789  0.00  0.00    +0.336 C 
BRANCH  24  25
ATOM     25  O   UNL     1     -38.022  21.386   0.590  0.00  0.00    -0.447 OA
BRANCH  25  26
ATOM     26  C   UNL     1     -38.618  20.320  -0.155  0.00  0.00    +0.209 C 
ATOM     27  C   UNL     1     -37.620  19.190  -0.285  0.00  0.00    +0.051 C 
ENDBRANCH  25  26
ENDBRANCH  24  25
ENDBRANCH   4  24
TORSDOF 9
ENDMDL
MODEL 3
REMARK VINA RESULT:      -5.4      1.946      2.948
REMARK  Name = 57414702
REMARK  9 active torsions:
REMARK  status: ('A' for Active; 'I' for Inactive)
REMARK    1  A    between atoms: C_3  and  C_14
REMARK    2  A    between atoms: C_3  and  C_19
REMARK    3  A    between atoms: C_4  and  C_24
REMARK    4  A    between atoms: C_14  and  O_15
REMARK    5  A    between atoms: O_15  and  C_16
REMARK    6  A    between atoms: C_19  and  O_20
REMARK    7  A    between atoms: O_20  and  C_21
REMARK    8  A    between atoms: C_24  and  O_25
REMARK    9  A    between atoms: O_25  and  C_26
REMARK                            x       y       z     vdW  Elec       q    Type
REMARK                         _______ _______ _______ _____ _____    ______ ____
ROOT
ATOM      1  O   UNL     1     -34.823  23.830   0.339  0.00  0.00    -0.290 OA
ATOM      2  N   UNL     1     -36.079  20.585   2.478  0.00  0.00    -0.324 N 
ATOM      3  C   UNL     1     -36.273  23.042   2.118  0.00  0.00    +0.259 C 
ATOM      4  C   UNL     1     -36.997  21.696   2.323  0.00  0.00    +0.197 C 
ATOM      5  C   UNL     1     -35.158  22.907   1.076  0.00  0.00    +0.196 C 
ATOM      6  C   UNL     1     -34.418  21.622   1.027  0.00  0.00    +0.049 C 
ATOM      7  C   UNL     1     -34.904  20.523   1.747  0.00  0.00    +0.048 C 
ATOM      8  C   UNL     1     -33.235  21.532   0.282  0.00  0.00    +0.004 C 
ATOM      9  C   UNL     1     -34.155  19.337   1.730  0.00  0.00    +0.014 C 
ATOM     10  C   UNL     1     -32.516  20.339   0.267  0.00  0.00    +0.000 C 
ATOM     11  C   UNL     1     -32.973  19.243   0.992  0.00  0.00    +0.001 C 
ATOM     12  H   UNL     1     -36.294  19.863   3.112  0.00  0.00    +0.147 HD
ENDROOT
BRANCH   3  14
ATOM     13  O   UNL     1     -34.744  24.271   3.540  0.00  0.00    -0.249 OA
ATOM     14  C   UNL     1     -35.665  23.473   3.437  0.00  0.00    +0.336 C 
BRANCH  14  15
ATOM     15  O   UNL     1     -36.303  22.838   4.462  0.00  0.00    -0.448 OA
BRANCH  15  16
ATOM     16  C   UNL     1     -35.628  22.876   5.723  0.00  0.00    +0.209 C 
ATOM     17  C   UNL     1     -34.965  21.537   5.970  0.00  0.00    +0.051 C 
ENDBRANCH  15  16
ENDBRANCH  14  15
ENDBRANCH   3  14
BRANCH   3  19
ATOM     18  O   UNL     1     -37.399  24.544   0.587  0.00  0.00    -0.249 OA
ATOM     19  C   UNL     1     -37.292  24.089   1.718  0.00  0.00    +0.336 C 
BRANCH  19  20
ATOM     20  O   UNL     1     -38.050  24.425   2.801  0.00  0.00    -0.448 OA
BRANCH  20  21
ATOM     21  C   UNL     1     -38.629  25.734   2.763  0.00  0.00    +0.209 C 
ATOM     22  C   UNL     1     -40.124  25.616   2.964  0.00  0.00    +0.051 C 
ENDBRANCH  20  21
ENDBRANCH  19  20
ENDBRANCH   3  19
BRANCH   4  24
ATOM     23  O   UNL     1     -37.570  21.057   0.067  0.00  0.00    -0.248 OA
ATOM     24  C   UNL     1     -37.934  21.347   1.199  0.00  0.00    +0.336 C 
BRANCH  24  25
ATOM     25  O   UNL     1     -39.222  21.406   1.644  0.00  0.00    -0.447 OA
BRANCH  25  26
ATOM     26  C   UNL     1     -40.224  21.476   0.625  0.00  0.00    +0.209 C 
ATOM     27  C   UNL     1     -40.534  22.929   0.338  0.00  0.00    +0.051 C 
ENDBRANCH  25  26
ENDBRANCH  24  25
ENDBRANCH   4  24
TORSDOF 9
ENDMDL
MODEL 4
REMARK VINA RESULT:      -5.4      1.225      1.345
REMARK  Name = 57414702
REMARK  9 active torsions:
REMARK  status: ('A' for Active; 'I' for Inactive)
REMARK    1  A    between atoms: C_3  and  C_14
REMARK    2  A    between atoms: C_3  and  C_19
REMARK    3  A    between atoms: C_4  and  C_24
REMARK    4  A    between atoms: C_14  and  O_15
REMARK    5  A    between atoms: O_15  and  C_16
REMARK    6  A    between atoms: C_19  and  O_20
REMARK    7  A    between atoms: O_20  and  C_21
REMARK    8  A    between atoms: C_24  and  O_25
REMARK    9  A    between atoms: O_25  and  C_26
REMARK                            x       y       z     vdW  Elec       q    Type
REMARK                         _______ _______ _______ _____ _____    ______ ____
ROOT
ATOM      1  O   UNL     1     -34.649  24.610   1.226  0.00  0.00    -0.290 OA
ATOM      2  N   UNL     1     -36.803  21.591   2.936  0.00  0.00    -0.324 N 
ATOM      3  C   UNL     1     -36.221  24.013   2.975  0.00  0.00    +0.259 C 
ATOM      4  C   UNL     1     -37.327  22.939   3.028  0.00  0.00    +0.197 C 
ATOM      5  C   UNL     1     -35.237  23.723   1.837  0.00  0.00    +0.196 C 
ATOM      6  C   UNL     1     -34.943  22.301   1.532  0.00  0.00    +0.049 C 
ATOM      7  C   UNL     1     -35.730  21.298   2.111  0.00  0.00    +0.048 C 
ATOM      8  C   UNL     1     -33.871  21.981   0.688  0.00  0.00    +0.004 C 
ATOM      9  C   UNL     1     -35.395  19.961   1.851  0.00  0.00    +0.014 C 
ATOM     10  C   UNL     1     -33.567  20.646   0.431  0.00  0.00    +0.000 C 
ATOM     11  C   UNL     1     -34.325  19.636   1.014  0.00  0.00    +0.001 C 
ATOM     12  H   UNL     1     -37.217  20.873   3.467  0.00  0.00    +0.147 HD
ENDROOT
BRANCH   3  14
ATOM     13  O   UNL     1     -34.380  24.532   4.462  0.00  0.00    -0.249 OA
ATOM     14  C   UNL     1     -35.470  24.004   4.291  0.00  0.00    +0.336 C 
BRANCH  14  15
ATOM     15  O   UNL     1     -36.196  23.326   5.225  0.00  0.00    -0.448 OA
BRANCH  15  16
ATOM     16  C   UNL     1     -35.433  22.706   6.265  0.00  0.00    +0.209 C 
ATOM     17  C   UNL     1     -34.962  21.347   5.789  0.00  0.00    +0.051 C 
ENDBRANCH  15  16
ENDBRANCH  14  15
ENDBRANCH   3  14
BRANCH   3  19
ATOM     18  O   UNL     1     -37.389  25.991   3.744  0.00  0.00    -0.249 OA
ATOM     19  C   UNL     1     -36.869  25.374   2.824  0.00  0.00    +0.336 C 
BRANCH  19  20
ATOM     20  O   UNL     1     -36.772  25.783   1.526  0.00  0.00    -0.448 OA
BRANCH  20  21
ATOM     21  C   UNL     1     -37.476  26.988   1.208  0.00  0.00    +0.209 C 
ATOM     22  C   UNL     1     -38.254  26.780  -0.074  0.00  0.00    +0.051 C 
ENDBRANCH  20  21
ENDBRANCH  19  20
ENDBRANCH   3  19
BRANCH   4  24
ATOM     23  O   UNL     1     -38.127  22.948   0.752  0.00  0.00    -0.248 OA
ATOM     24  C   UNL     1     -38.359  23.093   1.945  0.00  0.00    +0.336 C 
BRANCH  24  25
ATOM     25  O   UNL     1     -39.562  23.410   2.502  0.00  0.00    -0.447 OA
BRANCH  25  26
ATOM     26  C   UNL     1     -40.388  24.286   1.729  0.00  0.00    +0.209 C 
ATOM     27  C   UNL     1     -40.667  25.538   2.532  0.00  0.00    +0.051 C 
ENDBRANCH  25  26
ENDBRANCH  24  25
ENDBRANCH   4  24
TORSDOF 9
ENDMDL
MODEL 5
REMARK VINA RESULT:      -5.2      2.042      3.717
REMARK  Name = 57414702
REMARK  9 active torsions:
REMARK  status: ('A' for Active; 'I' for Inactive)
REMARK    1  A    between atoms: C_3  and  C_14
REMARK    2  A    between atoms: C_3  and  C_19
REMARK    3  A    between atoms: C_4  and  C_24
REMARK    4  A    between atoms: C_14  and  O_15
REMARK    5  A    between atoms: O_15  and  C_16
REMARK    6  A    between atoms: C_19  and  O_20
REMARK    7  A    between atoms: O_20  and  C_21
REMARK    8  A    between atoms: C_24  and  O_25
REMARK    9  A    between atoms: O_25  and  C_26
REMARK                            x       y       z     vdW  Elec       q    Type
REMARK                         _______ _______ _______ _____ _____    ______ ____
ROOT
ATOM      1  O   UNL     1     -34.805  23.335   2.341  0.00  0.00    -0.290 OA
ATOM      2  N   UNL     1     -37.341  26.266   3.629  0.00  0.00    -0.324 N 
ATOM      3  C   UNL     1     -35.014  25.376   3.635  0.00  0.00    +0.259 C 
ATOM      4  C   UNL     1     -35.939  26.599   3.468  0.00  0.00    +0.197 C 
ATOM      5  C   UNL     1     -35.543  24.181   2.836  0.00  0.00    +0.196 C 
ATOM      6  C   UNL     1     -37.015  24.022   2.735  0.00  0.00    +0.049 C 
ATOM      7  C   UNL     1     -37.848  25.067   3.155  0.00  0.00    +0.048 C 
ATOM      8  C   UNL     1     -37.550  22.825   2.244  0.00  0.00    +0.004 C 
ATOM      9  C   UNL     1     -39.236  24.869   3.102  0.00  0.00    +0.014 C 
ATOM     10  C   UNL     1     -38.932  22.656   2.186  0.00  0.00    +0.000 C 
ATOM     11  C   UNL     1     -39.775  23.675   2.618  0.00  0.00    +0.001 C 
ATOM     12  H   UNL     1     -37.941  26.901   4.082  0.00  0.00    +0.147 HD
ENDROOT
BRANCH   3  14
ATOM     13  O   UNL     1     -35.310  25.743   6.011  0.00  0.00    -0.249 OA
ATOM     14  C   UNL     1     -34.959  25.003   5.102  0.00  0.00    +0.336 C 
BRANCH  14  15
ATOM     15  O   UNL     1     -34.466  23.738   5.233  0.00  0.00    -0.448 OA
BRANCH  15  16
ATOM     16  C   UNL     1     -35.219  22.871   6.086  0.00  0.00    +0.209 C 
ATOM     17  C   UNL     1     -35.160  21.462   5.534  0.00  0.00    +0.051 C 
ENDBRANCH  15  16
ENDBRANCH  14  15
ENDBRANCH   3  14
BRANCH   3  19
ATOM     18  O   UNL     1     -33.109  25.437   2.140  0.00  0.00    -0.249 OA
ATOM     19  C   UNL     1     -33.613  25.762   3.206  0.00  0.00    +0.336 C 
BRANCH  19  20
ATOM     20  O   UNL     1     -33.029  26.514   4.183  0.00  0.00    -0.448 OA
BRANCH  20  21
ATOM     21  C   UNL     1     -32.118  27.517   3.723  0.00  0.00    +0.209 C 
ATOM     22  C   UNL     1     -32.426  28.822   4.425  0.00  0.00    +0.051 C 
ENDBRANCH  20  21
ENDBRANCH  19  20
ENDBRANCH   3  19
BRANCH   4  24
ATOM     23  O   UNL     1     -36.151  26.791   1.072  0.00  0.00    -0.248 OA
ATOM     24  C   UNL     1     -35.792  27.280   2.135  0.00  0.00    +0.336 C 
BRANCH  24  25
ATOM     25  O   UNL     1     -35.208  28.500   2.309  0.00  0.00    -0.447 OA
BRANCH  25  26
ATOM     26  C   UNL     1     -35.926  29.610   1.760  0.00  0.00    +0.209 C 
ATOM     27  C   UNL     1     -35.595  30.853   2.556  0.00  0.00    +0.051 C 
ENDBRANCH  25  26
ENDBRANCH  24  25
ENDBRANCH   4  24
TORSDOF 9
ENDMDL
MODEL 6
REMARK VINA RESULT:      -5.1      2.062      4.620
REMARK  Name = 57414702
REMARK  9 active torsions:
REMARK  status: ('A' for Active; 'I' for Inactive)
REMARK    1  A    between atoms: C_3  and  C_14
REMARK    2  A    between atoms: C_3  and  C_19
REMARK    3  A    between atoms: C_4  and  C_24
REMARK    4  A    between atoms: C_14  and  O_15
REMARK    5  A    between atoms: O_15  and  C_16
REMARK    6  A    between atoms: C_19  and  O_20
REMARK    7  A    between atoms: O_20  and  C_21
REMARK    8  A    between atoms: C_24  and  O_25
REMARK    9  A    between atoms: O_25  and  C_26
REMARK                            x       y       z     vdW  Elec       q    Type
REMARK                         _______ _______ _______ _____ _____    ______ ____
ROOT
ATOM      1  O   UNL     1     -35.775  26.409   5.331  0.00  0.00    -0.290 OA
ATOM      2  N   UNL     1     -35.174  23.750   2.290  0.00  0.00    -0.324 N 
ATOM      3  C   UNL     1     -35.914  26.040   2.938  0.00  0.00    +0.259 C 
ATOM      4  C   UNL     1     -35.068  25.165   1.990  0.00  0.00    +0.197 C 
ATOM      5  C   UNL     1     -35.708  25.617   4.396  0.00  0.00    +0.196 C 
ATOM      6  C   UNL     1     -35.495  24.174   4.668  0.00  0.00    +0.049 C 
ATOM      7  C   UNL     1     -35.256  23.303   3.598  0.00  0.00    +0.048 C 
ATOM      8  C   UNL     1     -35.557  23.701   5.985  0.00  0.00    +0.004 C 
ATOM      9  C   UNL     1     -35.114  21.935   3.878  0.00  0.00    +0.014 C 
ATOM     10  C   UNL     1     -35.398  22.341   6.241  0.00  0.00    +0.000 C 
ATOM     11  C   UNL     1     -35.181  21.457   5.188  0.00  0.00    +0.001 C 
ATOM     12  H   UNL     1     -35.188  23.098   1.552  0.00  0.00    +0.147 HD
ENDROOT
BRANCH   3  14
ATOM     13  O   UNL     1     -38.297  26.394   3.192  0.00  0.00    -0.249 OA
ATOM     14  C   UNL     1     -37.376  25.873   2.578  0.00  0.00    +0.336 C 
BRANCH  14  15
ATOM     15  O   UNL     1     -37.487  25.064   1.485  0.00  0.00    -0.448 OA
BRANCH  15  16
ATOM     16  C   UNL     1     -38.725  24.357   1.368  0.00  0.00    +0.209 C 
ATOM     17  C   UNL     1     -38.678  23.128   2.251  0.00  0.00    +0.051 C 
ENDBRANCH  15  16
ENDBRANCH  14  15
ENDBRANCH   3  14
BRANCH   3  19
ATOM     18  O   UNL     1     -34.853  28.148   3.481  0.00  0.00    -0.249 OA
ATOM     19  C   UNL     1     -35.549  27.493   2.717  0.00  0.00    +0.336 C 
BRANCH  19  20
ATOM     20  O   UNL     1     -36.109  27.931   1.553  0.00  0.00    -0.448 OA
BRANCH  20  21
ATOM     21  C   UNL     1     -35.289  28.799   0.765  0.00  0.00    +0.209 C 
ATOM     22  C   UNL     1     -35.291  28.313  -0.668  0.00  0.00    +0.051 C 
ENDBRANCH  20  21
ENDBRANCH  19  20
ENDBRANCH   3  19
BRANCH   4  24
ATOM     23  O   UNL     1     -32.902  25.487   3.005  0.00  0.00    -0.248 OA
ATOM     24  C   UNL     1     -33.605  25.515   2.004  0.00  0.00    +0.336 C 
BRANCH  24  25
ATOM     25  O   UNL     1     -33.207  25.859   0.746  0.00  0.00    -0.447 OA
BRANCH  25  26
ATOM     26  C   UNL     1     -32.024  25.206   0.274  0.00  0.00    +0.209 C 
ATOM     27  C   UNL     1     -32.405  23.878  -0.343  0.00  0.00    +0.051 C 
ENDBRANCH  25  26
ENDBRANCH  24  25
ENDBRANCH   4  24
TORSDOF 9
ENDMDL
MODEL 7
REMARK VINA RESULT:      -5.0      2.119      5.485
REMARK  Name = 57414702
REMARK  9 active torsions:
REMARK  status: ('A' for Active; 'I' for Inactive)
REMARK    1  A    between atoms: C_3  and  C_14
REMARK    2  A    between atoms: C_3  and  C_19
REMARK    3  A    between atoms: C_4  and  C_24
REMARK    4  A    between atoms: C_14  and  O_15
REMARK    5  A    between atoms: O_15  and  C_16
REMARK    6  A    between atoms: C_19  and  O_20
REMARK    7  A    between atoms: O_20  and  C_21
REMARK    8  A    between atoms: C_24  and  O_25
REMARK    9  A    between atoms: O_25  and  C_26
REMARK                            x       y       z     vdW  Elec       q    Type
REMARK                         _______ _______ _______ _____ _____    ______ ____
ROOT
ATOM      1  O   UNL     1     -36.069  24.014   0.272  0.00  0.00    -0.290 OA
ATOM      2  N   UNL     1     -35.996  26.895   3.166  0.00  0.00    -0.324 N 
ATOM      3  C   UNL     1     -36.347  24.486   2.636  0.00  0.00    +0.259 C 
ATOM      4  C   UNL     1     -35.681  25.534   3.551  0.00  0.00    +0.197 C 
ATOM      5  C   UNL     1     -36.159  24.856   1.161  0.00  0.00    +0.196 C 
ATOM      6  C   UNL     1     -36.165  26.298   0.810  0.00  0.00    +0.049 C 
ATOM      7  C   UNL     1     -36.102  27.253   1.832  0.00  0.00    +0.048 C 
ATOM      8  C   UNL     1     -36.255  26.682  -0.534  0.00  0.00    +0.004 C 
ATOM      9  C   UNL     1     -36.166  28.608   1.476  0.00  0.00    +0.014 C 
ATOM     10  C   UNL     1     -36.301  28.035  -0.866  0.00  0.00    +0.000 C 
ATOM     11  C   UNL     1     -36.261  28.998   0.138  0.00  0.00    +0.001 C 
ATOM     12  H   UNL     1     -36.138  27.576   3.863  0.00  0.00    +0.147 HD
ENDROOT
BRANCH   3  14
ATOM     13  O   UNL     1     -38.328  24.881   3.973  0.00  0.00    -0.249 OA
ATOM     14  C   UNL     1     -37.829  24.440   2.947  0.00  0.00    +0.336 C 
BRANCH  14  15
ATOM     15  O   UNL     1     -38.492  23.838   1.919  0.00  0.00    -0.448 OA
BRANCH  15  16
ATOM     16  C   UNL     1     -39.551  22.955   2.303  0.00  0.00    +0.209 C 
ATOM     17  C   UNL     1     -39.244  21.564   1.791  0.00  0.00    +0.051 C 
ENDBRANCH  15  16
ENDBRANCH  14  15
ENDBRANCH   3  14
BRANCH   3  19
ATOM     18  O   UNL     1     -34.981  22.529   2.227  0.00  0.00    -0.249 OA
ATOM     19  C   UNL     1     -35.768  23.123   2.951  0.00  0.00    +0.336 C 
BRANCH  19  20
ATOM     20  O   UNL     1     -36.257  22.686   4.147  0.00  0.00    -0.448 OA
BRANCH  20  21
ATOM     21  C   UNL     1     -35.375  21.848   4.902  0.00  0.00    +0.209 C 
ATOM     22  C   UNL     1     -35.452  22.242   6.362  0.00  0.00    +0.051 C 
ENDBRANCH  20  21
ENDBRANCH  19  20
ENDBRANCH   3  19
BRANCH   4  24
ATOM     23  O   UNL     1     -33.446  25.677   2.653  0.00  0.00    -0.248 OA
ATOM     24  C   UNL     1     -34.182  25.418   3.596  0.00  0.00    +0.336 C 
BRANCH  24  25
ATOM     25  O   UNL     1     -33.794  24.990   4.831  0.00  0.00    -0.447 OA
BRANCH  25  26
ATOM     26  C   UNL     1     -34.255  25.783   5.930  0.00  0.00    +0.209 C 
ATOM     27  C   UNL     1     -33.216  26.836   6.249  0.00  0.00    +0.051 C 
ENDBRANCH  25  26
ENDBRANCH  24  25
ENDBRANCH   4  24
TORSDOF 9
ENDMDL
MODEL 8
REMARK VINA RESULT:      -5.0      2.242      3.913
REMARK  Name = 57414702
REMARK  9 active torsions:
REMARK  status: ('A' for Active; 'I' for Inactive)
REMARK    1  A    between atoms: C_3  and  C_14
REMARK    2  A    between atoms: C_3  and  C_19
REMARK    3  A    between atoms: C_4  and  C_24
REMARK    4  A    between atoms: C_14  and  O_15
REMARK    5  A    between atoms: O_15  and  C_16
REMARK    6  A    between atoms: C_19  and  O_20
REMARK    7  A    between atoms: O_20  and  C_21
REMARK    8  A    between atoms: C_24  and  O_25
REMARK    9  A    between atoms: O_25  and  C_26
REMARK                            x       y       z     vdW  Elec       q    Type
REMARK                         _______ _______ _______ _____ _____    ______ ____
ROOT
ATOM      1  O   UNL     1     -36.895  22.620   1.314  0.00  0.00    -0.290 OA
ATOM      2  N   UNL     1     -36.806  25.584   4.123  0.00  0.00    -0.324 N 
ATOM      3  C   UNL     1     -37.080  25.006   1.715  0.00  0.00    +0.259 C 
ATOM      4  C   UNL     1     -37.602  25.798   2.930  0.00  0.00    +0.197 C 
ATOM      5  C   UNL     1     -36.778  23.554   2.101  0.00  0.00    +0.196 C 
ATOM      6  C   UNL     1     -36.251  23.304   3.465  0.00  0.00    +0.049 C 
ATOM      7  C   UNL     1     -36.272  24.338   4.409  0.00  0.00    +0.048 C 
ATOM      8  C   UNL     1     -35.720  22.047   3.783  0.00  0.00    +0.004 C 
ATOM      9  C   UNL     1     -35.716  24.092   5.674  0.00  0.00    +0.014 C 
ATOM     10  C   UNL     1     -35.188  21.820   5.050  0.00  0.00    +0.000 C 
ATOM     11  C   UNL     1     -35.182  22.842   5.994  0.00  0.00    +0.001 C 
ATOM     12  H   UNL     1     -36.642  26.335   4.738  0.00  0.00    +0.147 HD
ENDROOT
BRANCH   3  14
ATOM     13  O   UNL     1     -35.107  25.207   0.323  0.00  0.00    -0.249 OA
ATOM     14  C   UNL     1     -35.806  25.660   1.219  0.00  0.00    +0.336 C 
BRANCH  14  15
ATOM     15  O   UNL     1     -35.577  26.805   1.924  0.00  0.00    -0.448 OA
BRANCH  15  16
ATOM     16  C   UNL     1     -34.206  27.199   2.027  0.00  0.00    +0.209 C 
ATOM     17  C   UNL     1     -33.862  27.415   3.486  0.00  0.00    +0.051 C 
ENDBRANCH  15  16
ENDBRANCH  14  15
ENDBRANCH   3  14
BRANCH   3  19
ATOM     18  O   UNL     1     -38.773  24.142   0.214  0.00  0.00    -0.249 OA
ATOM     19  C   UNL     1     -38.102  25.090   0.601  0.00  0.00    +0.336 C 
BRANCH  19  20
ATOM     20  O   UNL     1     -38.148  26.365   0.119  0.00  0.00    -0.448 OA
BRANCH  20  21
ATOM     21  C   UNL     1     -39.207  26.635  -0.805  0.00  0.00    +0.209 C 
ATOM     22  C   UNL     1     -39.883  27.932  -0.416  0.00  0.00    +0.051 C 
ENDBRANCH  20  21
ENDBRANCH  19  20
ENDBRANCH   3  19
BRANCH   4  24
ATOM     23  O   UNL     1     -39.395  24.405   3.747  0.00  0.00    -0.248 OA
ATOM     24  C   UNL     1     -39.029  25.476   3.282  0.00  0.00    +0.336 C 
BRANCH  24  25
ATOM     25  O   UNL     1     -39.821  26.551   3.005  0.00  0.00    -0.447 OA
BRANCH  25  26
ATOM     26  C   UNL     1     -41.199  26.253   2.760  0.00  0.00    +0.209 C 
ATOM     27  C   UNL     1     -42.051  27.009   3.756  0.00  0.00    +0.051 C 
ENDBRANCH  25  26
ENDBRANCH  24  25
ENDBRANCH   4  24
TORSDOF 9
ENDMDL
MODEL 9
REMARK VINA RESULT:      -5.0      3.035      5.326
REMARK  Name = 57414702
REMARK  9 active torsions:
REMARK  status: ('A' for Active; 'I' for Inactive)
REMARK    1  A    between atoms: C_3  and  C_14
REMARK    2  A    between atoms: C_3  and  C_19
REMARK    3  A    between atoms: C_4  and  C_24
REMARK    4  A    between atoms: C_14  and  O_15
REMARK    5  A    between atoms: O_15  and  C_16
REMARK    6  A    between atoms: C_19  and  O_20
REMARK    7  A    between atoms: O_20  and  C_21
REMARK    8  A    between atoms: C_24  and  O_25
REMARK    9  A    between atoms: O_25  and  C_26
REMARK                            x       y       z     vdW  Elec       q    Type
REMARK                         _______ _______ _______ _____ _____    ______ ____
ROOT
ATOM      1  O   UNL     1     -34.412  22.821  -0.034  0.00  0.00    -0.290 OA
ATOM      2  N   UNL     1     -34.609  18.946   1.240  0.00  0.00    -0.324 N 
ATOM      3  C   UNL     1     -35.641  21.213   1.304  0.00  0.00    +0.259 C 
ATOM      4  C   UNL     1     -35.847  19.693   1.137  0.00  0.00    +0.197 C 
ATOM      5  C   UNL     1     -34.460  21.697   0.457  0.00  0.00    +0.196 C 
ATOM      6  C   UNL     1     -33.305  20.777   0.301  0.00  0.00    +0.049 C 
ATOM      7  C   UNL     1     -33.428  19.446   0.718  0.00  0.00    +0.048 C 
ATOM      8  C   UNL     1     -32.106  21.258  -0.239  0.00  0.00    +0.004 C 
ATOM      9  C   UNL     1     -32.304  18.613   0.612  0.00  0.00    +0.014 C 
ATOM     10  C   UNL     1     -31.007  20.408  -0.349  0.00  0.00    +0.000 C 
ATOM     11  C   UNL     1     -31.104  19.088   0.079  0.00  0.00    +0.001 C 
ATOM     12  H   UNL     1     -34.609  18.069   1.688  0.00  0.00    +0.147 HD
ENDROOT
BRANCH   3  14
ATOM     13  O   UNL     1     -35.319  20.656   3.640  0.00  0.00    -0.249 OA
ATOM     14  C   UNL     1     -35.355  21.508   2.762  0.00  0.00    +0.336 C 
BRANCH  14  15
ATOM     15  O   UNL     1     -35.153  22.846   2.925  0.00  0.00    -0.448 OA
BRANCH  15  16
ATOM     16  C   UNL     1     -35.520  23.372   4.204  0.00  0.00    +0.209 C 
ATOM     17  C   UNL     1     -36.681  24.328   4.031  0.00  0.00    +0.051 C 
ENDBRANCH  15  16
ENDBRANCH  14  15
ENDBRANCH   3  14
BRANCH   3  19
ATOM     18  O   UNL     1     -37.072  22.591  -0.081  0.00  0.00    -0.249 OA
ATOM     19  C   UNL     1     -36.926  21.923   0.934  0.00  0.00    +0.336 C 
BRANCH  19  20
ATOM     20  O   UNL     1     -37.865  21.697   1.897  0.00  0.00    -0.448 OA
BRANCH  20  21
ATOM     21  C   UNL     1     -39.224  21.872   1.483  0.00  0.00    +0.209 C 
ATOM     22  C   UNL     1     -39.792  23.099   2.162  0.00  0.00    +0.051 C 
ENDBRANCH  20  21
ENDBRANCH  19  20
ENDBRANCH   3  19
BRANCH   4  24
ATOM     23  O   UNL     1     -35.941  19.442  -1.261  0.00  0.00    -0.248 OA
ATOM     24  C   UNL     1     -36.486  19.320  -0.172  0.00  0.00    +0.336 C 
BRANCH  24  25
ATOM     25  O   UNL     1     -37.740  18.834   0.055  0.00  0.00    -0.447 OA
BRANCH  25  26
ATOM     26  C   UNL     1     -38.123  17.716  -0.752  0.00  0.00    +0.209 C 
ATOM     27  C   UNL     1     -37.626  16.444  -0.102  0.00  0.00    +0.051 C 
ENDBRANCH  25  26
ENDBRANCH  24  25
ENDBRANCH   4  24
TORSDOF 9
ENDMDL
