MODEL 1
REMARK VINA RESULT:      -6.4      0.000      0.000
REMARK  Name = 5281654
REMARK  6 active torsions:
REMARK  status: ('A' for Active; 'I' for Inactive)
REMARK    1  A    between atoms: C_4  and  C_12
REMARK    2  A    between atoms: C_6  and  O_22
REMARK    3  A    between atoms: C_8  and  O_24
REMARK    4  A    between atoms: C_10  and  O_26
REMARK    5  A    between atoms: C_15  and  O_18
REMARK    6  A    between atoms: C_17  and  O_20
REMARK                            x       y       z     vdW  Elec       q    Type
REMARK                         _______ _______ _______ _____ _____    ______ ____
ROOT
ATOM      1  O   UNL     1     -34.890  26.272   3.432  0.00  0.00    -0.450 OA
ATOM      2  O   UNL     1     -38.193  27.334   1.295  0.00  0.00    -0.283 OA
ATOM      3  C   UNL     1     -36.054  27.927   2.091  0.00  0.00    +0.110 A 
ATOM      4  C   UNL     1     -35.959  25.405   3.276  0.00  0.00    +0.182 A 
ATOM      5  C   UNL     1     -34.954  27.505   2.836  0.00  0.00    +0.155 A 
ATOM      6  C   UNL     1     -37.081  25.693   2.590  0.00  0.00    +0.208 A 
ATOM      7  C   UNL     1     -37.198  27.017   1.933  0.00  0.00    +0.238 A 
ATOM      8  C   UNL     1     -36.065  29.197   1.508  0.00  0.00    +0.143 C 
ATOM      9  C   UNL     1     -33.858  28.351   3.003  0.00  0.00    +0.074 C 
ATOM     10  C   UNL     1     -33.865  29.619   2.422  0.00  0.00    +0.140 C 
ATOM     11  C   UNL     1     -34.967  30.041   1.676  0.00  0.00    +0.073 C 
ENDROOT
BRANCH   4  12
ATOM     12  C   UNL     1     -35.761  24.118   3.965  0.00  0.00    +0.041 C 
ATOM     13  C   UNL     1     -35.651  22.939   3.226  0.00  0.00    +0.043 C 
ATOM     14  C   UNL     1     -35.685  24.076   5.357  0.00  0.00    +0.006 C 
ATOM     15  C   UNL     1     -35.463  21.721   3.878  0.00  0.00    +0.172 C 
ATOM     16  C   UNL     1     -35.498  22.858   6.010  0.00  0.00    +0.040 C 
ATOM     17  C   UNL     1     -35.387  21.680   5.271  0.00  0.00    +0.168 C 
BRANCH  15  18
ATOM     18  O   UNL     1     -35.356  20.578   3.145  0.00  0.00    -0.468 OA
ATOM     19  C   UNL     1     -36.274  20.412   2.066  0.00  0.00    +0.253 C 
ENDBRANCH  15  18
BRANCH  17  20
ATOM     20  O   UNL     1     -35.204  20.497   5.919  0.00  0.00    -0.503 OA
ATOM     21  H   UNL     1     -34.562  19.888   5.611  0.00  0.00    +0.292 HD
ENDBRANCH  17  20
ENDBRANCH   4  12
BRANCH   6  22
ATOM     22  O   UNL     1     -38.141  24.819   2.481  0.00  0.00    -0.501 OA
ATOM     23  H   UNL     1     -38.511  24.431   3.249  0.00  0.00    +0.292 HD
ENDBRANCH   6  22
BRANCH   8  24
ATOM     24  O   UNL     1     -37.113  29.658   0.771  0.00  0.00    -0.505 OA
ATOM     25  H   UNL     1     -37.991  29.460   1.031  0.00  0.00    +0.292 HD
ENDBRANCH   8  24
BRANCH  10  26
ATOM     26  O   UNL     1     -32.796  30.447   2.583  0.00  0.00    -0.505 OA
ATOM     27  H   UNL     1     -32.423  30.570   3.434  0.00  0.00    +0.292 HD
ENDBRANCH  10  26
TORSDOF 6
ENDMDL
MODEL 2
REMARK VINA RESULT:      -6.3      2.418      6.402
REMARK  Name = 5281654
REMARK  6 active torsions:
REMARK  status: ('A' for Active; 'I' for Inactive)
REMARK    1  A    between atoms: C_4  and  C_12
REMARK    2  A    between atoms: C_6  and  O_22
REMARK    3  A    between atoms: C_8  and  O_24
REMARK    4  A    between atoms: C_10  and  O_26
REMARK    5  A    between atoms: C_15  and  O_18
REMARK    6  A    between atoms: C_17  and  O_20
REMARK                            x       y       z     vdW  Elec       q    Type
REMARK                         _______ _______ _______ _____ _____    ______ ____
ROOT
ATOM      1  O   UNL     1     -34.966  23.658   3.447  0.00  0.00    -0.450 OA
ATOM      2  O   UNL     1     -38.993  24.270   3.343  0.00  0.00    -0.283 OA
ATOM      3  C   UNL     1     -37.174  22.856   2.840  0.00  0.00    +0.110 A 
ATOM      4  C   UNL     1     -35.536  24.811   3.966  0.00  0.00    +0.182 A 
ATOM      5  C   UNL     1     -35.790  22.708   2.904  0.00  0.00    +0.155 A 
ATOM      6  C   UNL     1     -36.854  25.079   3.958  0.00  0.00    +0.208 A 
ATOM      7  C   UNL     1     -37.785  24.082   3.376  0.00  0.00    +0.238 A 
ATOM      8  C   UNL     1     -37.965  21.854   2.272  0.00  0.00    +0.143 C 
ATOM      9  C   UNL     1     -35.188  21.555   2.399  0.00  0.00    +0.074 C 
ATOM     10  C   UNL     1     -35.974  20.552   1.832  0.00  0.00    +0.140 C 
ATOM     11  C   UNL     1     -37.361  20.701   1.769  0.00  0.00    +0.073 C 
ENDROOT
BRANCH   4  12
ATOM     12  C   UNL     1     -34.540  25.746   4.517  0.00  0.00    +0.041 C 
ATOM     13  C   UNL     1     -33.880  26.641   3.673  0.00  0.00    +0.043 C 
ATOM     14  C   UNL     1     -34.255  25.739   5.883  0.00  0.00    +0.006 C 
ATOM     15  C   UNL     1     -32.938  27.527   4.194  0.00  0.00    +0.172 C 
ATOM     16  C   UNL     1     -33.313  26.625   6.404  0.00  0.00    +0.040 C 
ATOM     17  C   UNL     1     -32.654  27.519   5.560  0.00  0.00    +0.168 C 
BRANCH  15  18
ATOM     18  O   UNL     1     -32.301  28.395   3.360  0.00  0.00    -0.468 OA
ATOM     19  C   UNL     1     -33.032  29.547   2.944  0.00  0.00    +0.253 C 
ENDBRANCH  15  18
BRANCH  17  20
ATOM     20  O   UNL     1     -31.736  28.379   6.081  0.00  0.00    -0.503 OA
ATOM     21  H   UNL     1     -31.061  28.731   5.535  0.00  0.00    +0.292 HD
ENDBRANCH  17  20
ENDBRANCH   4  12
BRANCH   6  22
ATOM     22  O   UNL     1     -37.385  26.250   4.454  0.00  0.00    -0.501 OA
ATOM     23  H   UNL     1     -37.581  26.327   5.367  0.00  0.00    +0.292 HD
ENDBRANCH   6  22
BRANCH   8  24
ATOM     24  O   UNL     1     -39.321  21.948   2.185  0.00  0.00    -0.505 OA
ATOM     25  H   UNL     1     -39.850  21.179   2.265  0.00  0.00    +0.292 HD
ENDBRANCH   8  24
BRANCH  10  26
ATOM     26  O   UNL     1     -35.389  19.426   1.340  0.00  0.00    -0.505 OA
ATOM     27  H   UNL     1     -35.873  18.854   0.777  0.00  0.00    +0.292 HD
ENDBRANCH  10  26
TORSDOF 6
ENDMDL
MODEL 3
REMARK VINA RESULT:      -6.2      1.198      2.800
REMARK  Name = 5281654
REMARK  6 active torsions:
REMARK  status: ('A' for Active; 'I' for Inactive)
REMARK    1  A    between atoms: C_4  and  C_12
REMARK    2  A    between atoms: C_6  and  O_22
REMARK    3  A    between atoms: C_8  and  O_24
REMARK    4  A    between atoms: C_10  and  O_26
REMARK    5  A    between atoms: C_15  and  O_18
REMARK    6  A    between atoms: C_17  and  O_20
REMARK                            x       y       z     vdW  Elec       q    Type
REMARK                         _______ _______ _______ _____ _____    ______ ____
ROOT
ATOM      1  O   UNL     1     -36.291  25.724   2.698  0.00  0.00    -0.450 OA
ATOM      2  O   UNL     1     -33.655  28.700   3.591  0.00  0.00    -0.283 OA
ATOM      3  C   UNL     1     -35.514  27.993   2.324  0.00  0.00    +0.110 A 
ATOM      4  C   UNL     1     -35.299  25.549   3.650  0.00  0.00    +0.182 A 
ATOM      5  C   UNL     1     -36.383  26.935   2.062  0.00  0.00    +0.155 A 
ATOM      6  C   UNL     1     -34.393  26.486   3.988  0.00  0.00    +0.208 A 
ATOM      7  C   UNL     1     -34.450  27.810   3.323  0.00  0.00    +0.238 A 
ATOM      8  C   UNL     1     -35.654  29.205   1.643  0.00  0.00    +0.143 C 
ATOM      9  C   UNL     1     -37.398  27.083   1.117  0.00  0.00    +0.074 C 
ATOM     10  C   UNL     1     -37.541  28.292   0.436  0.00  0.00    +0.140 C 
ATOM     11  C   UNL     1     -36.671  29.351   0.699  0.00  0.00    +0.073 C 
ENDROOT
BRANCH   4  12
ATOM     12  C   UNL     1     -35.312  24.206   4.254  0.00  0.00    +0.041 C 
ATOM     13  C   UNL     1     -35.300  23.073   3.438  0.00  0.00    +0.043 C 
ATOM     14  C   UNL     1     -35.337  24.064   5.641  0.00  0.00    +0.006 C 
ATOM     15  C   UNL     1     -35.312  21.801   4.010  0.00  0.00    +0.172 C 
ATOM     16  C   UNL     1     -35.349  22.791   6.213  0.00  0.00    +0.040 C 
ATOM     17  C   UNL     1     -35.337  21.660   5.397  0.00  0.00    +0.168 C 
BRANCH  15  18
ATOM     18  O   UNL     1     -35.300  20.704   3.202  0.00  0.00    -0.468 OA
ATOM     19  C   UNL     1     -36.360  20.584   2.255  0.00  0.00    +0.253 C 
ENDBRANCH  15  18
BRANCH  17  20
ATOM     20  O   UNL     1     -35.348  20.423   5.967  0.00  0.00    -0.503 OA
ATOM     21  H   UNL     1     -35.378  20.338   6.900  0.00  0.00    +0.292 HD
ENDBRANCH  17  20
ENDBRANCH   4  12
BRANCH   6  22
ATOM     22  O   UNL     1     -33.399  26.268   4.917  0.00  0.00    -0.501 OA
ATOM     23  H   UNL     1     -33.401  26.740   5.726  0.00  0.00    +0.292 HD
ENDBRANCH   6  22
BRANCH   8  24
ATOM     24  O   UNL     1     -34.833  30.269   1.862  0.00  0.00    -0.505 OA
ATOM     25  H   UNL     1     -34.810  30.976   1.247  0.00  0.00    +0.292 HD
ENDBRANCH   8  24
BRANCH  10  26
ATOM     26  O   UNL     1     -38.531  28.439  -0.487  0.00  0.00    -0.505 OA
ATOM     27  H   UNL     1     -38.616  29.245  -0.958  0.00  0.00    +0.292 HD
ENDBRANCH  10  26
TORSDOF 6
ENDMDL
MODEL 4
REMARK VINA RESULT:      -6.2      2.502      6.551
REMARK  Name = 5281654
REMARK  6 active torsions:
REMARK  status: ('A' for Active; 'I' for Inactive)
REMARK    1  A    between atoms: C_4  and  C_12
REMARK    2  A    between atoms: C_6  and  O_22
REMARK    3  A    between atoms: C_8  and  O_24
REMARK    4  A    between atoms: C_10  and  O_26
REMARK    5  A    between atoms: C_15  and  O_18
REMARK    6  A    between atoms: C_17  and  O_20
REMARK                            x       y       z     vdW  Elec       q    Type
REMARK                         _______ _______ _______ _____ _____    ______ ____
ROOT
ATOM      1  O   UNL     1     -36.471  22.637   2.329  0.00  0.00    -0.450 OA
ATOM      2  O   UNL     1     -40.515  23.093   2.109  0.00  0.00    -0.283 OA
ATOM      3  C   UNL     1     -38.599  21.901   1.422  0.00  0.00    +0.110 A 
ATOM      4  C   UNL     1     -37.128  23.621   3.051  0.00  0.00    +0.182 A 
ATOM      5  C   UNL     1     -37.215  21.799   1.539  0.00  0.00    +0.155 A 
ATOM      6  C   UNL     1     -38.457  23.831   3.020  0.00  0.00    +0.208 A 
ATOM      7  C   UNL     1     -39.301  22.952   2.176  0.00  0.00    +0.238 A 
ATOM      8  C   UNL     1     -39.305  21.020   0.600  0.00  0.00    +0.143 C 
ATOM      9  C   UNL     1     -36.526  20.812   0.832  0.00  0.00    +0.074 C 
ATOM     10  C   UNL     1     -37.227  19.931   0.010  0.00  0.00    +0.140 C 
ATOM     11  C   UNL     1     -38.615  20.033  -0.105  0.00  0.00    +0.073 C 
ENDROOT
BRANCH   4  12
ATOM     12  C   UNL     1     -36.214  24.450   3.856  0.00  0.00    +0.041 C 
ATOM     13  C   UNL     1     -35.934  25.760   3.466  0.00  0.00    +0.043 C 
ATOM     14  C   UNL     1     -35.627  23.926   5.008  0.00  0.00    +0.006 C 
ATOM     15  C   UNL     1     -35.068  26.545   4.227  0.00  0.00    +0.172 C 
ATOM     16  C   UNL     1     -34.762  24.711   5.770  0.00  0.00    +0.040 C 
ATOM     17  C   UNL     1     -34.482  26.021   5.379  0.00  0.00    +0.168 C 
BRANCH  15  18
ATOM     18  O   UNL     1     -34.804  27.823   3.836  0.00  0.00    -0.468 OA
ATOM     19  C   UNL     1     -35.055  28.147   2.470  0.00  0.00    +0.253 C 
ENDBRANCH  15  18
BRANCH  17  20
ATOM     20  O   UNL     1     -33.636  26.777   6.132  0.00  0.00    -0.503 OA
ATOM     21  H   UNL     1     -33.880  27.647   6.379  0.00  0.00    +0.292 HD
ENDBRANCH  17  20
ENDBRANCH   4  12
BRANCH   6  22
ATOM     22  O   UNL     1     -39.075  24.839   3.727  0.00  0.00    -0.501 OA
ATOM     23  H   UNL     1     -38.599  25.613   3.954  0.00  0.00    +0.292 HD
ENDBRANCH   6  22
BRANCH   8  24
ATOM     24  O   UNL     1     -40.658  21.076   0.451  0.00  0.00    -0.505 OA
ATOM     25  H   UNL     1     -41.209  20.521   0.967  0.00  0.00    +0.292 HD
ENDBRANCH   8  24
BRANCH  10  26
ATOM     26  O   UNL     1     -36.558  18.967  -0.681  0.00  0.00    -0.505 OA
ATOM     27  H   UNL     1     -35.666  19.105  -0.932  0.00  0.00    +0.292 HD
ENDBRANCH  10  26
TORSDOF 6
ENDMDL
MODEL 5
REMARK VINA RESULT:      -6.1      2.292      6.954
REMARK  Name = 5281654
REMARK  6 active torsions:
REMARK  status: ('A' for Active; 'I' for Inactive)
REMARK    1  A    between atoms: C_4  and  C_12
REMARK    2  A    between atoms: C_6  and  O_22
REMARK    3  A    between atoms: C_8  and  O_24
REMARK    4  A    between atoms: C_10  and  O_26
REMARK    5  A    between atoms: C_15  and  O_18
REMARK    6  A    between atoms: C_17  and  O_20
REMARK                            x       y       z     vdW  Elec       q    Type
REMARK                         _______ _______ _______ _____ _____    ______ ____
ROOT
ATOM      1  O   UNL     1     -35.084  21.711   2.405  0.00  0.00    -0.450 OA
ATOM      2  O   UNL     1     -39.023  21.293   1.449  0.00  0.00    -0.283 OA
ATOM      3  C   UNL     1     -36.818  20.484   1.231  0.00  0.00    +0.110 A 
ATOM      4  C   UNL     1     -36.043  22.582   2.896  0.00  0.00    +0.182 A 
ATOM      5  C   UNL     1     -35.488  20.682   1.593  0.00  0.00    +0.155 A 
ATOM      6  C   UNL     1     -37.357  22.507   2.615  0.00  0.00    +0.208 A 
ATOM      7  C   UNL     1     -37.840  21.414   1.737  0.00  0.00    +0.238 A 
ATOM      8  C   UNL     1     -37.172  19.420   0.398  0.00  0.00    +0.143 C 
ATOM      9  C   UNL     1     -34.500  19.816   1.123  0.00  0.00    +0.074 C 
ATOM     10  C   UNL     1     -34.849  18.752   0.292  0.00  0.00    +0.140 C 
ATOM     11  C   UNL     1     -36.183  18.554  -0.069  0.00  0.00    +0.073 C 
ENDROOT
BRANCH   4  12
ATOM     12  C   UNL     1     -35.476  23.638   3.752  0.00  0.00    +0.041 C 
ATOM     13  C   UNL     1     -34.928  24.785   3.176  0.00  0.00    +0.043 C 
ATOM     14  C   UNL     1     -35.485  23.492   5.140  0.00  0.00    +0.006 C 
ATOM     15  C   UNL     1     -34.390  25.785   3.987  0.00  0.00    +0.172 C 
ATOM     16  C   UNL     1     -34.948  24.492   5.950  0.00  0.00    +0.040 C 
ATOM     17  C   UNL     1     -34.401  25.639   5.374  0.00  0.00    +0.168 C 
BRANCH  15  18
ATOM     18  O   UNL     1     -33.859  26.900   3.412  0.00  0.00    -0.468 OA
ATOM     19  C   UNL     1     -34.776  27.889   2.949  0.00  0.00    +0.253 C 
ENDBRANCH  15  18
BRANCH  17  20
ATOM     20  O   UNL     1     -33.880  26.608   6.176  0.00  0.00    -0.503 OA
ATOM     21  H   UNL     1     -34.161  26.680   7.067  0.00  0.00    +0.292 HD
ENDBRANCH  17  20
ENDBRANCH   4  12
BRANCH   6  22
ATOM     22  O   UNL     1     -38.281  23.410   3.095  0.00  0.00    -0.501 OA
ATOM     23  H   UNL     1     -38.972  23.714   2.540  0.00  0.00    +0.292 HD
ENDBRANCH   6  22
BRANCH   8  24
ATOM     24  O   UNL     1     -38.457  19.181   0.015  0.00  0.00    -0.505 OA
ATOM     25  H   UNL     1     -38.754  18.300  -0.104  0.00  0.00    +0.292 HD
ENDBRANCH   8  24
BRANCH  10  26
ATOM     26  O   UNL     1     -33.887  17.904  -0.167  0.00  0.00    -0.505 OA
ATOM     27  H   UNL     1     -32.995  18.187  -0.208  0.00  0.00    +0.292 HD
ENDBRANCH  10  26
TORSDOF 6
ENDMDL
MODEL 6
REMARK VINA RESULT:      -6.0      2.481      3.988
REMARK  Name = 5281654
REMARK  6 active torsions:
REMARK  status: ('A' for Active; 'I' for Inactive)
REMARK    1  A    between atoms: C_4  and  C_12
REMARK    2  A    between atoms: C_6  and  O_22
REMARK    3  A    between atoms: C_8  and  O_24
REMARK    4  A    between atoms: C_10  and  O_26
REMARK    5  A    between atoms: C_15  and  O_18
REMARK    6  A    between atoms: C_17  and  O_20
REMARK                            x       y       z     vdW  Elec       q    Type
REMARK                         _______ _______ _______ _____ _____    ______ ____
ROOT
ATOM      1  O   UNL     1     -33.070  26.742   4.857  0.00  0.00    -0.450 OA
ATOM      2  O   UNL     1     -33.840  29.899   2.398  0.00  0.00    -0.283 OA
ATOM      3  C   UNL     1     -32.699  29.073   4.290  0.00  0.00    +0.110 A 
ATOM      4  C   UNL     1     -33.915  26.619   3.765  0.00  0.00    +0.182 A 
ATOM      5  C   UNL     1     -32.478  27.956   5.093  0.00  0.00    +0.155 A 
ATOM      6  C   UNL     1     -34.217  27.620   2.918  0.00  0.00    +0.208 A 
ATOM      7  C   UNL     1     -33.604  28.952   3.136  0.00  0.00    +0.238 A 
ATOM      8  C   UNL     1     -32.069  30.286   4.579  0.00  0.00    +0.143 C 
ATOM      9  C   UNL     1     -31.625  28.046   6.194  0.00  0.00    +0.074 C 
ATOM     10  C   UNL     1     -30.995  29.255   6.486  0.00  0.00    +0.140 C 
ATOM     11  C   UNL     1     -31.216  30.373   5.680  0.00  0.00    +0.073 C 
ENDROOT
BRANCH   4  12
ATOM     12  C   UNL     1     -34.483  25.267   3.628  0.00  0.00    +0.041 C 
ATOM     13  C   UNL     1     -35.090  24.650   4.723  0.00  0.00    +0.043 C 
ATOM     14  C   UNL     1     -34.413  24.601   2.404  0.00  0.00    +0.006 C 
ATOM     15  C   UNL     1     -35.628  23.369   4.593  0.00  0.00    +0.172 C 
ATOM     16  C   UNL     1     -34.951  23.320   2.274  0.00  0.00    +0.040 C 
ATOM     17  C   UNL     1     -35.559  22.705   3.369  0.00  0.00    +0.168 C 
BRANCH  15  18
ATOM     18  O   UNL     1     -36.219  22.779   5.669  0.00  0.00    -0.468 OA
ATOM     19  C   UNL     1     -35.374  22.040   6.548  0.00  0.00    +0.253 C 
ENDBRANCH  15  18
BRANCH  17  20
ATOM     20  O   UNL     1     -36.080  21.455   3.229  0.00  0.00    -0.503 OA
ATOM     21  H   UNL     1     -35.771  20.755   3.770  0.00  0.00    +0.292 HD
ENDBRANCH  17  20
ENDBRANCH   4  12
BRANCH   6  22
ATOM     22  O   UNL     1     -35.087  27.472   1.860  0.00  0.00    -0.501 OA
ATOM     23  H   UNL     1     -35.035  28.050   1.125  0.00  0.00    +0.292 HD
ENDBRANCH   6  22
BRANCH   8  24
ATOM     24  O   UNL     1     -32.250  31.406   3.826  0.00  0.00    -0.505 OA
ATOM     25  H   UNL     1     -32.855  32.065   4.105  0.00  0.00    +0.292 HD
ENDBRANCH   8  24
BRANCH  10  26
ATOM     26  O   UNL     1     -30.162  29.345   7.560  0.00  0.00    -0.505 OA
ATOM     27  H   UNL     1     -29.307  28.964   7.522  0.00  0.00    +0.292 HD
ENDBRANCH  10  26
TORSDOF 6
ENDMDL
MODEL 7
REMARK VINA RESULT:      -6.0      3.606      8.525
REMARK  Name = 5281654
REMARK  6 active torsions:
REMARK  status: ('A' for Active; 'I' for Inactive)
REMARK    1  A    between atoms: C_4  and  C_12
REMARK    2  A    between atoms: C_6  and  O_22
REMARK    3  A    between atoms: C_8  and  O_24
REMARK    4  A    between atoms: C_10  and  O_26
REMARK    5  A    between atoms: C_15  and  O_18
REMARK    6  A    between atoms: C_17  and  O_20
REMARK                            x       y       z     vdW  Elec       q    Type
REMARK                         _______ _______ _______ _____ _____    ______ ____
ROOT
ATOM      1  O   UNL     1     -33.821  19.745   1.526  0.00  0.00    -0.450 OA
ATOM      2  O   UNL     1     -36.775  17.999  -0.672  0.00  0.00    -0.283 OA
ATOM      3  C   UNL     1     -34.557  17.905   0.124  0.00  0.00    +0.110 A 
ATOM      4  C   UNL     1     -35.077  20.322   1.414  0.00  0.00    +0.182 A 
ATOM      5  C   UNL     1     -33.589  18.554   0.889  0.00  0.00    +0.155 A 
ATOM      6  C   UNL     1     -36.093  19.804   0.701  0.00  0.00    +0.208 A 
ATOM      7  C   UNL     1     -35.888  18.519  -0.010  0.00  0.00    +0.238 A 
ATOM      8  C   UNL     1     -34.263  16.693  -0.505  0.00  0.00    +0.143 C 
ATOM      9  C   UNL     1     -32.319  17.993   1.029  0.00  0.00    +0.074 C 
ATOM     10  C   UNL     1     -32.023  16.783   0.403  0.00  0.00    +0.140 C 
ATOM     11  C   UNL     1     -32.993  16.133  -0.362  0.00  0.00    +0.073 C 
ENDROOT
BRANCH   4  12
ATOM     12  C   UNL     1     -35.190  21.596   2.144  0.00  0.00    +0.041 C 
ATOM     13  C   UNL     1     -35.645  21.607   3.464  0.00  0.00    +0.043 C 
ATOM     14  C   UNL     1     -34.845  22.794   1.518  0.00  0.00    +0.006 C 
ATOM     15  C   UNL     1     -35.753  22.814   4.156  0.00  0.00    +0.172 C 
ATOM     16  C   UNL     1     -34.953  24.001   2.209  0.00  0.00    +0.040 C 
ATOM     17  C   UNL     1     -35.407  24.010   3.528  0.00  0.00    +0.168 C 
BRANCH  15  18
ATOM     18  O   UNL     1     -36.197  22.810   5.443  0.00  0.00    -0.468 OA
ATOM     19  C   UNL     1     -35.426  22.076   6.393  0.00  0.00    +0.253 C 
ENDBRANCH  15  18
BRANCH  17  20
ATOM     20  O   UNL     1     -35.507  25.195   4.193  0.00  0.00    -0.503 OA
ATOM     21  H   UNL     1     -35.015  25.335   4.978  0.00  0.00    +0.292 HD
ENDBRANCH  17  20
ENDBRANCH   4  12
BRANCH   6  22
ATOM     22  O   UNL     1     -37.320  20.420   0.584  0.00  0.00    -0.501 OA
ATOM     23  H   UNL     1     -38.100  19.906   0.521  0.00  0.00    +0.292 HD
ENDBRANCH   6  22
BRANCH   8  24
ATOM     24  O   UNL     1     -35.173  16.018  -1.262  0.00  0.00    -0.505 OA
ATOM     25  H   UNL     1     -35.565  15.233  -0.934  0.00  0.00    +0.292 HD
ENDBRANCH   8  24
BRANCH  10  26
ATOM     26  O   UNL     1     -30.785  16.233   0.538  0.00  0.00    -0.505 OA
ATOM     27  H   UNL     1     -30.102  16.715   0.962  0.00  0.00    +0.292 HD
ENDBRANCH  10  26
TORSDOF 6
ENDMDL
MODEL 8
REMARK VINA RESULT:      -5.8      2.521      6.848
REMARK  Name = 5281654
REMARK  6 active torsions:
REMARK  status: ('A' for Active; 'I' for Inactive)
REMARK    1  A    between atoms: C_4  and  C_12
REMARK    2  A    between atoms: C_6  and  O_22
REMARK    3  A    between atoms: C_8  and  O_24
REMARK    4  A    between atoms: C_10  and  O_26
REMARK    5  A    between atoms: C_15  and  O_18
REMARK    6  A    between atoms: C_17  and  O_20
REMARK                            x       y       z     vdW  Elec       q    Type
REMARK                         _______ _______ _______ _____ _____    ______ ____
ROOT
ATOM      1  O   UNL     1     -33.611  25.387   5.021  0.00  0.00    -0.450 OA
ATOM      2  O   UNL     1     -36.849  26.453   2.788  0.00  0.00    -0.283 OA
ATOM      3  C   UNL     1     -35.704  24.759   3.964  0.00  0.00    +0.110 A 
ATOM      4  C   UNL     1     -33.777  26.685   4.562  0.00  0.00    +0.182 A 
ATOM      5  C   UNL     1     -34.573  24.458   4.721  0.00  0.00    +0.155 A 
ATOM      6  C   UNL     1     -34.817  27.102   3.816  0.00  0.00    +0.208 A 
ATOM      7  C   UNL     1     -35.880  26.131   3.462  0.00  0.00    +0.238 A 
ATOM      8  C   UNL     1     -36.651  23.770   3.687  0.00  0.00    +0.143 C 
ATOM      9  C   UNL     1     -34.382  23.164   5.206  0.00  0.00    +0.074 C 
ATOM     10  C   UNL     1     -35.326  22.174   4.932  0.00  0.00    +0.140 C 
ATOM     11  C   UNL     1     -36.458  22.477   4.174  0.00  0.00    +0.073 C 
ENDROOT
BRANCH   4  12
ATOM     12  C   UNL     1     -32.674  27.579   4.954  0.00  0.00    +0.041 C 
ATOM     13  C   UNL     1     -31.837  28.123   3.979  0.00  0.00    +0.043 C 
ATOM     14  C   UNL     1     -32.466  27.883   6.299  0.00  0.00    +0.006 C 
ATOM     15  C   UNL     1     -30.792  28.970   4.350  0.00  0.00    +0.172 C 
ATOM     16  C   UNL     1     -31.421  28.730   6.670  0.00  0.00    +0.040 C 
ATOM     17  C   UNL     1     -30.584  29.273   5.695  0.00  0.00    +0.168 C 
BRANCH  15  18
ATOM     18  O   UNL     1     -29.982  29.494   3.389  0.00  0.00    -0.468 OA
ATOM     19  C   UNL     1     -30.606  30.272   2.369  0.00  0.00    +0.253 C 
ENDBRANCH  15  18
BRANCH  17  20
ATOM     20  O   UNL     1     -29.568  30.099   6.070  0.00  0.00    -0.503 OA
ATOM     21  H   UNL     1     -29.568  30.995   5.797  0.00  0.00    +0.292 HD
ENDBRANCH  17  20
ENDBRANCH   4  12
BRANCH   6  22
ATOM     22  O   UNL     1     -34.936  28.393   3.348  0.00  0.00    -0.501 OA
ATOM     23  H   UNL     1     -35.614  28.611   2.740  0.00  0.00    +0.292 HD
ENDBRANCH   6  22
BRANCH   8  24
ATOM     24  O   UNL     1     -37.773  24.011   2.953  0.00  0.00    -0.505 OA
ATOM     25  H   UNL     1     -38.467  24.525   3.316  0.00  0.00    +0.292 HD
ENDBRANCH   8  24
BRANCH  10  26
ATOM     26  O   UNL     1     -35.142  20.911   5.405  0.00  0.00    -0.505 OA
ATOM     27  H   UNL     1     -34.338  20.680   5.827  0.00  0.00    +0.292 HD
ENDBRANCH  10  26
TORSDOF 6
ENDMDL
MODEL 9
REMARK VINA RESULT:      -5.8      3.132      8.047
REMARK  Name = 5281654
REMARK  6 active torsions:
REMARK  status: ('A' for Active; 'I' for Inactive)
REMARK    1  A    between atoms: C_4  and  C_12
REMARK    2  A    between atoms: C_6  and  O_22
REMARK    3  A    between atoms: C_8  and  O_24
REMARK    4  A    between atoms: C_10  and  O_26
REMARK    5  A    between atoms: C_15  and  O_18
REMARK    6  A    between atoms: C_17  and  O_20
REMARK                            x       y       z     vdW  Elec       q    Type
REMARK                         _______ _______ _______ _____ _____    ______ ____
ROOT
ATOM      1  O   UNL     1     -34.198  20.030   2.128  0.00  0.00    -0.450 OA
ATOM      2  O   UNL     1     -37.237  18.573  -0.164  0.00  0.00    -0.283 OA
ATOM      3  C   UNL     1     -34.980  18.407   0.501  0.00  0.00    +0.110 A 
ATOM      4  C   UNL     1     -35.465  20.591   2.165  0.00  0.00    +0.182 A 
ATOM      5  C   UNL     1     -33.983  18.953   1.308  0.00  0.00    +0.155 A 
ATOM      6  C   UNL     1     -36.510  20.165   1.431  0.00  0.00    +0.208 A 
ATOM      7  C   UNL     1     -36.323  19.006   0.526  0.00  0.00    +0.238 A 
ATOM      8  C   UNL     1     -34.703  17.309  -0.317  0.00  0.00    +0.143 C 
ATOM      9  C   UNL     1     -32.700  18.404   1.300  0.00  0.00    +0.074 C 
ATOM     10  C   UNL     1     -32.420  17.307   0.485  0.00  0.00    +0.140 C 
ATOM     11  C   UNL     1     -33.420  16.760  -0.322  0.00  0.00    +0.073 C 
ENDROOT
BRANCH   4  12
ATOM     12  C   UNL     1     -35.558  21.739   3.084  0.00  0.00    +0.041 C 
ATOM     13  C   UNL     1     -35.751  23.025   2.578  0.00  0.00    +0.043 C 
ATOM     14  C   UNL     1     -35.454  21.541   4.461  0.00  0.00    +0.006 C 
ATOM     15  C   UNL     1     -35.839  24.112   3.448  0.00  0.00    +0.172 C 
ATOM     16  C   UNL     1     -35.542  22.628   5.331  0.00  0.00    +0.040 C 
ATOM     17  C   UNL     1     -35.735  23.913   4.824  0.00  0.00    +0.168 C 
BRANCH  15  18
ATOM     18  O   UNL     1     -36.028  25.362   2.941  0.00  0.00    -0.468 OA
ATOM     19  C   UNL     1     -37.365  25.732   2.610  0.00  0.00    +0.253 C 
ENDBRANCH  15  18
BRANCH  17  20
ATOM     20  O   UNL     1     -35.820  24.966   5.684  0.00  0.00    -0.503 OA
ATOM     21  H   UNL     1     -36.181  25.780   5.394  0.00  0.00    +0.292 HD
ENDBRANCH  17  20
ENDBRANCH   4  12
BRANCH   6  22
ATOM     22  O   UNL     1     -37.749  20.767   1.468  0.00  0.00    -0.501 OA
ATOM     23  H   UNL     1     -38.525  20.242   1.495  0.00  0.00    +0.292 HD
ENDBRANCH   6  22
BRANCH   8  24
ATOM     24  O   UNL     1     -35.640  16.737  -1.123  0.00  0.00    -0.505 OA
ATOM     25  H   UNL     1     -36.550  16.826  -0.919  0.00  0.00    +0.292 HD
ENDBRANCH   8  24
BRANCH  10  26
ATOM     26  O   UNL     1     -31.170  16.769   0.476  0.00  0.00    -0.505 OA
ATOM     27  H   UNL     1     -30.971  16.055  -0.098  0.00  0.00    +0.292 HD
ENDBRANCH  10  26
TORSDOF 6
ENDMDL
