MODEL 1
REMARK VINA RESULT:      -6.7      0.000      0.000
REMARK  Name = 5284539
REMARK  6 active torsions:
REMARK  status: ('A' for Active; 'I' for Inactive)
REMARK    1  A    between atoms: C_7  and  O_23
REMARK    2  A    between atoms: C_7  and  C_28
REMARK    3  A    between atoms: C_11  and  O_25
REMARK    4  A    between atoms: C_28  and  C_29
REMARK    5  A    between atoms: C_29  and  O_30
REMARK    6  A    between atoms: O_30  and  C_32
REMARK                            x       y       z     vdW  Elec       q    Type
REMARK                         _______ _______ _______ _____ _____    ______ ____
ROOT
ATOM      1  F   UNL     1     -34.137  16.638   0.460  0.00  0.00    -0.237 F 
ATOM      2  O   UNL     1     -32.011  12.649  -1.430  0.00  0.00    -0.287 OA
ATOM      3  C   UNL     1     -34.862  20.091   0.757  0.00  0.00    +0.032 C 
ATOM      4  C   UNL     1     -35.485  19.070  -0.220  0.00  0.00    +0.005 C 
ATOM      5  C   UNL     1     -34.445  18.376  -1.112  0.00  0.00    +0.033 C 
ATOM      6  C   UNL     1     -33.411  17.602  -0.214  0.00  0.00    +0.164 C 
ATOM      7  C   UNL     1     -36.161  20.645   1.409  0.00  0.00    +0.142 C 
ATOM      8  C   UNL     1     -36.617  19.850  -0.891  0.00  0.00    +0.003 C 
ATOM      9  C   UNL     1     -33.915  19.312   1.678  0.00  0.00    +0.035 C 
ATOM     10  C   UNL     1     -37.125  20.829   0.201  0.00  0.00    +0.032 C 
ATOM     11  C   UNL     1     -32.835  18.540   0.892  0.00  0.00    +0.141 C 
ATOM     12  C   UNL     1     -32.349  16.822  -1.095  0.00  0.00    +0.064 C 
ATOM     13  C   UNL     1     -35.130  17.435  -2.116  0.00  0.00    +0.007 C 
ATOM     14  C   UNL     1     -34.079  21.228   0.045  0.00  0.00    +0.003 C 
ATOM     15  C   UNL     1     -34.116  16.698  -2.981  0.00  0.00    +0.023 C 
ATOM     16  C   UNL     1     -33.125  15.970  -2.110  0.00  0.00    -0.035 C 
ATOM     17  C   UNL     1     -38.603  20.615   0.518  0.00  0.00    +0.003 C 
ATOM     18  C   UNL     1     -31.414  17.790  -1.856  0.00  0.00    +0.011 C 
ATOM     19  C   UNL     1     -31.428  15.948  -0.255  0.00  0.00    -0.017 C 
ATOM     20  C   UNL     1     -33.009  14.635  -2.214  0.00  0.00    +0.034 C 
ATOM     21  C   UNL     1     -31.308  14.620  -0.352  0.00  0.00    +0.038 C 
ATOM     22  C   UNL     1     -32.102  13.869  -1.338  0.00  0.00    +0.195 C 
ENDROOT
BRANCH   7  23
ATOM     23  O   UNL     1     -36.684  19.775   2.404  0.00  0.00    -0.380 OA
ATOM     24  H   UNL     1     -36.336  18.880   2.267  0.00  0.00    +0.211 HD
ENDBRANCH   7  23
BRANCH  11  25
ATOM     25  O   UNL     1     -32.088  17.806   1.861  0.00  0.00    -0.382 OA
ATOM     26  H   UNL     1     -31.140  17.930   1.701  0.00  0.00    +0.210 HD
ENDBRANCH  11  25
BRANCH   7  28
ATOM     27  O   UNL     1     -36.090  23.016   1.629  0.00  0.00    -0.290 OA
ATOM     28  C   UNL     1     -35.970  21.920   2.174  0.00  0.00    +0.218 C 
BRANCH  28  29
ATOM     29  C   UNL     1     -35.625  21.775   3.641  0.00  0.00    +0.274 C 
BRANCH  29  30
ATOM     30  O   UNL     1     -36.305  22.743   4.411  0.00  0.00    -0.440 OA
BRANCH  30  32
ATOM     31  O   UNL     1     -35.332  24.419   5.667  0.00  0.00    -0.250 OA
ATOM     32  C   UNL     1     -35.624  23.245   5.491  0.00  0.00    +0.318 C 
ATOM     33  C   UNL     1     -35.279  22.141   6.445  0.00  0.00    +0.121 C 
ENDBRANCH  30  32
ENDBRANCH  29  30
ENDBRANCH  28  29
ENDBRANCH   7  28
TORSDOF 6
ENDMDL
MODEL 2
REMARK VINA RESULT:      -6.7      2.216      3.724
REMARK  Name = 5284539
REMARK  6 active torsions:
REMARK  status: ('A' for Active; 'I' for Inactive)
REMARK    1  A    between atoms: C_7  and  O_23
REMARK    2  A    between atoms: C_7  and  C_28
REMARK    3  A    between atoms: C_11  and  O_25
REMARK    4  A    between atoms: C_28  and  C_29
REMARK    5  A    between atoms: C_29  and  O_30
REMARK    6  A    between atoms: O_30  and  C_32
REMARK                            x       y       z     vdW  Elec       q    Type
REMARK                         _______ _______ _______ _____ _____    ______ ____
ROOT
ATOM      1  F   UNL     1     -35.177  20.147  -0.944  0.00  0.00    -0.237 F 
ATOM      2  O   UNL     1     -32.568  16.771  -3.352  0.00  0.00    -0.287 OA
ATOM      3  C   UNL     1     -36.090  22.184   1.804  0.00  0.00    +0.032 C 
ATOM      4  C   UNL     1     -34.966  22.427   0.773  0.00  0.00    +0.005 C 
ATOM      5  C   UNL     1     -33.941  21.284   0.717  0.00  0.00    +0.033 C 
ATOM      6  C   UNL     1     -34.664  19.944   0.322  0.00  0.00    +0.164 C 
ATOM      7  C   UNL     1     -36.861  23.528   1.662  0.00  0.00    +0.142 C 
ATOM      8  C   UNL     1     -34.470  23.837   1.099  0.00  0.00    +0.003 C 
ATOM      9  C   UNL     1     -36.837  20.919   1.364  0.00  0.00    +0.035 C 
ATOM     10  C   UNL     1     -35.728  24.593   1.602  0.00  0.00    +0.032 C 
ATOM     11  C   UNL     1     -35.901  19.698   1.240  0.00  0.00    +0.141 C 
ATOM     12  C   UNL     1     -33.634  18.746   0.197  0.00  0.00    +0.064 C 
ATOM     13  C   UNL     1     -32.806  21.620  -0.264  0.00  0.00    +0.007 C 
ATOM     14  C   UNL     1     -35.568  22.004   3.256  0.00  0.00    +0.003 C 
ATOM     15  C   UNL     1     -31.801  20.481  -0.373  0.00  0.00    +0.023 C 
ATOM     16  C   UNL     1     -32.505  19.201  -0.740  0.00  0.00    -0.035 C 
ATOM     17  C   UNL     1     -36.040  25.818   0.747  0.00  0.00    +0.003 C 
ATOM     18  C   UNL     1     -33.029  18.364   1.569  0.00  0.00    +0.011 C 
ATOM     19  C   UNL     1     -34.285  17.473  -0.325  0.00  0.00    -0.017 C 
ATOM     20  C   UNL     1     -32.168  18.562  -1.873  0.00  0.00    +0.034 C 
ATOM     21  C   UNL     1     -33.955  16.833  -1.452  0.00  0.00    +0.038 C 
ATOM     22  C   UNL     1     -32.873  17.342  -2.311  0.00  0.00    +0.195 C 
ENDROOT
BRANCH   7  23
ATOM     23  O   UNL     1     -37.702  23.553   0.515  0.00  0.00    -0.380 OA
ATOM     24  H   UNL     1     -37.263  23.095  -0.218  0.00  0.00    +0.211 HD
ENDBRANCH   7  23
BRANCH  11  25
ATOM     25  O   UNL     1     -36.709  18.628   0.751  0.00  0.00    -0.382 OA
ATOM     26  H   UNL     1     -36.139  17.938   0.376  0.00  0.00    +0.210 HD
ENDBRANCH  11  25
BRANCH   7  28
ATOM     27  O   UNL     1     -38.794  23.061   2.972  0.00  0.00    -0.290 OA
ATOM     28  C   UNL     1     -37.832  23.800   2.770  0.00  0.00    +0.218 C 
BRANCH  28  29
ATOM     29  C   UNL     1     -37.558  25.027   3.614  0.00  0.00    +0.274 C 
BRANCH  29  30
ATOM     30  O   UNL     1     -36.973  24.663   4.846  0.00  0.00    -0.440 OA
BRANCH  30  32
ATOM     31  O   UNL     1     -35.816  26.604   5.325  0.00  0.00    -0.250 OA
ATOM     32  C   UNL     1     -35.872  25.386   5.230  0.00  0.00    +0.318 C 
ATOM     33  C   UNL     1     -34.724  24.467   5.525  0.00  0.00    +0.121 C 
ENDBRANCH  30  32
ENDBRANCH  29  30
ENDBRANCH  28  29
ENDBRANCH   7  28
TORSDOF 6
ENDMDL
MODEL 3
REMARK VINA RESULT:      -6.7      5.472      9.979
REMARK  Name = 5284539
REMARK  6 active torsions:
REMARK  status: ('A' for Active; 'I' for Inactive)
REMARK    1  A    between atoms: C_7  and  O_23
REMARK    2  A    between atoms: C_7  and  C_28
REMARK    3  A    between atoms: C_11  and  O_25
REMARK    4  A    between atoms: C_28  and  C_29
REMARK    5  A    between atoms: C_29  and  O_30
REMARK    6  A    between atoms: O_30  and  C_32
REMARK                            x       y       z     vdW  Elec       q    Type
REMARK                         _______ _______ _______ _____ _____    ______ ____
ROOT
ATOM      1  F   UNL     1     -36.831  27.157   2.622  0.00  0.00    -0.237 F 
ATOM      2  O   UNL     1     -36.704  32.018   2.027  0.00  0.00    -0.287 OA
ATOM      3  C   UNL     1     -35.650  23.829   2.367  0.00  0.00    +0.032 C 
ATOM      4  C   UNL     1     -35.271  24.894   3.420  0.00  0.00    +0.005 C 
ATOM      5  C   UNL     1     -34.690  26.174   2.801  0.00  0.00    +0.033 C 
ATOM      6  C   UNL     1     -35.748  26.821   1.833  0.00  0.00    +0.164 C 
ATOM      7  C   UNL     1     -36.099  22.681   3.315  0.00  0.00    +0.142 C 
ATOM      8  C   UNL     1     -34.422  24.121   4.431  0.00  0.00    +0.003 C 
ATOM      9  C   UNL     1     -36.739  24.444   1.478  0.00  0.00    +0.035 C 
ATOM     10  C   UNL     1     -35.015  22.687   4.432  0.00  0.00    +0.032 C 
ATOM     11  C   UNL     1     -36.282  25.763   0.819  0.00  0.00    +0.141 C 
ATOM     12  C   UNL     1     -35.211  28.178   1.214  0.00  0.00    +0.064 C 
ATOM     13  C   UNL     1     -34.257  27.159   3.898  0.00  0.00    +0.007 C 
ATOM     14  C   UNL     1     -34.452  23.376   1.487  0.00  0.00    +0.003 C 
ATOM     15  C   UNL     1     -33.720  28.457   3.310  0.00  0.00    +0.023 C 
ATOM     16  C   UNL     1     -34.736  29.062   2.376  0.00  0.00    -0.035 C 
ATOM     17  C   UNL     1     -35.513  22.275   5.815  0.00  0.00    +0.003 C 
ATOM     18  C   UNL     1     -34.030  27.939   0.245  0.00  0.00    +0.011 C 
ATOM     19  C   UNL     1     -36.270  28.898   0.390  0.00  0.00    -0.017 C 
ATOM     20  C   UNL     1     -35.216  30.292   2.628  0.00  0.00    +0.034 C 
ATOM     21  C   UNL     1     -36.753  30.121   0.636  0.00  0.00    +0.038 C 
ATOM     22  C   UNL     1     -36.262  30.901   1.783  0.00  0.00    +0.195 C 
ENDROOT
BRANCH   7  23
ATOM     23  O   UNL     1     -37.413  22.876   3.822  0.00  0.00    -0.380 OA
ATOM     24  H   UNL     1     -37.754  22.038   4.169  0.00  0.00    +0.211 HD
ENDBRANCH   7  23
BRANCH  11  25
ATOM     25  O   UNL     1     -37.410  26.256   0.097  0.00  0.00    -0.382 OA
ATOM     26  H   UNL     1     -37.158  26.416  -0.826  0.00  0.00    +0.210 HD
ENDBRANCH  11  25
BRANCH   7  28
ATOM     27  O   UNL     1     -35.492  20.402   2.980  0.00  0.00    -0.290 OA
ATOM     28  C   UNL     1     -36.213  21.342   2.650  0.00  0.00    +0.218 C 
BRANCH  28  29
ATOM     29  C   UNL     1     -37.258  21.223   1.561  0.00  0.00    +0.274 C 
BRANCH  29  30
ATOM     30  O   UNL     1     -38.534  20.994   2.118  0.00  0.00    -0.440 OA
BRANCH  30  32
ATOM     31  O   UNL     1     -40.068  22.719   2.203  0.00  0.00    -0.250 OA
ATOM     32  C   UNL     1     -39.556  21.769   1.629  0.00  0.00    +0.318 C 
ATOM     33  C   UNL     1     -39.968  21.286   0.270  0.00  0.00    +0.121 C 
ENDBRANCH  30  32
ENDBRANCH  29  30
ENDBRANCH  28  29
ENDBRANCH   7  28
TORSDOF 6
ENDMDL
MODEL 4
REMARK VINA RESULT:      -6.6      5.491      8.415
REMARK  Name = 5284539
REMARK  6 active torsions:
REMARK  status: ('A' for Active; 'I' for Inactive)
REMARK    1  A    between atoms: C_7  and  O_23
REMARK    2  A    between atoms: C_7  and  C_28
REMARK    3  A    between atoms: C_11  and  O_25
REMARK    4  A    between atoms: C_28  and  C_29
REMARK    5  A    between atoms: C_29  and  O_30
REMARK    6  A    between atoms: O_30  and  C_32
REMARK                            x       y       z     vdW  Elec       q    Type
REMARK                         _______ _______ _______ _____ _____    ______ ____
ROOT
ATOM      1  F   UNL     1     -38.413  23.486   3.359  0.00  0.00    -0.237 F 
ATOM      2  O   UNL     1     -34.873  20.842   5.476  0.00  0.00    -0.287 OA
ATOM      3  C   UNL     1     -39.819  25.713   0.992  0.00  0.00    +0.032 C 
ATOM      4  C   UNL     1     -39.557  24.199   0.834  0.00  0.00    +0.005 C 
ATOM      5  C   UNL     1     -38.084  23.818   1.043  0.00  0.00    +0.033 C 
ATOM      6  C   UNL     1     -37.631  24.227   2.493  0.00  0.00    +0.164 C 
ATOM      7  C   UNL     1     -41.333  25.748   0.636  0.00  0.00    +0.142 C 
ATOM      8  C   UNL     1     -40.219  23.852  -0.501  0.00  0.00    +0.003 C 
ATOM      9  C   UNL     1     -39.449  26.085   2.434  0.00  0.00    +0.035 C 
ATOM     10  C   UNL     1     -41.438  24.806  -0.599  0.00  0.00    +0.032 C 
ATOM     11  C   UNL     1     -37.990  25.718   2.778  0.00  0.00    +0.141 C 
ATOM     12  C   UNL     1     -36.131  23.800   2.773  0.00  0.00    +0.064 C 
ATOM     13  C   UNL     1     -37.871  22.316   0.792  0.00  0.00    +0.007 C 
ATOM     14  C   UNL     1     -39.004  26.589   0.002  0.00  0.00    +0.003 C 
ATOM     15  C   UNL     1     -36.426  21.903   1.038  0.00  0.00    +0.023 C 
ATOM     16  C   UNL     1     -36.000  22.310   2.426  0.00  0.00    -0.035 C 
ATOM     17  C   UNL     1     -42.754  24.043  -0.716  0.00  0.00    +0.003 C 
ATOM     18  C   UNL     1     -35.134  24.610   1.912  0.00  0.00    +0.011 C 
ATOM     19  C   UNL     1     -35.716  24.053   4.216  0.00  0.00    -0.017 C 
ATOM     20  C   UNL     1     -35.594  21.370   3.295  0.00  0.00    +0.034 C 
ATOM     21  C   UNL     1     -35.312  23.122   5.087  0.00  0.00    +0.038 C 
ATOM     22  C   UNL     1     -35.231  21.708   4.685  0.00  0.00    +0.195 C 
ENDROOT
BRANCH   7  23
ATOM     23  O   UNL     1     -42.156  25.331   1.718  0.00  0.00    -0.380 OA
ATOM     24  H   UNL     1     -41.889  24.444   2.005  0.00  0.00    +0.211 HD
ENDBRANCH   7  23
BRANCH  11  25
ATOM     25  O   UNL     1     -37.814  26.042   4.157  0.00  0.00    -0.382 OA
ATOM     26  H   UNL     1     -37.655  26.994   4.247  0.00  0.00    +0.210 HD
ENDBRANCH  11  25
BRANCH   7  28
ATOM     27  O   UNL     1     -41.595  27.699  -0.705  0.00  0.00    -0.290 OA
ATOM     28  C   UNL     1     -41.865  27.118   0.345  0.00  0.00    +0.218 C 
BRANCH  28  29
ATOM     29  C   UNL     1     -42.745  27.736   1.412  0.00  0.00    +0.274 C 
BRANCH  29  30
ATOM     30  O   UNL     1     -41.959  28.299   2.440  0.00  0.00    -0.440 OA
BRANCH  30  32
ATOM     31  O   UNL     1     -42.053  28.867   4.677  0.00  0.00    -0.250 OA
ATOM     32  C   UNL     1     -42.523  28.318   3.691  0.00  0.00    +0.318 C 
ATOM     33  C   UNL     1     -43.818  27.561   3.687  0.00  0.00    +0.121 C 
ENDBRANCH  30  32
ENDBRANCH  29  30
ENDBRANCH  28  29
ENDBRANCH   7  28
TORSDOF 6
ENDMDL
MODEL 5
REMARK VINA RESULT:      -6.5      7.218     11.921
REMARK  Name = 5284539
REMARK  6 active torsions:
REMARK  status: ('A' for Active; 'I' for Inactive)
REMARK    1  A    between atoms: C_7  and  O_23
REMARK    2  A    between atoms: C_7  and  C_28
REMARK    3  A    between atoms: C_11  and  O_25
REMARK    4  A    between atoms: C_28  and  C_29
REMARK    5  A    between atoms: C_29  and  O_30
REMARK    6  A    between atoms: O_30  and  C_32
REMARK                            x       y       z     vdW  Elec       q    Type
REMARK                         _______ _______ _______ _____ _____    ______ ____
ROOT
ATOM      1  F   UNL     1     -35.470  30.569   2.909  0.00  0.00    -0.237 F 
ATOM      2  O   UNL     1     -34.410  35.235   1.855  0.00  0.00    -0.287 OA
ATOM      3  C   UNL     1     -35.270  27.049   2.590  0.00  0.00    +0.032 C 
ATOM      4  C   UNL     1     -34.313  27.989   3.355  0.00  0.00    +0.005 C 
ATOM      5  C   UNL     1     -33.694  29.076   2.462  0.00  0.00    +0.033 C 
ATOM      6  C   UNL     1     -34.835  29.964   1.842  0.00  0.00    +0.164 C 
ATOM      7  C   UNL     1     -35.624  26.058   3.735  0.00  0.00    +0.142 C 
ATOM      8  C   UNL     1     -33.377  27.033   4.097  0.00  0.00    +0.003 C 
ATOM      9  C   UNL     1     -36.419  27.913   2.056  0.00  0.00    +0.035 C 
ATOM     10  C   UNL     1     -34.255  25.797   4.427  0.00  0.00    +0.032 C 
ATOM     11  C   UNL     1     -35.918  29.069   1.163  0.00  0.00    +0.141 C 
ATOM     12  C   UNL     1     -34.239  31.136   0.957  0.00  0.00    +0.064 C 
ATOM     13  C   UNL     1     -32.692  29.926   3.259  0.00  0.00    +0.007 C 
ATOM     14  C   UNL     1     -34.589  26.301   1.410  0.00  0.00    +0.003 C 
ATOM     15  C   UNL     1     -32.099  31.042   2.408  0.00  0.00    +0.023 C 
ATOM     16  C   UNL     1     -33.200  31.879   1.810  0.00  0.00    -0.035 C 
ATOM     17  C   UNL     1     -34.332  25.534   5.928  0.00  0.00    +0.003 C 
ATOM     18  C   UNL     1     -33.553  30.598  -0.321  0.00  0.00    +0.011 C 
ATOM     19  C   UNL     1     -35.313  32.095   0.465  0.00  0.00    -0.017 C 
ATOM     20  C   UNL     1     -33.260  33.191   2.090  0.00  0.00    +0.034 C 
ATOM     21  C   UNL     1     -35.380  33.402   0.741  0.00  0.00    +0.038 C 
ATOM     22  C   UNL     1     -34.356  34.040   1.584  0.00  0.00    +0.195 C 
ENDROOT
BRANCH   7  23
ATOM     23  O   UNL     1     -36.600  26.584   4.626  0.00  0.00    -0.380 OA
ATOM     24  H   UNL     1     -36.205  26.710   5.502  0.00  0.00    +0.211 HD
ENDBRANCH   7  23
BRANCH  11  25
ATOM     25  O   UNL     1     -37.075  29.827   0.811  0.00  0.00    -0.382 OA
ATOM     26  H   UNL     1     -37.499  30.163   1.616  0.00  0.00    +0.210 HD
ENDBRANCH  11  25
BRANCH   7  28
ATOM     27  O   UNL     1     -37.377  24.796   2.731  0.00  0.00    -0.290 OA
ATOM     28  C   UNL     1     -36.272  24.788   3.273  0.00  0.00    +0.218 C 
BRANCH  28  29
ATOM     29  C   UNL     1     -35.493  23.513   3.512  0.00  0.00    +0.274 C 
BRANCH  29  30
ATOM     30  O   UNL     1     -36.225  22.629   4.335  0.00  0.00    -0.440 OA
BRANCH  30  32
ATOM     31  O   UNL     1     -35.038  20.655   4.512  0.00  0.00    -0.250 OA
ATOM     32  C   UNL     1     -35.494  21.679   5.002  0.00  0.00    +0.318 C 
ATOM     33  C   UNL     1     -35.324  22.069   6.439  0.00  0.00    +0.121 C 
ENDBRANCH  30  32
ENDBRANCH  29  30
ENDBRANCH  28  29
ENDBRANCH   7  28
TORSDOF 6
ENDMDL
MODEL 6
REMARK VINA RESULT:      -6.4      3.106      4.905
REMARK  Name = 5284539
REMARK  6 active torsions:
REMARK  status: ('A' for Active; 'I' for Inactive)
REMARK    1  A    between atoms: C_7  and  O_23
REMARK    2  A    between atoms: C_7  and  C_28
REMARK    3  A    between atoms: C_11  and  O_25
REMARK    4  A    between atoms: C_28  and  C_29
REMARK    5  A    between atoms: C_29  and  O_30
REMARK    6  A    between atoms: O_30  and  C_32
REMARK                            x       y       z     vdW  Elec       q    Type
REMARK                         _______ _______ _______ _____ _____    ______ ____
ROOT
ATOM      1  F   UNL     1     -32.944  21.792   0.408  0.00  0.00    -0.237 F 
ATOM      2  O   UNL     1     -31.015  19.083  -3.190  0.00  0.00    -0.287 OA
ATOM      3  C   UNL     1     -35.531  23.232   2.349  0.00  0.00    +0.032 C 
ATOM      4  C   UNL     1     -34.940  21.810   2.459  0.00  0.00    +0.005 C 
ATOM      5  C   UNL     1     -35.046  21.010   1.152  0.00  0.00    +0.033 C 
ATOM      6  C   UNL     1     -34.267  21.758   0.009  0.00  0.00    +0.164 C 
ATOM      7  C   UNL     1     -35.345  23.701   3.821  0.00  0.00    +0.142 C 
ATOM      8  C   UNL     1     -35.595  21.240   3.719  0.00  0.00    +0.003 C 
ATOM      9  C   UNL     1     -34.713  23.978   1.287  0.00  0.00    +0.035 C 
ATOM     10  C   UNL     1     -35.785  22.463   4.655  0.00  0.00    +0.032 C 
ATOM     11  C   UNL     1     -34.716  23.250  -0.074  0.00  0.00    +0.141 C 
ATOM     12  C   UNL     1     -34.301  20.939  -1.347  0.00  0.00    +0.064 C 
ATOM     13  C   UNL     1     -34.518  19.579   1.347  0.00  0.00    +0.007 C 
ATOM     14  C   UNL     1     -37.034  23.249   1.955  0.00  0.00    +0.003 C 
ATOM     15  C   UNL     1     -34.568  18.779   0.053  0.00  0.00    +0.023 C 
ATOM     16  C   UNL     1     -33.829  19.511  -1.038  0.00  0.00    -0.035 C 
ATOM     17  C   UNL     1     -35.053  22.288   5.982  0.00  0.00    +0.003 C 
ATOM     18  C   UNL     1     -35.725  20.883  -1.947  0.00  0.00    +0.011 C 
ATOM     19  C   UNL     1     -33.433  21.569  -2.427  0.00  0.00    -0.017 C 
ATOM     20  C   UNL     1     -32.778  18.922  -1.634  0.00  0.00    +0.034 C 
ATOM     21  C   UNL     1     -32.385  20.989  -3.024  0.00  0.00    +0.038 C 
ATOM     22  C   UNL     1     -31.980  19.622  -2.659  0.00  0.00    +0.195 C 
ENDROOT
BRANCH   7  23
ATOM     23  O   UNL     1     -34.011  24.106   4.097  0.00  0.00    -0.380 OA
ATOM     24  H   UNL     1     -33.394  23.565   3.580  0.00  0.00    +0.211 HD
ENDBRANCH   7  23
BRANCH  11  25
ATOM     25  O   UNL     1     -33.858  24.006  -0.929  0.00  0.00    -0.382 OA
ATOM     26  H   UNL     1     -34.292  24.841  -1.164  0.00  0.00    +0.210 HD
ENDBRANCH  11  25
BRANCH   7  28
ATOM     27  O   UNL     1     -37.277  24.849   4.610  0.00  0.00    -0.290 OA
ATOM     28  C   UNL     1     -36.128  24.928   4.180  0.00  0.00    +0.218 C 
BRANCH  28  29
ATOM     29  C   UNL     1     -35.423  26.253   3.981  0.00  0.00    +0.274 C 
BRANCH  29  30
ATOM     30  O   UNL     1     -34.896  26.724   5.203  0.00  0.00    -0.440 OA
BRANCH  30  32
ATOM     31  O   UNL     1     -32.764  26.862   4.324  0.00  0.00    -0.250 OA
ATOM     32  C   UNL     1     -33.528  26.813   5.276  0.00  0.00    +0.318 C 
ATOM     33  C   UNL     1     -33.087  26.843   6.709  0.00  0.00    +0.121 C 
ENDBRANCH  30  32
ENDBRANCH  29  30
ENDBRANCH  28  29
ENDBRANCH   7  28
TORSDOF 6
ENDMDL
MODEL 7
REMARK VINA RESULT:      -6.3      8.612     13.363
REMARK  Name = 5284539
REMARK  6 active torsions:
REMARK  status: ('A' for Active; 'I' for Inactive)
REMARK    1  A    between atoms: C_7  and  O_23
REMARK    2  A    between atoms: C_7  and  C_28
REMARK    3  A    between atoms: C_11  and  O_25
REMARK    4  A    between atoms: C_28  and  C_29
REMARK    5  A    between atoms: C_29  and  O_30
REMARK    6  A    between atoms: O_30  and  C_32
REMARK                            x       y       z     vdW  Elec       q    Type
REMARK                         _______ _______ _______ _____ _____    ______ ____
ROOT
ATOM      1  F   UNL     1     -36.053  31.396   2.925  0.00  0.00    -0.237 F 
ATOM      2  O   UNL     1     -39.142  35.024   1.785  0.00  0.00    -0.287 OA
ATOM      3  C   UNL     1     -33.409  29.103   2.389  0.00  0.00    +0.032 C 
ATOM      4  C   UNL     1     -33.310  30.586   2.808  0.00  0.00    +0.005 C 
ATOM      5  C   UNL     1     -33.976  31.542   1.807  0.00  0.00    +0.033 C 
ATOM      6  C   UNL     1     -35.503  31.189   1.674  0.00  0.00    +0.164 C 
ATOM      7  C   UNL     1     -32.582  28.457   3.537  0.00  0.00    +0.142 C 
ATOM      8  C   UNL     1     -31.825  30.778   3.123  0.00  0.00    +0.003 C 
ATOM      9  C   UNL     1     -34.901  28.748   2.339  0.00  0.00    +0.035 C 
ATOM     10  C   UNL     1     -31.359  29.408   3.685  0.00  0.00    +0.032 C 
ATOM     11  C   UNL     1     -35.691  29.668   1.383  0.00  0.00    +0.141 C 
ATOM     12  C   UNL     1     -36.245  32.187   0.692  0.00  0.00    +0.064 C 
ATOM     13  C   UNL     1     -33.774  33.004   2.235  0.00  0.00    +0.007 C 
ATOM     14  C   UNL     1     -32.756  28.806   1.011  0.00  0.00    +0.003 C 
ATOM     15  C   UNL     1     -34.466  33.971   1.283  0.00  0.00    +0.023 C 
ATOM     16  C   UNL     1     -35.925  33.616   1.155  0.00  0.00    -0.035 C 
ATOM     17  C   UNL     1     -30.805  29.529   5.101  0.00  0.00    +0.003 C 
ATOM     18  C   UNL     1     -35.772  32.011  -0.770  0.00  0.00    +0.011 C 
ATOM     19  C   UNL     1     -37.749  31.959   0.659  0.00  0.00    -0.017 C 
ATOM     20  C   UNL     1     -36.858  34.520   1.500  0.00  0.00    +0.034 C 
ATOM     21  C   UNL     1     -38.683  32.852   1.002  0.00  0.00    +0.038 C 
ATOM     22  C   UNL     1     -38.297  34.198   1.456  0.00  0.00    +0.195 C 
ENDROOT
BRANCH   7  23
ATOM     23  O   UNL     1     -33.330  28.331   4.740  0.00  0.00    -0.380 OA
ATOM     24  H   UNL     1     -32.844  27.775   5.368  0.00  0.00    +0.211 HD
ENDBRANCH   7  23
BRANCH  11  25
ATOM     25  O   UNL     1     -37.059  29.279   1.500  0.00  0.00    -0.382 OA
ATOM     26  H   UNL     1     -37.445  29.184   0.616  0.00  0.00    +0.210 HD
ENDBRANCH  11  25
BRANCH   7  28
ATOM     27  O   UNL     1     -31.001  26.760   2.998  0.00  0.00    -0.290 OA
ATOM     28  C   UNL     1     -32.166  27.042   3.276  0.00  0.00    +0.218 C 
BRANCH  28  29
ATOM     29  C   UNL     1     -33.255  25.994   3.372  0.00  0.00    +0.274 C 
BRANCH  29  30
ATOM     30  O   UNL     1     -33.312  25.456   4.676  0.00  0.00    -0.440 OA
BRANCH  30  32
ATOM     31  O   UNL     1     -35.263  26.250   5.625  0.00  0.00    -0.250 OA
ATOM     32  C   UNL     1     -34.564  25.330   5.223  0.00  0.00    +0.318 C 
ATOM     33  C   UNL     1     -34.971  23.887   5.264  0.00  0.00    +0.121 C 
ENDBRANCH  30  32
ENDBRANCH  29  30
ENDBRANCH  28  29
ENDBRANCH   7  28
TORSDOF 6
ENDMDL
MODEL 8
REMARK VINA RESULT:      -6.3      3.487      8.461
REMARK  Name = 5284539
REMARK  6 active torsions:
REMARK  status: ('A' for Active; 'I' for Inactive)
REMARK    1  A    between atoms: C_7  and  O_23
REMARK    2  A    between atoms: C_7  and  C_28
REMARK    3  A    between atoms: C_11  and  O_25
REMARK    4  A    between atoms: C_28  and  C_29
REMARK    5  A    between atoms: C_29  and  O_30
REMARK    6  A    between atoms: O_30  and  C_32
REMARK                            x       y       z     vdW  Elec       q    Type
REMARK                         _______ _______ _______ _____ _____    ______ ____
ROOT
ATOM      1  F   UNL     1     -34.678  23.066   3.266  0.00  0.00    -0.237 F 
ATOM      2  O   UNL     1     -33.684  26.576   6.535  0.00  0.00    -0.287 OA
ATOM      3  C   UNL     1     -36.013  21.696   0.287  0.00  0.00    +0.032 C 
ATOM      4  C   UNL     1     -34.683  22.459   0.469  0.00  0.00    +0.005 C 
ATOM      5  C   UNL     1     -34.871  23.868   1.052  0.00  0.00    +0.033 C 
ATOM      6  C   UNL     1     -35.556  23.769   2.464  0.00  0.00    +0.164 C 
ATOM      7  C   UNL     1     -35.475  20.400  -0.383  0.00  0.00    +0.142 C 
ATOM      8  C   UNL     1     -33.992  22.317  -0.889  0.00  0.00    +0.003 C 
ATOM      9  C   UNL     1     -36.635  21.537   1.680  0.00  0.00    +0.035 C 
ATOM     10  C   UNL     1     -34.438  20.928  -1.417  0.00  0.00    +0.032 C 
ATOM     11  C   UNL     1     -36.845  22.893   2.388  0.00  0.00    +0.141 C 
ATOM     12  C   UNL     1     -35.719  25.198   3.130  0.00  0.00    +0.064 C 
ATOM     13  C   UNL     1     -33.525  24.606   1.132  0.00  0.00    +0.007 C 
ATOM     14  C   UNL     1     -37.018  22.420  -0.652  0.00  0.00    +0.003 C 
ATOM     15  C   UNL     1     -33.676  25.989   1.752  0.00  0.00    +0.023 C 
ATOM     16  C   UNL     1     -34.344  25.883   3.098  0.00  0.00    -0.035 C 
ATOM     17  C   UNL     1     -33.251  20.003  -1.668  0.00  0.00    +0.003 C 
ATOM     18  C   UNL     1     -36.738  26.074   2.366  0.00  0.00    +0.011 C 
ATOM     19  C   UNL     1     -36.245  25.117   4.556  0.00  0.00    -0.017 C 
ATOM     20  C   UNL     1     -33.701  26.325   4.192  0.00  0.00    +0.034 C 
ATOM     21  C   UNL     1     -35.609  25.553   5.649  0.00  0.00    +0.038 C 
ATOM     22  C   UNL     1     -34.283  26.182   5.541  0.00  0.00    +0.195 C 
ENDROOT
BRANCH   7  23
ATOM     23  O   UNL     1     -34.904  19.499   0.558  0.00  0.00    -0.380 OA
ATOM     24  H   UNL     1     -34.519  18.742   0.091  0.00  0.00    +0.211 HD
ENDBRANCH   7  23
BRANCH  11  25
ATOM     25  O   UNL     1     -37.346  22.587   3.689  0.00  0.00    -0.382 OA
ATOM     26  H   UNL     1     -38.299  22.416   3.636  0.00  0.00    +0.210 HD
ENDBRANCH  11  25
BRANCH   7  28
ATOM     27  O   UNL     1     -36.737  19.603  -2.239  0.00  0.00    -0.290 OA
ATOM     28  C   UNL     1     -36.531  19.554  -1.027  0.00  0.00    +0.218 C 
BRANCH  28  29
ATOM     29  C   UNL     1     -37.320  18.649  -0.104  0.00  0.00    +0.274 C 
BRANCH  29  30
ATOM     30  O   UNL     1     -36.910  17.307  -0.255  0.00  0.00    -0.440 OA
BRANCH  30  32
ATOM     31  O   UNL     1     -37.912  15.302   0.306  0.00  0.00    -0.250 OA
ATOM     32  C   UNL     1     -37.912  16.370  -0.291  0.00  0.00    +0.318 C 
ATOM     33  C   UNL     1     -39.029  16.838  -1.175  0.00  0.00    +0.121 C 
ENDBRANCH  30  32
ENDBRANCH  29  30
ENDBRANCH  28  29
ENDBRANCH   7  28
TORSDOF 6
ENDMDL
MODEL 9
REMARK VINA RESULT:      -6.3      5.342     10.240
REMARK  Name = 5284539
REMARK  6 active torsions:
REMARK  status: ('A' for Active; 'I' for Inactive)
REMARK    1  A    between atoms: C_7  and  O_23
REMARK    2  A    between atoms: C_7  and  C_28
REMARK    3  A    between atoms: C_11  and  O_25
REMARK    4  A    between atoms: C_28  and  C_29
REMARK    5  A    between atoms: C_29  and  O_30
REMARK    6  A    between atoms: O_30  and  C_32
REMARK                            x       y       z     vdW  Elec       q    Type
REMARK                         _______ _______ _______ _____ _____    ______ ____
ROOT
ATOM      1  F   UNL     1     -35.485  28.088   3.091  0.00  0.00    -0.237 F 
ATOM      2  O   UNL     1     -33.936  32.704   2.544  0.00  0.00    -0.287 OA
ATOM      3  C   UNL     1     -35.388  24.570   2.704  0.00  0.00    +0.032 C 
ATOM      4  C   UNL     1     -34.630  25.434   3.737  0.00  0.00    +0.005 C 
ATOM      5  C   UNL     1     -33.735  26.501   3.089  0.00  0.00    +0.033 C 
ATOM      6  C   UNL     1     -34.614  27.469   2.215  0.00  0.00    +0.164 C 
ATOM      7  C   UNL     1     -36.094  23.577   3.672  0.00  0.00    +0.142 C 
ATOM      8  C   UNL     1     -33.985  24.406   4.669  0.00  0.00    +0.003 C 
ATOM      9  C   UNL     1     -36.300  25.514   1.911  0.00  0.00    +0.035 C 
ATOM     10  C   UNL     1     -34.982  23.218   4.700  0.00  0.00    +0.032 C 
ATOM     11  C   UNL     1     -35.514  26.657   1.234  0.00  0.00    +0.141 C 
ATOM     12  C   UNL     1     -33.738  28.623   1.572  0.00  0.00    +0.064 C 
ATOM     13  C   UNL     1     -32.947  27.271   4.160  0.00  0.00    +0.007 C 
ATOM     14  C   UNL     1     -34.449  23.809   1.728  0.00  0.00    +0.003 C 
ATOM     15  C   UNL     1     -32.086  28.367   3.547  0.00  0.00    +0.023 C 
ATOM     16  C   UNL     1     -32.936  29.282   2.703  0.00  0.00    -0.035 C 
ATOM     17  C   UNL     1     -35.481  22.927   6.112  0.00  0.00    +0.003 C 
ATOM     18  C   UNL     1     -32.757  28.074   0.510  0.00  0.00    +0.011 C 
ATOM     19  C   UNL     1     -34.585  29.656   0.842  0.00  0.00    -0.017 C 
ATOM     20  C   UNL     1     -33.002  30.590   3.007  0.00  0.00    +0.034 C 
ATOM     21  C   UNL     1     -34.656  30.958   1.139  0.00  0.00    +0.038 C 
ATOM     22  C   UNL     1     -33.871  31.514   2.253  0.00  0.00    +0.195 C 
ENDROOT
BRANCH   7  23
ATOM     23  O   UNL     1     -37.248  24.141   4.282  0.00  0.00    -0.380 OA
ATOM     24  H   UNL     1     -37.060  24.335   5.213  0.00  0.00    +0.211 HD
ENDBRANCH   7  23
BRANCH  11  25
ATOM     25  O   UNL     1     -36.489  27.492   0.608  0.00  0.00    -0.382 OA
ATOM     26  H   UNL     1     -36.531  28.342   1.072  0.00  0.00    +0.210 HD
ENDBRANCH  11  25
BRANCH   7  28
ATOM     27  O   UNL     1     -37.725  22.400   2.396  0.00  0.00    -0.290 OA
ATOM     28  C   UNL     1     -36.655  22.359   3.002  0.00  0.00    +0.218 C 
BRANCH  28  29
ATOM     29  C   UNL     1     -35.834  21.093   3.117  0.00  0.00    +0.274 C 
BRANCH  29  30
ATOM     30  O   UNL     1     -36.216  20.160   2.129  0.00  0.00    -0.440 OA
BRANCH  30  32
ATOM     31  O   UNL     1     -35.672  20.354  -0.108  0.00  0.00    -0.250 OA
ATOM     32  C   UNL     1     -35.384  20.056   1.042  0.00  0.00    +0.318 C 
ATOM     33  C   UNL     1     -34.049  19.516   1.461  0.00  0.00    +0.121 C 
ENDBRANCH  30  32
ENDBRANCH  29  30
ENDBRANCH  28  29
ENDBRANCH   7  28
TORSDOF 6
ENDMDL
