MODEL 1
REMARK VINA RESULT:      -6.5      0.000      0.000
REMARK  Name = 5337997
REMARK  6 active torsions:
REMARK  status: ('A' for Active; 'I' for Inactive)
REMARK    1  A    between atoms: N_2  and  N_13
REMARK    2  A    between atoms: C_3  and  C_5
REMARK    3  A    between atoms: C_10  and  O_11
REMARK    4  A    between atoms: N_13  and  C_14
REMARK    5  A    between atoms: C_14  and  C_16
REMARK    6  A    between atoms: C_18  and  N_22
REMARK                            x       y       z     vdW  Elec       q    Type
REMARK                         _______ _______ _______ _____ _____    ______ ____
ROOT
ATOM      1  O   UNL     1     -34.102  26.131   6.364  0.00  0.00    -0.269 OA
ATOM      2  N   UNL     1     -34.043  26.725   4.148  0.00  0.00    -0.228 N 
ATOM      3  C   UNL     1     -34.278  25.812   5.178  0.00  0.00    +0.260 C 
ATOM      4  H   UNL     1     -34.185  26.465   3.209  0.00  0.00    +0.171 HD
ENDROOT
BRANCH   3   5
ATOM      5  C   UNL     1     -34.709  24.482   4.772  0.00  0.00    +0.055 C 
ATOM      6  C   UNL     1     -34.826  24.172   3.417  0.00  0.00    +0.008 C 
ATOM      7  C   UNL     1     -35.003  23.520   5.737  0.00  0.00    +0.008 C 
ATOM      8  C   UNL     1     -35.239  22.898   3.028  0.00  0.00    +0.037 C 
ATOM      9  C   UNL     1     -35.416  22.246   5.346  0.00  0.00    +0.037 C 
ATOM     10  C   UNL     1     -35.533  21.935   3.992  0.00  0.00    +0.134 C 
BRANCH  10  11
ATOM     11  O   UNL     1     -35.933  20.690   3.612  0.00  0.00    -0.506 OA
ATOM     12  H   UNL     1     -36.847  20.488   3.559  0.00  0.00    +0.292 HD
ENDBRANCH  10  11
ENDBRANCH   3   5
BRANCH   2  13
ATOM     13  N   UNL     1     -33.617  27.974   4.458  0.00  0.00    -0.123 NA
BRANCH  13  14
ATOM     14  C   UNL     1     -32.369  28.183   4.193  0.00  0.00    +0.176 C 
BRANCH  14  16
ATOM     15  O   UNL     1     -30.365  27.752   5.411  0.00  0.00    -0.436 OA
ATOM     16  C   UNL     1     -31.404  28.573   5.237  0.00  0.00    +0.144 C 
ATOM     17  C   UNL     1     -31.404  29.639   6.053  0.00  0.00    +0.040 C 
ATOM     18  C   UNL     1     -29.639  28.321   6.409  0.00  0.00    +0.289 C 
ATOM     19  C   UNL     1     -30.236  29.484   6.837  0.00  0.00    +0.066 C 
BRANCH  18  22
ATOM     20  O   UNL     1     -27.804  28.025   7.773  0.00  0.00    -0.123 OA
ATOM     21  O   UNL     1     -28.110  26.620   6.114  0.00  0.00    -0.123 OA
ATOM     22  N   UNL     1     -28.481  27.634   6.777  0.00  0.00    +0.093 N 
ENDBRANCH  18  22
ENDBRANCH  14  16
ENDBRANCH  13  14
ENDBRANCH   2  13
TORSDOF 6
ENDMDL
MODEL 2
REMARK VINA RESULT:      -6.4      1.119      1.537
REMARK  Name = 5337997
REMARK  6 active torsions:
REMARK  status: ('A' for Active; 'I' for Inactive)
REMARK    1  A    between atoms: N_2  and  N_13
REMARK    2  A    between atoms: C_3  and  C_5
REMARK    3  A    between atoms: C_10  and  O_11
REMARK    4  A    between atoms: N_13  and  C_14
REMARK    5  A    between atoms: C_14  and  C_16
REMARK    6  A    between atoms: C_18  and  N_22
REMARK                            x       y       z     vdW  Elec       q    Type
REMARK                         _______ _______ _______ _____ _____    ______ ____
ROOT
ATOM      1  O   UNL     1     -35.366  26.301   2.768  0.00  0.00    -0.269 OA
ATOM      2  N   UNL     1     -34.084  26.729   4.622  0.00  0.00    -0.228 N 
ATOM      3  C   UNL     1     -34.852  25.885   3.818  0.00  0.00    +0.260 C 
ATOM      4  H   UNL     1     -33.679  26.393   5.454  0.00  0.00    +0.171 HD
ENDROOT
BRANCH   3   5
ATOM      5  C   UNL     1     -35.028  24.523   4.299  0.00  0.00    +0.055 C 
ATOM      6  C   UNL     1     -34.987  24.257   5.668  0.00  0.00    +0.008 C 
ATOM      7  C   UNL     1     -35.237  23.484   3.392  0.00  0.00    +0.008 C 
ATOM      8  C   UNL     1     -35.155  22.952   6.129  0.00  0.00    +0.037 C 
ATOM      9  C   UNL     1     -35.404  22.179   3.855  0.00  0.00    +0.037 C 
ATOM     10  C   UNL     1     -35.364  21.913   5.223  0.00  0.00    +0.134 C 
BRANCH  10  11
ATOM     11  O   UNL     1     -35.530  20.639   5.674  0.00  0.00    -0.506 OA
ATOM     12  H   UNL     1     -35.395  20.442   6.580  0.00  0.00    +0.292 HD
ENDBRANCH  10  11
ENDBRANCH   3   5
BRANCH   2  13
ATOM     13  N   UNL     1     -33.902  28.017   4.242  0.00  0.00    -0.123 NA
BRANCH  13  14
ATOM     14  C   UNL     1     -32.667  28.331   4.021  0.00  0.00    +0.176 C 
BRANCH  14  16
ATOM     15  O   UNL     1     -30.635  27.911   5.195  0.00  0.00    -0.436 OA
ATOM     16  C   UNL     1     -31.738  28.660   5.117  0.00  0.00    +0.144 C 
ATOM     17  C   UNL     1     -31.826  29.608   6.063  0.00  0.00    +0.040 C 
ATOM     18  C   UNL     1     -29.958  28.404   6.265  0.00  0.00    +0.289 C 
ATOM     19  C   UNL     1     -30.649  29.449   6.833  0.00  0.00    +0.066 C 
BRANCH  18  22
ATOM     20  O   UNL     1     -28.045  28.168   7.531  0.00  0.00    -0.123 OA
ATOM     21  O   UNL     1     -28.353  26.805   5.838  0.00  0.00    -0.123 OA
ATOM     22  N   UNL     1     -28.747  27.773   6.553  0.00  0.00    +0.093 N 
ENDBRANCH  18  22
ENDBRANCH  14  16
ENDBRANCH  13  14
ENDBRANCH   2  13
TORSDOF 6
ENDMDL
MODEL 3
REMARK VINA RESULT:      -6.4      1.271      1.675
REMARK  Name = 5337997
REMARK  6 active torsions:
REMARK  status: ('A' for Active; 'I' for Inactive)
REMARK    1  A    between atoms: N_2  and  N_13
REMARK    2  A    between atoms: C_3  and  C_5
REMARK    3  A    between atoms: C_10  and  O_11
REMARK    4  A    between atoms: N_13  and  C_14
REMARK    5  A    between atoms: C_14  and  C_16
REMARK    6  A    between atoms: C_18  and  N_22
REMARK                            x       y       z     vdW  Elec       q    Type
REMARK                         _______ _______ _______ _____ _____    ______ ____
ROOT
ATOM      1  O   UNL     1     -33.251  26.716   6.715  0.00  0.00    -0.269 OA
ATOM      2  N   UNL     1     -33.468  27.694   4.650  0.00  0.00    -0.228 N 
ATOM      3  C   UNL     1     -33.746  26.688   5.578  0.00  0.00    +0.260 C 
ATOM      4  H   UNL     1     -33.864  27.666   3.750  0.00  0.00    +0.171 HD
ENDROOT
BRANCH   3   5
ATOM      5  C   UNL     1     -34.616  25.614   5.120  0.00  0.00    +0.055 C 
ATOM      6  C   UNL     1     -35.972  25.861   4.908  0.00  0.00    +0.008 C 
ATOM      7  C   UNL     1     -34.093  24.342   4.893  0.00  0.00    +0.008 C 
ATOM      8  C   UNL     1     -36.806  24.833   4.470  0.00  0.00    +0.037 C 
ATOM      9  C   UNL     1     -34.928  23.314   4.455  0.00  0.00    +0.037 C 
ATOM     10  C   UNL     1     -36.285  23.560   4.242  0.00  0.00    +0.134 C 
BRANCH  10  11
ATOM     11  O   UNL     1     -37.099  22.557   3.812  0.00  0.00    -0.506 OA
ATOM     12  H   UNL     1     -36.916  21.670   4.052  0.00  0.00    +0.292 HD
ENDBRANCH  10  11
ENDBRANCH   3   5
BRANCH   2  13
ATOM     13  N   UNL     1     -32.644  28.710   5.006  0.00  0.00    -0.123 NA
BRANCH  13  14
ATOM     14  C   UNL     1     -31.412  28.535   4.655  0.00  0.00    +0.176 C 
BRANCH  14  16
ATOM     15  O   UNL     1     -29.632  27.719   6.015  0.00  0.00    -0.436 OA
ATOM     16  C   UNL     1     -30.293  28.795   5.579  0.00  0.00    +0.144 C 
ATOM     17  C   UNL     1     -29.827  29.958   6.059  0.00  0.00    +0.040 C 
ATOM     18  C   UNL     1     -28.669  28.216   6.835  0.00  0.00    +0.289 C 
ATOM     19  C   UNL     1     -28.746  29.588   6.895  0.00  0.00    +0.066 C 
BRANCH  18  22
ATOM     20  O   UNL     1     -27.965  26.040   7.134  0.00  0.00    -0.123 OA
ATOM     21  O   UNL     1     -26.938  27.633   8.242  0.00  0.00    -0.123 OA
ATOM     22  N   UNL     1     -27.831  27.267   7.423  0.00  0.00    +0.093 N 
ENDBRANCH  18  22
ENDBRANCH  14  16
ENDBRANCH  13  14
ENDBRANCH   2  13
TORSDOF 6
ENDMDL
MODEL 4
REMARK VINA RESULT:      -6.3      3.258      7.015
REMARK  Name = 5337997
REMARK  6 active torsions:
REMARK  status: ('A' for Active; 'I' for Inactive)
REMARK    1  A    between atoms: N_2  and  N_13
REMARK    2  A    between atoms: C_3  and  C_5
REMARK    3  A    between atoms: C_10  and  O_11
REMARK    4  A    between atoms: N_13  and  C_14
REMARK    5  A    between atoms: C_14  and  C_16
REMARK    6  A    between atoms: C_18  and  N_22
REMARK                            x       y       z     vdW  Elec       q    Type
REMARK                         _______ _______ _______ _____ _____    ______ ____
ROOT
ATOM      1  O   UNL     1     -35.905  26.760   1.969  0.00  0.00    -0.269 OA
ATOM      2  N   UNL     1     -37.208  26.161   3.760  0.00  0.00    -0.228 N 
ATOM      3  C   UNL     1     -36.003  26.581   3.193  0.00  0.00    +0.260 C 
ATOM      4  H   UNL     1     -37.279  26.022   4.732  0.00  0.00    +0.171 HD
ENDROOT
BRANCH   3   5
ATOM      5  C   UNL     1     -34.889  26.765   4.111  0.00  0.00    +0.055 C 
ATOM      6  C   UNL     1     -33.830  27.603   3.762  0.00  0.00    +0.008 C 
ATOM      7  C   UNL     1     -34.882  26.105   5.340  0.00  0.00    +0.008 C 
ATOM      8  C   UNL     1     -32.762  27.779   4.641  0.00  0.00    +0.037 C 
ATOM      9  C   UNL     1     -33.813  26.283   6.219  0.00  0.00    +0.037 C 
ATOM     10  C   UNL     1     -32.754  27.120   5.870  0.00  0.00    +0.134 C 
BRANCH  10  11
ATOM     11  O   UNL     1     -31.713  27.294   6.730  0.00  0.00    -0.506 OA
ATOM     12  H   UNL     1     -30.965  26.732   6.679  0.00  0.00    +0.292 HD
ENDBRANCH  10  11
ENDBRANCH   3   5
BRANCH   2  13
ATOM     13  N   UNL     1     -38.278  25.948   2.956  0.00  0.00    -0.123 NA
BRANCH  13  14
ATOM     14  C   UNL     1     -38.519  24.699   2.723  0.00  0.00    +0.176 C 
BRANCH  14  16
ATOM     15  O   UNL     1     -37.124  23.363   4.121  0.00  0.00    -0.436 OA
ATOM     16  C   UNL     1     -37.480  23.664   2.869  0.00  0.00    +0.144 C 
ATOM     17  C   UNL     1     -36.824  22.965   1.929  0.00  0.00    +0.040 C 
ATOM     18  C   UNL     1     -36.172  22.403   3.988  0.00  0.00    +0.289 C 
ATOM     19  C   UNL     1     -35.951  22.123   2.659  0.00  0.00    +0.066 C 
BRANCH  18  22
ATOM     20  O   UNL     1     -35.816  22.557   6.261  0.00  0.00    -0.123 OA
ATOM     21  O   UNL     1     -34.974  20.838   5.184  0.00  0.00    -0.123 OA
ATOM     22  N   UNL     1     -35.636  21.918   5.182  0.00  0.00    +0.093 N 
ENDBRANCH  18  22
ENDBRANCH  14  16
ENDBRANCH  13  14
ENDBRANCH   2  13
TORSDOF 6
ENDMDL
MODEL 5
REMARK VINA RESULT:      -6.3      5.623      8.499
REMARK  Name = 5337997
REMARK  6 active torsions:
REMARK  status: ('A' for Active; 'I' for Inactive)
REMARK    1  A    between atoms: N_2  and  N_13
REMARK    2  A    between atoms: C_3  and  C_5
REMARK    3  A    between atoms: C_10  and  O_11
REMARK    4  A    between atoms: N_13  and  C_14
REMARK    5  A    between atoms: C_14  and  C_16
REMARK    6  A    between atoms: C_18  and  N_22
REMARK                            x       y       z     vdW  Elec       q    Type
REMARK                         _______ _______ _______ _____ _____    ______ ____
ROOT
ATOM      1  O   UNL     1     -35.016  20.632   4.065  0.00  0.00    -0.269 OA
ATOM      2  N   UNL     1     -36.525  21.104   2.402  0.00  0.00    -0.228 N 
ATOM      3  C   UNL     1     -35.774  21.453   3.526  0.00  0.00    +0.260 C 
ATOM      4  H   UNL     1     -37.125  21.761   1.979  0.00  0.00    +0.171 HD
ENDROOT
BRANCH   3   5
ATOM      5  C   UNL     1     -35.958  22.807   4.028  0.00  0.00    +0.055 C 
ATOM      6  C   UNL     1     -35.150  23.282   5.060  0.00  0.00    +0.008 C 
ATOM      7  C   UNL     1     -36.941  23.627   3.475  0.00  0.00    +0.008 C 
ATOM      8  C   UNL     1     -35.326  24.579   5.541  0.00  0.00    +0.037 C 
ATOM      9  C   UNL     1     -37.116  24.925   3.957  0.00  0.00    +0.037 C 
ATOM     10  C   UNL     1     -36.309  25.401   4.990  0.00  0.00    +0.134 C 
BRANCH  10  11
ATOM     11  O   UNL     1     -36.479  26.668   5.457  0.00  0.00    -0.506 OA
ATOM     12  H   UNL     1     -37.300  26.923   5.829  0.00  0.00    +0.292 HD
ENDBRANCH  10  11
ENDBRANCH   3   5
BRANCH   2  13
ATOM     13  N   UNL     1     -36.417  19.850   1.900  0.00  0.00    -0.123 NA
BRANCH  13  14
ATOM     14  C   UNL     1     -35.804  19.790   0.762  0.00  0.00    +0.176 C 
BRANCH  14  16
ATOM     15  O   UNL     1     -33.821  18.472   0.887  0.00  0.00    -0.436 OA
ATOM     16  C   UNL     1     -34.337  19.686   0.672  0.00  0.00    +0.144 C 
ATOM     17  C   UNL     1     -33.422  20.631   0.405  0.00  0.00    +0.040 C 
ATOM     18  C   UNL     1     -32.480  18.638   0.750  0.00  0.00    +0.289 C 
ATOM     19  C   UNL     1     -32.183  19.949   0.453  0.00  0.00    +0.066 C 
BRANCH  18  22
ATOM     20  O   UNL     1     -32.133  16.371   0.507  0.00  0.00    -0.123 OA
ATOM     21  O   UNL     1     -30.589  17.563   1.516  0.00  0.00    -0.123 OA
ATOM     22  N   UNL     1     -31.710  17.488   0.931  0.00  0.00    +0.093 N 
ENDBRANCH  18  22
ENDBRANCH  14  16
ENDBRANCH  13  14
ENDBRANCH   2  13
TORSDOF 6
ENDMDL
MODEL 6
REMARK VINA RESULT:      -6.2      2.516      3.638
REMARK  Name = 5337997
REMARK  6 active torsions:
REMARK  status: ('A' for Active; 'I' for Inactive)
REMARK    1  A    between atoms: N_2  and  N_13
REMARK    2  A    between atoms: C_3  and  C_5
REMARK    3  A    between atoms: C_10  and  O_11
REMARK    4  A    between atoms: N_13  and  C_14
REMARK    5  A    between atoms: C_14  and  C_16
REMARK    6  A    between atoms: C_18  and  N_22
REMARK                            x       y       z     vdW  Elec       q    Type
REMARK                         _______ _______ _______ _____ _____    ______ ____
ROOT
ATOM      1  O   UNL     1     -35.236  26.843   4.999  0.00  0.00    -0.269 OA
ATOM      2  N   UNL     1     -33.546  25.954   6.272  0.00  0.00    -0.228 N 
ATOM      3  C   UNL     1     -34.599  25.842   5.362  0.00  0.00    +0.260 C 
ATOM      4  H   UNL     1     -33.045  25.155   6.556  0.00  0.00    +0.171 HD
ENDROOT
BRANCH   3   5
ATOM      5  C   UNL     1     -34.909  24.497   4.899  0.00  0.00    +0.055 C 
ATOM      6  C   UNL     1     -35.107  23.472   5.824  0.00  0.00    +0.008 C 
ATOM      7  C   UNL     1     -35.010  24.235   3.534  0.00  0.00    +0.008 C 
ATOM      8  C   UNL     1     -35.403  22.183   5.382  0.00  0.00    +0.037 C 
ATOM      9  C   UNL     1     -35.307  22.946   3.092  0.00  0.00    +0.037 C 
ATOM     10  C   UNL     1     -35.504  21.920   4.016  0.00  0.00    +0.134 C 
BRANCH  10  11
ATOM     11  O   UNL     1     -35.797  20.662   3.584  0.00  0.00    -0.506 OA
ATOM     12  H   UNL     1     -36.090  20.525   2.705  0.00  0.00    +0.292 HD
ENDBRANCH  10  11
ENDBRANCH   3   5
BRANCH   2  13
ATOM     13  N   UNL     1     -33.222  27.176   6.760  0.00  0.00    -0.123 NA
BRANCH  13  14
ATOM     14  C   UNL     1     -32.093  27.633   6.325  0.00  0.00    +0.176 C 
BRANCH  14  16
ATOM     15  O   UNL     1     -32.935  29.343   4.892  0.00  0.00    -0.436 OA
ATOM     16  C   UNL     1     -31.970  28.981   5.742  0.00  0.00    +0.144 C 
ATOM     17  C   UNL     1     -31.027  29.917   5.932  0.00  0.00    +0.040 C 
ATOM     18  C   UNL     1     -32.597  30.600   4.502  0.00  0.00    +0.289 C 
ATOM     19  C   UNL     1     -31.432  30.999   5.114  0.00  0.00    +0.066 C 
BRANCH  18  22
ATOM     20  O   UNL     1     -34.678  30.820   3.531  0.00  0.00    -0.123 OA
ATOM     21  O   UNL     1     -33.059  32.135   2.845  0.00  0.00    -0.123 OA
ATOM     22  N   UNL     1     -33.472  31.204   3.597  0.00  0.00    +0.093 N 
ENDBRANCH  18  22
ENDBRANCH  14  16
ENDBRANCH  13  14
ENDBRANCH   2  13
TORSDOF 6
ENDMDL
MODEL 7
REMARK VINA RESULT:      -6.2      4.635      7.469
REMARK  Name = 5337997
REMARK  6 active torsions:
REMARK  status: ('A' for Active; 'I' for Inactive)
REMARK    1  A    between atoms: N_2  and  N_13
REMARK    2  A    between atoms: C_3  and  C_5
REMARK    3  A    between atoms: C_10  and  O_11
REMARK    4  A    between atoms: N_13  and  C_14
REMARK    5  A    between atoms: C_14  and  C_16
REMARK    6  A    between atoms: C_18  and  N_22
REMARK                            x       y       z     vdW  Elec       q    Type
REMARK                         _______ _______ _______ _____ _____    ______ ____
ROOT
ATOM      1  O   UNL     1     -35.214  19.131   0.362  0.00  0.00    -0.269 OA
ATOM      2  N   UNL     1     -34.546  20.120   2.322  0.00  0.00    -0.228 N 
ATOM      3  C   UNL     1     -34.286  19.485   1.105  0.00  0.00    +0.260 C 
ATOM      4  H   UNL     1     -33.805  20.399   2.907  0.00  0.00    +0.171 HD
ENDROOT
BRANCH   3   5
ATOM      5  C   UNL     1     -32.885  19.249   0.789  0.00  0.00    +0.055 C 
ATOM      6  C   UNL     1     -32.256  18.088   1.239  0.00  0.00    +0.008 C 
ATOM      7  C   UNL     1     -32.173  20.183   0.037  0.00  0.00    +0.008 C 
ATOM      8  C   UNL     1     -30.914  17.862   0.937  0.00  0.00    +0.037 C 
ATOM      9  C   UNL     1     -30.831  19.955  -0.265  0.00  0.00    +0.037 C 
ATOM     10  C   UNL     1     -30.201  18.795   0.185  0.00  0.00    +0.134 C 
BRANCH  10  11
ATOM     11  O   UNL     1     -28.891  18.572  -0.113  0.00  0.00    -0.506 OA
ATOM     12  H   UNL     1     -28.417  17.900   0.335  0.00  0.00    +0.292 HD
ENDBRANCH  10  11
ENDBRANCH   3   5
BRANCH   2  13
ATOM     13  N   UNL     1     -35.831  20.347   2.687  0.00  0.00    -0.123 NA
BRANCH  13  14
ATOM     14  C   UNL     1     -36.110  21.595   2.879  0.00  0.00    +0.176 C 
BRANCH  14  16
ATOM     15  O   UNL     1     -35.271  23.600   3.860  0.00  0.00    -0.436 OA
ATOM     16  C   UNL     1     -35.628  22.329   4.063  0.00  0.00    +0.144 C 
ATOM     17  C   UNL     1     -35.488  21.915   5.332  0.00  0.00    +0.040 C 
ATOM     18  C   UNL     1     -34.872  24.045   5.080  0.00  0.00    +0.289 C 
ATOM     19  C   UNL     1     -34.986  23.047   6.020  0.00  0.00    +0.066 C 
BRANCH  18  22
ATOM     20  O   UNL     1     -35.215  26.268   5.588  0.00  0.00    -0.123 OA
ATOM     21  O   UNL     1     -33.292  25.682   4.705  0.00  0.00    -0.123 OA
ATOM     22  N   UNL     1     -34.446  25.374   5.125  0.00  0.00    +0.093 N 
ENDBRANCH  18  22
ENDBRANCH  14  16
ENDBRANCH  13  14
ENDBRANCH   2  13
TORSDOF 6
ENDMDL
MODEL 8
REMARK VINA RESULT:      -6.1      4.442      7.072
REMARK  Name = 5337997
REMARK  6 active torsions:
REMARK  status: ('A' for Active; 'I' for Inactive)
REMARK    1  A    between atoms: N_2  and  N_13
REMARK    2  A    between atoms: C_3  and  C_5
REMARK    3  A    between atoms: C_10  and  O_11
REMARK    4  A    between atoms: N_13  and  C_14
REMARK    5  A    between atoms: C_14  and  C_16
REMARK    6  A    between atoms: C_18  and  N_22
REMARK                            x       y       z     vdW  Elec       q    Type
REMARK                         _______ _______ _______ _____ _____    ______ ____
ROOT
ATOM      1  O   UNL     1     -33.901  22.279  -0.035  0.00  0.00    -0.269 OA
ATOM      2  N   UNL     1     -35.117  21.195   1.581  0.00  0.00    -0.228 N 
ATOM      3  C   UNL     1     -34.028  21.297   0.712  0.00  0.00    +0.260 C 
ATOM      4  H   UNL     1     -35.212  20.413   2.171  0.00  0.00    +0.171 HD
ENDROOT
BRANCH   3   5
ATOM      5  C   UNL     1     -33.088  20.186   0.726  0.00  0.00    +0.055 C 
ATOM      6  C   UNL     1     -33.410  19.011   1.404  0.00  0.00    +0.008 C 
ATOM      7  C   UNL     1     -31.868  20.297   0.060  0.00  0.00    +0.008 C 
ATOM      8  C   UNL     1     -32.510  17.946   1.418  0.00  0.00    +0.037 C 
ATOM      9  C   UNL     1     -30.968  19.231   0.074  0.00  0.00    +0.037 C 
ATOM     10  C   UNL     1     -31.289  18.055   0.752  0.00  0.00    +0.134 C 
BRANCH  10  11
ATOM     11  O   UNL     1     -30.411  17.015   0.763  0.00  0.00    -0.506 OA
ATOM     12  H   UNL     1     -29.599  17.092   1.224  0.00  0.00    +0.292 HD
ENDBRANCH  10  11
ENDBRANCH   3   5
BRANCH   2  13
ATOM     13  N   UNL     1     -36.042  22.185   1.599  0.00  0.00    -0.123 NA
BRANCH  13  14
ATOM     14  C   UNL     1     -36.686  22.282   2.717  0.00  0.00    +0.176 C 
BRANCH  14  16
ATOM     15  O   UNL     1     -35.977  24.109   4.074  0.00  0.00    -0.436 OA
ATOM     16  C   UNL     1     -36.044  22.781   3.946  0.00  0.00    +0.144 C 
ATOM     17  C   UNL     1     -35.506  22.103   4.972  0.00  0.00    +0.040 C 
ATOM     18  C   UNL     1     -35.354  24.310   5.265  0.00  0.00    +0.289 C 
ATOM     19  C   UNL     1     -35.044  23.107   5.856  0.00  0.00    +0.066 C 
BRANCH  18  22
ATOM     20  O   UNL     1     -34.075  26.009   6.156  0.00  0.00    -0.123 OA
ATOM     21  O   UNL     1     -36.089  26.489   5.428  0.00  0.00    -0.123 OA
ATOM     22  N   UNL     1     -35.167  25.645   5.628  0.00  0.00    +0.093 N 
ENDBRANCH  18  22
ENDBRANCH  14  16
ENDBRANCH  13  14
ENDBRANCH   2  13
TORSDOF 6
ENDMDL
MODEL 9
REMARK VINA RESULT:      -6.1      4.669      6.837
REMARK  Name = 5337997
REMARK  6 active torsions:
REMARK  status: ('A' for Active; 'I' for Inactive)
REMARK    1  A    between atoms: N_2  and  N_13
REMARK    2  A    between atoms: C_3  and  C_5
REMARK    3  A    between atoms: C_10  and  O_11
REMARK    4  A    between atoms: N_13  and  C_14
REMARK    5  A    between atoms: C_14  and  C_16
REMARK    6  A    between atoms: C_18  and  N_22
REMARK                            x       y       z     vdW  Elec       q    Type
REMARK                         _______ _______ _______ _____ _____    ______ ____
ROOT
ATOM      1  O   UNL     1     -36.343  26.749   2.654  0.00  0.00    -0.269 OA
ATOM      2  N   UNL     1     -36.949  25.758   4.633  0.00  0.00    -0.228 N 
ATOM      3  C   UNL     1     -37.139  26.030   3.277  0.00  0.00    +0.260 C 
ATOM      4  H   UNL     1     -37.585  25.186   5.121  0.00  0.00    +0.171 HD
ENDROOT
BRANCH   3   5
ATOM      5  C   UNL     1     -38.323  25.446   2.664  0.00  0.00    +0.055 C 
ATOM      6  C   UNL     1     -38.663  24.120   2.932  0.00  0.00    +0.008 C 
ATOM      7  C   UNL     1     -39.117  26.212   1.812  0.00  0.00    +0.008 C 
ATOM      8  C   UNL     1     -39.797  23.560   2.345  0.00  0.00    +0.037 C 
ATOM      9  C   UNL     1     -40.252  25.651   1.225  0.00  0.00    +0.037 C 
ATOM     10  C   UNL     1     -40.592  24.325   1.492  0.00  0.00    +0.134 C 
BRANCH  10  11
ATOM     11  O   UNL     1     -41.701  23.780   0.921  0.00  0.00    -0.506 OA
ATOM     12  H   UNL     1     -42.376  23.419   1.461  0.00  0.00    +0.292 HD
ENDBRANCH  10  11
ENDBRANCH   3   5
BRANCH   2  13
ATOM     13  N   UNL     1     -35.878  26.292   5.269  0.00  0.00    -0.123 NA
BRANCH  13  14
ATOM     14  C   UNL     1     -34.943  25.438   5.532  0.00  0.00    +0.176 C 
BRANCH  14  16
ATOM     15  O   UNL     1     -35.223  23.556   4.095  0.00  0.00    -0.436 OA
ATOM     16  C   UNL     1     -35.140  23.987   5.357  0.00  0.00    +0.144 C 
ATOM     17  C   UNL     1     -35.253  23.017   6.277  0.00  0.00    +0.040 C 
ATOM     18  C   UNL     1     -35.401  22.213   4.201  0.00  0.00    +0.289 C 
ATOM     19  C   UNL     1     -35.426  21.832   5.523  0.00  0.00    +0.066 C 
BRANCH  18  22
ATOM     20  O   UNL     1     -35.779  22.157   1.927  0.00  0.00    -0.123 OA
ATOM     21  O   UNL     1     -35.353  20.268   2.963  0.00  0.00    -0.123 OA
ATOM     22  N   UNL     1     -35.515  21.524   2.993  0.00  0.00    +0.093 N 
ENDBRANCH  18  22
ENDBRANCH  14  16
ENDBRANCH  13  14
ENDBRANCH   2  13
TORSDOF 6
ENDMDL
