MODEL 1
REMARK VINA RESULT:      -5.7      0.000      0.000
REMARK  Name = 196749
REMARK  9 active torsions:
REMARK  status: ('A' for Active; 'I' for Inactive)
REMARK    1  A    between atoms: N_2  and  C_11
REMARK    2  A    between atoms: C_4  and  C_7
REMARK    3  A    between atoms: C_5  and  C_21
REMARK    4  A    between atoms: C_7  and  C_8
REMARK    5  A    between atoms: C_8  and  C_9
REMARK    6  A    between atoms: C_11  and  C_12
REMARK    7  A    between atoms: C_13  and  N_20
REMARK    8  A    between atoms: C_21  and  C_23
REMARK    9  A    between atoms: C_23  and  O_24
REMARK                            x       y       z     vdW  Elec       q    Type
REMARK                         _______ _______ _______ _____ _____    ______ ____
ROOT
ATOM      1 CL   UNL     1     -35.184  22.045   6.732  0.00  0.00    -0.051 Cl
ATOM      2  N   UNL     1     -35.870  22.764   3.023  0.00  0.00    -0.277 N 
ATOM      3  N   UNL     1     -35.309  21.000   4.249  0.00  0.00    -0.383 NA
ATOM      4  C   UNL     1     -35.576  21.446   3.061  0.00  0.00    +0.161 C 
ATOM      5  C   UNL     1     -35.786  23.215   4.310  0.00  0.00    +0.150 C 
ATOM      6  C   UNL     1     -35.438  22.108   5.049  0.00  0.00    +0.186 C 
ENDROOT
BRANCH   4   7
ATOM      7  C   UNL     1     -35.571  20.611   1.805  0.00  0.00    +0.075 C 
BRANCH   7   8
ATOM      8  C   UNL     1     -34.168  20.514   1.201  0.00  0.00    +0.009 C 
BRANCH   8   9
ATOM      9  C   UNL     1     -33.560  19.130   1.429  0.00  0.00    +0.000 C 
ATOM     10  C   UNL     1     -32.208  18.995   0.747  0.00  0.00    +0.000 C 
ENDBRANCH   8   9
ENDBRANCH   7   8
ENDBRANCH   4   7
BRANCH   2  11
ATOM     11  C   UNL     1     -36.209  23.556   1.862  0.00  0.00    +0.122 C 
BRANCH  11  12
ATOM     12  C   UNL     1     -37.678  23.884   1.830  0.00  0.00    +0.020 C 
ATOM     13  C   UNL     1     -38.117  25.171   1.543  0.00  0.00    +0.140 C 
ATOM     14  C   UNL     1     -38.586  22.867   2.097  0.00  0.00    -0.001 C 
ATOM     15  C   UNL     1     -39.484  25.445   1.522  0.00  0.00    +0.024 C 
ATOM     16  C   UNL     1     -39.954  23.140   2.075  0.00  0.00    -0.000 C 
ATOM     17  C   UNL     1     -40.403  24.429   1.788  0.00  0.00    +0.002 C 
BRANCH  13  20
ATOM     18  O   UNL     1     -36.829  26.955   2.217  0.00  0.00    -0.126 OA
ATOM     19  O   UNL     1     -36.793  26.376   0.096  0.00  0.00    -0.126 OA
ATOM     20  N   UNL     1     -37.198  26.222   1.271  0.00  0.00    +0.057 N 
ENDBRANCH  13  20
ENDBRANCH  11  12
ENDBRANCH   2  11
BRANCH   5  21
ATOM     21  C   UNL     1     -36.039  24.616   4.692  0.00  0.00    +0.137 C 
BRANCH  21  23
ATOM     22  O   UNL     1     -33.634  24.900   4.693  0.00  0.00    -0.250 OA
ATOM     23  C   UNL     1     -34.747  25.409   4.660  0.00  0.00    +0.316 C 
BRANCH  23  24
ATOM     24  O   UNL     1     -34.949  26.751   4.642  0.00  0.00    -0.480 OA
ATOM     25  H   UNL     1     -34.360  27.307   4.170  0.00  0.00    +0.295 HD
ENDBRANCH  23  24
ENDBRANCH  21  23
ENDBRANCH   5  21
TORSDOF 9
ENDMDL
MODEL 2
REMARK VINA RESULT:      -5.6      1.534      2.578
REMARK  Name = 196749
REMARK  9 active torsions:
REMARK  status: ('A' for Active; 'I' for Inactive)
REMARK    1  A    between atoms: N_2  and  C_11
REMARK    2  A    between atoms: C_4  and  C_7
REMARK    3  A    between atoms: C_5  and  C_21
REMARK    4  A    between atoms: C_7  and  C_8
REMARK    5  A    between atoms: C_8  and  C_9
REMARK    6  A    between atoms: C_11  and  C_12
REMARK    7  A    between atoms: C_13  and  N_20
REMARK    8  A    between atoms: C_21  and  C_23
REMARK    9  A    between atoms: C_23  and  O_24
REMARK                            x       y       z     vdW  Elec       q    Type
REMARK                         _______ _______ _______ _____ _____    ______ ____
ROOT
ATOM      1 CL   UNL     1     -35.188  22.155   6.701  0.00  0.00    -0.051 Cl
ATOM      2  N   UNL     1     -36.131  22.713   3.021  0.00  0.00    -0.277 N 
ATOM      3  N   UNL     1     -35.293  21.057   4.239  0.00  0.00    -0.383 NA
ATOM      4  C   UNL     1     -35.669  21.444   3.061  0.00  0.00    +0.161 C 
ATOM      5  C   UNL     1     -36.045  23.194   4.297  0.00  0.00    +0.150 C 
ATOM      6  C   UNL     1     -35.525  22.154   5.031  0.00  0.00    +0.186 C 
ENDROOT
BRANCH   4   7
ATOM      7  C   UNL     1     -35.616  20.594   1.816  0.00  0.00    +0.075 C 
BRANCH   7   8
ATOM      8  C   UNL     1     -34.294  19.828   1.716  0.00  0.00    +0.009 C 
BRANCH   8   9
ATOM      9  C   UNL     1     -33.411  20.391   0.601  0.00  0.00    +0.000 C 
ATOM     10  C   UNL     1     -32.078  19.664   0.526  0.00  0.00    +0.000 C 
ENDBRANCH   8   9
ENDBRANCH   7   8
ENDBRANCH   4   7
BRANCH   2  11
ATOM     11  C   UNL     1     -36.621  23.434   1.868  0.00  0.00    +0.122 C 
BRANCH  11  12
ATOM     12  C   UNL     1     -35.603  24.421   1.363  0.00  0.00    +0.020 C 
ATOM     13  C   UNL     1     -35.961  25.731   1.069  0.00  0.00    +0.140 C 
ATOM     14  C   UNL     1     -34.293  23.987   1.195  0.00  0.00    -0.001 C 
ATOM     15  C   UNL     1     -34.996  26.622   0.601  0.00  0.00    +0.024 C 
ATOM     16  C   UNL     1     -33.327  24.879   0.728  0.00  0.00    -0.000 C 
ATOM     17  C   UNL     1     -33.679  26.195   0.430  0.00  0.00    +0.002 C 
BRANCH  13  20
ATOM     18  O   UNL     1     -37.594  26.816   2.276  0.00  0.00    -0.126 OA
ATOM     19  O   UNL     1     -38.131  25.941   0.332  0.00  0.00    -0.126 OA
ATOM     20  N   UNL     1     -37.298  26.186   1.234  0.00  0.00    +0.057 N 
ENDBRANCH  13  20
ENDBRANCH  11  12
ENDBRANCH   2  11
BRANCH   5  21
ATOM     21  C   UNL     1     -36.457  24.559   4.673  0.00  0.00    +0.137 C 
BRANCH  21  23
ATOM     22  O   UNL     1     -34.099  25.113   4.672  0.00  0.00    -0.250 OA
ATOM     23  C   UNL     1     -35.264  25.493   4.642  0.00  0.00    +0.316 C 
BRANCH  23  24
ATOM     24  O   UNL     1     -35.616  26.803   4.629  0.00  0.00    -0.480 OA
ATOM     25  H   UNL     1     -35.137  27.423   5.144  0.00  0.00    +0.295 HD
ENDBRANCH  23  24
ENDBRANCH  21  23
ENDBRANCH   5  21
TORSDOF 9
ENDMDL
MODEL 3
REMARK VINA RESULT:      -5.6      2.273      4.400
REMARK  Name = 196749
REMARK  9 active torsions:
REMARK  status: ('A' for Active; 'I' for Inactive)
REMARK    1  A    between atoms: N_2  and  C_11
REMARK    2  A    between atoms: C_4  and  C_7
REMARK    3  A    between atoms: C_5  and  C_21
REMARK    4  A    between atoms: C_7  and  C_8
REMARK    5  A    between atoms: C_8  and  C_9
REMARK    6  A    between atoms: C_11  and  C_12
REMARK    7  A    between atoms: C_13  and  N_20
REMARK    8  A    between atoms: C_21  and  C_23
REMARK    9  A    between atoms: C_23  and  O_24
REMARK                            x       y       z     vdW  Elec       q    Type
REMARK                         _______ _______ _______ _____ _____    ______ ____
ROOT
ATOM      1 CL   UNL     1     -40.379  23.224   0.899  0.00  0.00    -0.051 Cl
ATOM      2  N   UNL     1     -36.665  23.548   1.818  0.00  0.00    -0.277 N 
ATOM      3  N   UNL     1     -37.867  22.426   0.327  0.00  0.00    -0.383 NA
ATOM      4  C   UNL     1     -36.681  22.673   0.789  0.00  0.00    +0.161 C 
ATOM      5  C   UNL     1     -37.965  23.902   2.044  0.00  0.00    +0.150 C 
ATOM      6  C   UNL     1     -38.689  23.197   1.111  0.00  0.00    +0.186 C 
ENDROOT
BRANCH   4   7
ATOM      7  C   UNL     1     -35.406  22.066   0.261  0.00  0.00    +0.075 C 
BRANCH   7   8
ATOM      8  C   UNL     1     -35.217  20.632   0.765  0.00  0.00    +0.009 C 
BRANCH   8   9
ATOM      9  C   UNL     1     -33.742  20.324   1.022  0.00  0.00    +0.000 C 
ATOM     10  C   UNL     1     -33.501  18.830   1.163  0.00  0.00    +0.000 C 
ENDBRANCH   8   9
ENDBRANCH   7   8
ENDBRANCH   4   7
BRANCH   2  11
ATOM     11  C   UNL     1     -35.512  24.027   2.547  0.00  0.00    +0.122 C 
BRANCH  11  12
ATOM     12  C   UNL     1     -35.410  23.379   3.901  0.00  0.00    +0.020 C 
ATOM     13  C   UNL     1     -35.170  24.137   5.041  0.00  0.00    +0.140 C 
ATOM     14  C   UNL     1     -35.562  22.000   3.985  0.00  0.00    -0.001 C 
ATOM     15  C   UNL     1     -35.080  23.508   6.282  0.00  0.00    +0.024 C 
ATOM     16  C   UNL     1     -35.473  21.371   5.227  0.00  0.00    -0.000 C 
ATOM     17  C   UNL     1     -35.231  22.125   6.375  0.00  0.00    +0.002 C 
BRANCH  13  20
ATOM     18  O   UNL     1     -36.018  26.275   5.127  0.00  0.00    -0.126 OA
ATOM     19  O   UNL     1     -33.868  26.013   4.750  0.00  0.00    -0.126 OA
ATOM     20  N   UNL     1     -35.010  25.549   4.969  0.00  0.00    +0.057 N 
ENDBRANCH  13  20
ENDBRANCH  11  12
ENDBRANCH   2  11
BRANCH   5  21
ATOM     21  C   UNL     1     -38.372  24.850   3.097  0.00  0.00    +0.137 C 
BRANCH  21  23
ATOM     22  O   UNL     1     -39.563  26.624   1.959  0.00  0.00    -0.250 OA
ATOM     23  C   UNL     1     -38.542  26.239   2.515  0.00  0.00    +0.316 C 
BRANCH  23  24
ATOM     24  O   UNL     1     -37.424  27.000   2.625  0.00  0.00    -0.480 OA
ATOM     25  H   UNL     1     -37.497  27.914   2.818  0.00  0.00    +0.295 HD
ENDBRANCH  23  24
ENDBRANCH  21  23
ENDBRANCH   5  21
TORSDOF 9
ENDMDL
MODEL 4
REMARK VINA RESULT:      -5.5      2.605      4.387
REMARK  Name = 196749
REMARK  9 active torsions:
REMARK  status: ('A' for Active; 'I' for Inactive)
REMARK    1  A    between atoms: N_2  and  C_11
REMARK    2  A    between atoms: C_4  and  C_7
REMARK    3  A    between atoms: C_5  and  C_21
REMARK    4  A    between atoms: C_7  and  C_8
REMARK    5  A    between atoms: C_8  and  C_9
REMARK    6  A    between atoms: C_11  and  C_12
REMARK    7  A    between atoms: C_13  and  N_20
REMARK    8  A    between atoms: C_21  and  C_23
REMARK    9  A    between atoms: C_23  and  O_24
REMARK                            x       y       z     vdW  Elec       q    Type
REMARK                         _______ _______ _______ _____ _____    ______ ____
ROOT
ATOM      1 CL   UNL     1     -39.099  20.211  -0.095  0.00  0.00    -0.051 Cl
ATOM      2  N   UNL     1     -35.921  21.676   1.485  0.00  0.00    -0.277 N 
ATOM      3  N   UNL     1     -36.580  19.699   0.721  0.00  0.00    -0.383 NA
ATOM      4  C   UNL     1     -35.618  20.379   1.261  0.00  0.00    +0.161 C 
ATOM      5  C   UNL     1     -37.204  21.853   1.047  0.00  0.00    +0.150 C 
ATOM      6  C   UNL     1     -37.589  20.618   0.580  0.00  0.00    +0.186 C 
ENDROOT
BRANCH   4   7
ATOM      7  C   UNL     1     -34.266  19.820   1.626  0.00  0.00    +0.075 C 
BRANCH   7   8
ATOM      8  C   UNL     1     -33.927  18.582   0.793  0.00  0.00    +0.009 C 
BRANCH   8   9
ATOM      9  C   UNL     1     -32.415  18.415   0.638  0.00  0.00    +0.000 C 
ATOM     10  C   UNL     1     -31.742  19.732   0.288  0.00  0.00    +0.000 C 
ENDBRANCH   8   9
ENDBRANCH   7   8
ENDBRANCH   4   7
BRANCH   2  11
ATOM     11  C   UNL     1     -35.072  22.690   2.070  0.00  0.00    +0.122 C 
BRANCH  11  12
ATOM     12  C   UNL     1     -35.200  22.716   3.569  0.00  0.00    +0.020 C 
ATOM     13  C   UNL     1     -35.277  23.919   4.259  0.00  0.00    +0.140 C 
ATOM     14  C   UNL     1     -35.238  21.504   4.248  0.00  0.00    -0.001 C 
ATOM     15  C   UNL     1     -35.393  23.911   5.649  0.00  0.00    +0.024 C 
ATOM     16  C   UNL     1     -35.355  21.495   5.638  0.00  0.00    -0.000 C 
ATOM     17  C   UNL     1     -35.432  22.699   6.339  0.00  0.00    +0.002 C 
BRANCH  13  20
ATOM     18  O   UNL     1     -34.123  25.698   3.365  0.00  0.00    -0.126 OA
ATOM     19  O   UNL     1     -36.316  25.687   3.215  0.00  0.00    -0.126 OA
ATOM     20  N   UNL     1     -35.237  25.167   3.577  0.00  0.00    +0.057 N 
ENDBRANCH  13  20
ENDBRANCH  11  12
ENDBRANCH   2  11
BRANCH   5  21
ATOM     21  C   UNL     1     -37.909  23.146   1.118  0.00  0.00    +0.137 C 
BRANCH  21  23
ATOM     22  O   UNL     1     -40.005  22.544   2.172  0.00  0.00    -0.250 OA
ATOM     23  C   UNL     1     -38.929  23.125   2.240  0.00  0.00    +0.316 C 
BRANCH  23  24
ATOM     24  O   UNL     1     -38.549  23.861   3.315  0.00  0.00    -0.480 OA
ATOM     25  H   UNL     1     -39.102  23.907   4.070  0.00  0.00    +0.295 HD
ENDBRANCH  23  24
ENDBRANCH  21  23
ENDBRANCH   5  21
TORSDOF 9
ENDMDL
MODEL 5
REMARK VINA RESULT:      -5.5      2.750      6.214
REMARK  Name = 196749
REMARK  9 active torsions:
REMARK  status: ('A' for Active; 'I' for Inactive)
REMARK    1  A    between atoms: N_2  and  C_11
REMARK    2  A    between atoms: C_4  and  C_7
REMARK    3  A    between atoms: C_5  and  C_21
REMARK    4  A    between atoms: C_7  and  C_8
REMARK    5  A    between atoms: C_8  and  C_9
REMARK    6  A    between atoms: C_11  and  C_12
REMARK    7  A    between atoms: C_13  and  N_20
REMARK    8  A    between atoms: C_21  and  C_23
REMARK    9  A    between atoms: C_23  and  O_24
REMARK                            x       y       z     vdW  Elec       q    Type
REMARK                         _______ _______ _______ _____ _____    ______ ____
ROOT
ATOM      1 CL   UNL     1     -36.476  28.251   0.709  0.00  0.00    -0.051 Cl
ATOM      2  N   UNL     1     -37.574  25.459   3.105  0.00  0.00    -0.277 N 
ATOM      3  N   UNL     1     -38.565  26.866   1.703  0.00  0.00    -0.383 NA
ATOM      4  C   UNL     1     -38.726  25.903   2.556  0.00  0.00    +0.161 C 
ATOM      5  C   UNL     1     -36.571  26.206   2.554  0.00  0.00    +0.150 C 
ATOM      6  C   UNL     1     -37.208  27.067   1.691  0.00  0.00    +0.186 C 
ENDROOT
BRANCH   4   7
ATOM      7  C   UNL     1     -40.054  25.300   2.937  0.00  0.00    +0.075 C 
BRANCH   7   8
ATOM      8  C   UNL     1     -41.217  26.226   2.570  0.00  0.00    +0.009 C 
BRANCH   8   9
ATOM      9  C   UNL     1     -41.814  26.886   3.813  0.00  0.00    +0.000 C 
ATOM     10  C   UNL     1     -43.325  27.013   3.705  0.00  0.00    +0.000 C 
ENDBRANCH   8   9
ENDBRANCH   7   8
ENDBRANCH   4   7
BRANCH   2  11
ATOM     11  C   UNL     1     -37.415  24.406   4.083  0.00  0.00    +0.122 C 
BRANCH  11  12
ATOM     12  C   UNL     1     -36.877  23.149   3.453  0.00  0.00    +0.020 C 
ATOM     13  C   UNL     1     -35.890  22.400   4.082  0.00  0.00    +0.140 C 
ATOM     14  C   UNL     1     -37.392  22.756   2.224  0.00  0.00    -0.001 C 
ATOM     15  C   UNL     1     -35.411  21.240   3.474  0.00  0.00    +0.024 C 
ATOM     16  C   UNL     1     -36.914  21.595   1.616  0.00  0.00    -0.000 C 
ATOM     17  C   UNL     1     -35.923  20.838   2.240  0.00  0.00    +0.002 C 
BRANCH  13  20
ATOM     18  O   UNL     1     -35.857  22.316   6.382  0.00  0.00    -0.126 OA
ATOM     19  O   UNL     1     -34.396  23.600   5.356  0.00  0.00    -0.126 OA
ATOM     20  N   UNL     1     -35.353  22.793   5.339  0.00  0.00    +0.057 N 
ENDBRANCH  13  20
ENDBRANCH  11  12
ENDBRANCH   2  11
BRANCH   5  21
ATOM     21  C   UNL     1     -35.149  26.026   2.898  0.00  0.00    +0.137 C 
BRANCH  21  23
ATOM     22  O   UNL     1     -34.331  28.163   3.693  0.00  0.00    -0.250 OA
ATOM     23  C   UNL     1     -34.733  27.035   3.951  0.00  0.00    +0.316 C 
BRANCH  23  24
ATOM     24  O   UNL     1     -34.803  26.542   5.213  0.00  0.00    -0.480 OA
ATOM     25  H   UNL     1     -34.110  26.711   5.821  0.00  0.00    +0.295 HD
ENDBRANCH  23  24
ENDBRANCH  21  23
ENDBRANCH   5  21
TORSDOF 9
ENDMDL
MODEL 6
REMARK VINA RESULT:      -5.5      2.290      3.872
REMARK  Name = 196749
REMARK  9 active torsions:
REMARK  status: ('A' for Active; 'I' for Inactive)
REMARK    1  A    between atoms: N_2  and  C_11
REMARK    2  A    between atoms: C_4  and  C_7
REMARK    3  A    between atoms: C_5  and  C_21
REMARK    4  A    between atoms: C_7  and  C_8
REMARK    5  A    between atoms: C_8  and  C_9
REMARK    6  A    between atoms: C_11  and  C_12
REMARK    7  A    between atoms: C_13  and  N_20
REMARK    8  A    between atoms: C_21  and  C_23
REMARK    9  A    between atoms: C_23  and  O_24
REMARK                            x       y       z     vdW  Elec       q    Type
REMARK                         _______ _______ _______ _____ _____    ______ ____
ROOT
ATOM      1 CL   UNL     1     -39.821  21.953   1.514  0.00  0.00    -0.051 Cl
ATOM      2  N   UNL     1     -36.063  22.615   1.942  0.00  0.00    -0.277 N 
ATOM      3  N   UNL     1     -37.406  20.848   1.982  0.00  0.00    -0.383 NA
ATOM      4  C   UNL     1     -36.188  21.278   2.094  0.00  0.00    +0.161 C 
ATOM      5  C   UNL     1     -37.320  23.096   1.710  0.00  0.00    +0.150 C 
ATOM      6  C   UNL     1     -38.133  21.986   1.739  0.00  0.00    +0.186 C 
ENDROOT
BRANCH   4   7
ATOM      7  C   UNL     1     -34.987  20.409   2.367  0.00  0.00    +0.075 C 
BRANCH   7   8
ATOM      8  C   UNL     1     -34.448  19.775   1.082  0.00  0.00    +0.009 C 
BRANCH   8   9
ATOM      9  C   UNL     1     -33.264  18.854   1.372  0.00  0.00    +0.000 C 
ATOM     10  C   UNL     1     -32.025  19.278   0.599  0.00  0.00    +0.000 C 
ENDBRANCH   8   9
ENDBRANCH   7   8
ENDBRANCH   4   7
BRANCH   2  11
ATOM     11  C   UNL     1     -34.849  23.397   2.009  0.00  0.00    +0.122 C 
BRANCH  11  12
ATOM     12  C   UNL     1     -34.757  24.160   3.303  0.00  0.00    +0.020 C 
ATOM     13  C   UNL     1     -34.367  25.494   3.321  0.00  0.00    +0.140 C 
ATOM     14  C   UNL     1     -35.071  23.496   4.483  0.00  0.00    -0.001 C 
ATOM     15  C   UNL     1     -34.290  26.174   4.537  0.00  0.00    +0.024 C 
ATOM     16  C   UNL     1     -34.995  24.176   5.698  0.00  0.00    -0.000 C 
ATOM     17  C   UNL     1     -34.603  25.514   5.725  0.00  0.00    +0.002 C 
BRANCH  13  20
ATOM     18  O   UNL     1     -32.862  26.130   1.701  0.00  0.00    -0.126 OA
ATOM     19  O   UNL     1     -34.942  26.822   1.532  0.00  0.00    -0.126 OA
ATOM     20  N   UNL     1     -34.040  26.184   2.122  0.00  0.00    +0.057 N 
ENDBRANCH  13  20
ENDBRANCH  11  12
ENDBRANCH   2  11
BRANCH   5  21
ATOM     21  C   UNL     1     -37.610  24.525   1.491  0.00  0.00    +0.137 C 
BRANCH  21  23
ATOM     22  O   UNL     1     -38.558  24.613   3.717  0.00  0.00    -0.250 OA
ATOM     23  C   UNL     1     -37.987  25.190   2.800  0.00  0.00    +0.316 C 
BRANCH  23  24
ATOM     24  O   UNL     1     -37.672  26.509   2.834  0.00  0.00    -0.480 OA
ATOM     25  H   UNL     1     -36.795  26.787   2.656  0.00  0.00    +0.295 HD
ENDBRANCH  23  24
ENDBRANCH  21  23
ENDBRANCH   5  21
TORSDOF 9
ENDMDL
MODEL 7
REMARK VINA RESULT:      -5.5      3.076      4.898
REMARK  Name = 196749
REMARK  9 active torsions:
REMARK  status: ('A' for Active; 'I' for Inactive)
REMARK    1  A    between atoms: N_2  and  C_11
REMARK    2  A    between atoms: C_4  and  C_7
REMARK    3  A    between atoms: C_5  and  C_21
REMARK    4  A    between atoms: C_7  and  C_8
REMARK    5  A    between atoms: C_8  and  C_9
REMARK    6  A    between atoms: C_11  and  C_12
REMARK    7  A    between atoms: C_13  and  N_20
REMARK    8  A    between atoms: C_21  and  C_23
REMARK    9  A    between atoms: C_23  and  O_24
REMARK                            x       y       z     vdW  Elec       q    Type
REMARK                         _______ _______ _______ _____ _____    ______ ____
ROOT
ATOM      1 CL   UNL     1     -35.988  19.813   1.377  0.00  0.00    -0.051 Cl
ATOM      2  N   UNL     1     -37.059  23.064   3.116  0.00  0.00    -0.277 N 
ATOM      3  N   UNL     1     -35.544  21.478   3.452  0.00  0.00    -0.383 NA
ATOM      4  C   UNL     1     -36.051  22.592   3.880  0.00  0.00    +0.161 C 
ATOM      5  C   UNL     1     -37.221  22.171   2.095  0.00  0.00    +0.150 C 
ATOM      6  C   UNL     1     -36.274  21.200   2.323  0.00  0.00    +0.186 C 
ENDROOT
BRANCH   4   7
ATOM      7  C   UNL     1     -35.593  23.331   5.112  0.00  0.00    +0.075 C 
BRANCH   7   8
ATOM      8  C   UNL     1     -34.331  24.153   4.836  0.00  0.00    +0.009 C 
BRANCH   8   9
ATOM      9  C   UNL     1     -34.409  25.527   5.503  0.00  0.00    +0.000 C 
ATOM     10  C   UNL     1     -35.850  25.966   5.710  0.00  0.00    +0.000 C 
ENDBRANCH   8   9
ENDBRANCH   7   8
ENDBRANCH   4   7
BRANCH   2  11
ATOM     11  C   UNL     1     -37.827  24.272   3.322  0.00  0.00    +0.122 C 
BRANCH  11  12
ATOM     12  C   UNL     1     -37.454  25.337   2.326  0.00  0.00    +0.020 C 
ATOM     13  C   UNL     1     -38.428  26.115   1.712  0.00  0.00    +0.140 C 
ATOM     14  C   UNL     1     -36.108  25.523   2.034  0.00  0.00    -0.001 C 
ATOM     15  C   UNL     1     -38.051  27.093   0.792  0.00  0.00    +0.024 C 
ATOM     16  C   UNL     1     -35.731  26.502   1.114  0.00  0.00    -0.000 C 
ATOM     17  C   UNL     1     -36.703  27.287   0.493  0.00  0.00    +0.002 C 
BRANCH  13  20
ATOM     18  O   UNL     1     -40.337  26.652   2.879  0.00  0.00    -0.126 OA
ATOM     19  O   UNL     1     -40.444  25.062   1.364  0.00  0.00    -0.126 OA
ATOM     20  N   UNL     1     -39.809  25.933   2.000  0.00  0.00    +0.057 N 
ENDBRANCH  13  20
ENDBRANCH  11  12
ENDBRANCH   2  11
BRANCH   5  21
ATOM     21  C   UNL     1     -38.235  22.331   1.036  0.00  0.00    +0.137 C 
BRANCH  21  23
ATOM     22  O   UNL     1     -40.248  21.570   2.145  0.00  0.00    -0.250 OA
ATOM     23  C   UNL     1     -39.400  21.393   1.280  0.00  0.00    +0.316 C 
BRANCH  23  24
ATOM     24  O   UNL     1     -39.380  20.303   0.472  0.00  0.00    -0.480 OA
ATOM     25  H   UNL     1     -40.066  19.667   0.526  0.00  0.00    +0.295 HD
ENDBRANCH  23  24
ENDBRANCH  21  23
ENDBRANCH   5  21
TORSDOF 9
ENDMDL
MODEL 8
REMARK VINA RESULT:      -5.5      3.384      5.170
REMARK  Name = 196749
REMARK  9 active torsions:
REMARK  status: ('A' for Active; 'I' for Inactive)
REMARK    1  A    between atoms: N_2  and  C_11
REMARK    2  A    between atoms: C_4  and  C_7
REMARK    3  A    between atoms: C_5  and  C_21
REMARK    4  A    between atoms: C_7  and  C_8
REMARK    5  A    between atoms: C_8  and  C_9
REMARK    6  A    between atoms: C_11  and  C_12
REMARK    7  A    between atoms: C_13  and  N_20
REMARK    8  A    between atoms: C_21  and  C_23
REMARK    9  A    between atoms: C_23  and  O_24
REMARK                            x       y       z     vdW  Elec       q    Type
REMARK                         _______ _______ _______ _____ _____    ______ ____
ROOT
ATOM      1 CL   UNL     1     -31.044  28.598   5.211  0.00  0.00    -0.051 Cl
ATOM      2  N   UNL     1     -34.389  27.144   4.012  0.00  0.00    -0.277 N 
ATOM      3  N   UNL     1     -32.977  26.778   5.684  0.00  0.00    -0.383 NA
ATOM      4  C   UNL     1     -34.092  26.432   5.120  0.00  0.00    +0.161 C 
ATOM      5  C   UNL     1     -33.369  28.037   3.842  0.00  0.00    +0.150 C 
ATOM      6  C   UNL     1     -32.509  27.793   4.887  0.00  0.00    +0.186 C 
ENDROOT
BRANCH   4   7
ATOM      7  C   UNL     1     -35.007  25.341   5.616  0.00  0.00    +0.075 C 
BRANCH   7   8
ATOM      8  C   UNL     1     -34.431  23.952   5.330  0.00  0.00    +0.009 C 
BRANCH   8   9
ATOM      9  C   UNL     1     -35.533  22.893   5.286  0.00  0.00    +0.000 C 
ATOM     10  C   UNL     1     -35.345  21.848   6.375  0.00  0.00    +0.000 C 
ENDBRANCH   8   9
ENDBRANCH   7   8
ENDBRANCH   4   7
BRANCH   2  11
ATOM     11  C   UNL     1     -35.550  27.004   3.162  0.00  0.00    +0.122 C 
BRANCH  11  12
ATOM     12  C   UNL     1     -35.547  25.683   2.440  0.00  0.00    +0.020 C 
ATOM     13  C   UNL     1     -36.685  24.887   2.398  0.00  0.00    +0.140 C 
ATOM     14  C   UNL     1     -34.373  25.278   1.815  0.00  0.00    -0.001 C 
ATOM     15  C   UNL     1     -36.650  23.668   1.722  0.00  0.00    +0.024 C 
ATOM     16  C   UNL     1     -34.339  24.059   1.138  0.00  0.00    -0.000 C 
ATOM     17  C   UNL     1     -35.477  23.254   1.092  0.00  0.00    +0.002 C 
BRANCH  13  20
ATOM     18  O   UNL     1     -38.203  24.751   4.123  0.00  0.00    -0.126 OA
ATOM     19  O   UNL     1     -38.597  26.165   2.487  0.00  0.00    -0.126 OA
ATOM     20  N   UNL     1     -37.891  25.289   3.036  0.00  0.00    +0.057 N 
ENDBRANCH  13  20
ENDBRANCH  11  12
ENDBRANCH   2  11
BRANCH   5  21
ATOM     21  C   UNL     1     -33.322  29.006   2.731  0.00  0.00    +0.137 C 
BRANCH  21  23
ATOM     22  O   UNL     1     -34.755  30.672   3.748  0.00  0.00    -0.250 OA
ATOM     23  C   UNL     1     -33.682  30.391   3.228  0.00  0.00    +0.316 C 
BRANCH  23  24
ATOM     24  O   UNL     1     -32.709  31.308   2.993  0.00  0.00    -0.480 OA
ATOM     25  H   UNL     1     -31.999  31.404   3.597  0.00  0.00    +0.295 HD
ENDBRANCH  23  24
ENDBRANCH  21  23
ENDBRANCH   5  21
TORSDOF 9
ENDMDL
MODEL 9
REMARK VINA RESULT:      -5.5      2.289      4.209
REMARK  Name = 196749
REMARK  9 active torsions:
REMARK  status: ('A' for Active; 'I' for Inactive)
REMARK    1  A    between atoms: N_2  and  C_11
REMARK    2  A    between atoms: C_4  and  C_7
REMARK    3  A    between atoms: C_5  and  C_21
REMARK    4  A    between atoms: C_7  and  C_8
REMARK    5  A    between atoms: C_8  and  C_9
REMARK    6  A    between atoms: C_11  and  C_12
REMARK    7  A    between atoms: C_13  and  N_20
REMARK    8  A    between atoms: C_21  and  C_23
REMARK    9  A    between atoms: C_23  and  O_24
REMARK                            x       y       z     vdW  Elec       q    Type
REMARK                         _______ _______ _______ _____ _____    ______ ____
ROOT
ATOM      1 CL   UNL     1     -39.961  22.767   1.336  0.00  0.00    -0.051 Cl
ATOM      2  N   UNL     1     -36.620  22.958   3.219  0.00  0.00    -0.277 N 
ATOM      3  N   UNL     1     -37.679  21.471   1.956  0.00  0.00    -0.383 NA
ATOM      4  C   UNL     1     -36.615  21.733   2.649  0.00  0.00    +0.161 C 
ATOM      5  C   UNL     1     -37.800  23.545   2.860  0.00  0.00    +0.150 C 
ATOM      6  C   UNL     1     -38.437  22.608   2.079  0.00  0.00    +0.186 C 
ENDROOT
BRANCH   4   7
ATOM      7  C   UNL     1     -35.452  20.791   2.834  0.00  0.00    +0.075 C 
BRANCH   7   8
ATOM      8  C   UNL     1     -34.709  20.551   1.517  0.00  0.00    +0.009 C 
BRANCH   8   9
ATOM      9  C   UNL     1     -33.790  19.334   1.613  0.00  0.00    +0.000 C 
ATOM     10  C   UNL     1     -32.602  19.456   0.673  0.00  0.00    +0.000 C 
ENDBRANCH   8   9
ENDBRANCH   7   8
ENDBRANCH   4   7
BRANCH   2  11
ATOM     11  C   UNL     1     -35.591  23.546   4.046  0.00  0.00    +0.122 C 
BRANCH  11  12
ATOM     12  C   UNL     1     -34.756  24.529   3.270  0.00  0.00    +0.020 C 
ATOM     13  C   UNL     1     -34.371  25.740   3.831  0.00  0.00    +0.140 C 
ATOM     14  C   UNL     1     -34.381  24.195   1.974  0.00  0.00    -0.001 C 
ATOM     15  C   UNL     1     -33.598  26.631   3.086  0.00  0.00    +0.024 C 
ATOM     16  C   UNL     1     -33.607  25.085   1.229  0.00  0.00    -0.000 C 
ATOM     17  C   UNL     1     -33.217  26.304   1.785  0.00  0.00    +0.002 C 
BRANCH  13  20
ATOM     18  O   UNL     1     -35.906  26.538   5.348  0.00  0.00    -0.126 OA
ATOM     19  O   UNL     1     -33.915  25.955   6.076  0.00  0.00    -0.126 OA
ATOM     20  N   UNL     1     -34.750  26.096   5.154  0.00  0.00    +0.057 N 
ENDBRANCH  13  20
ENDBRANCH  11  12
ENDBRANCH   2  11
BRANCH   5  21
ATOM     21  C   UNL     1     -38.188  24.903   3.285  0.00  0.00    +0.137 C 
BRANCH  21  23
ATOM     22  O   UNL     1     -37.897  25.714   1.022  0.00  0.00    -0.250 OA
ATOM     23  C   UNL     1     -37.798  25.915   2.227  0.00  0.00    +0.316 C 
BRANCH  23  24
ATOM     24  O   UNL     1     -37.277  27.054   2.749  0.00  0.00    -0.480 OA
ATOM     25  H   UNL     1     -36.362  27.104   2.945  0.00  0.00    +0.295 HD
ENDBRANCH  23  24
ENDBRANCH  21  23
ENDBRANCH   5  21
TORSDOF 9
ENDMDL
