MODEL 1
REMARK VINA RESULT:      -6.4      0.000      0.000
REMARK  Name = 21579195
REMARK  6 active torsions:
REMARK  status: ('A' for Active; 'I' for Inactive)
REMARK    1  A    between atoms: C_5  and  C_12
REMARK    2  A    between atoms: C_7  and  O_18
REMARK    3  A    between atoms: C_8  and  O_20
REMARK    4  A    between atoms: C_9  and  O_22
REMARK    5  A    between atoms: C_10  and  O_24
REMARK    6  A    between atoms: C_11  and  O_26
REMARK                            x       y       z     vdW  Elec       q    Type
REMARK                         _______ _______ _______ _____ _____    ______ ____
ROOT
ATOM      1  O   UNL     1     -35.273  22.198   2.169  0.00  0.00    -0.447 OA
ATOM      2  O   UNL     1     -38.951  20.909   0.985  0.00  0.00    -0.283 OA
ATOM      3  C   UNL     1     -37.680  22.497   2.173  0.00  0.00    +0.116 A 
ATOM      4  C   UNL     1     -36.397  22.886   2.547  0.00  0.00    +0.188 A 
ATOM      5  C   UNL     1     -35.421  21.072   1.375  0.00  0.00    +0.182 A 
ATOM      6  C   UNL     1     -37.845  21.297   1.339  0.00  0.00    +0.238 A 
ATOM      7  C   UNL     1     -36.604  20.583   0.953  0.00  0.00    +0.212 A 
ATOM      8  C   UNL     1     -38.790  23.238   2.588  0.00  0.00    +0.177 A 
ATOM      9  C   UNL     1     -36.213  24.019   3.339  0.00  0.00    +0.206 A 
ATOM     10  C   UNL     1     -38.605  24.372   3.381  0.00  0.00    +0.205 A 
ATOM     11  C   UNL     1     -37.318  24.762   3.755  0.00  0.00    +0.208 A 
ENDROOT
BRANCH   5  12
ATOM     12  C   UNL     1     -34.130  20.451   1.043  0.00  0.00    +0.038 C 
ATOM     13  C   UNL     1     -33.240  21.105   0.192  0.00  0.00    +0.003 C 
ATOM     14  C   UNL     1     -33.797  19.206   1.578  0.00  0.00    +0.003 C 
ATOM     15  C   UNL     1     -32.015  20.516  -0.122  0.00  0.00    +0.000 C 
ATOM     16  C   UNL     1     -32.572  18.617   1.264  0.00  0.00    +0.000 C 
ATOM     17  C   UNL     1     -31.681  19.272   0.414  0.00  0.00    +0.000 C 
ENDBRANCH   5  12
BRANCH   7  18
ATOM     18  O   UNL     1     -36.772  19.449   0.189  0.00  0.00    -0.465 OA
ATOM     19  C   UNL     1     -36.694  19.755  -1.191  0.00  0.00    +0.253 C 
ENDBRANCH   7  18
BRANCH   8  20
ATOM     20  O   UNL     1     -40.062  22.889   2.244  0.00  0.00    -0.503 OA
ATOM     21  H   UNL     1     -40.243  22.023   1.933  0.00  0.00    +0.292 HD
ENDBRANCH   8  20
BRANCH   9  22
ATOM     22  O   UNL     1     -34.959  24.405   3.708  0.00  0.00    -0.501 OA
ATOM     23  H   UNL     1     -34.645  24.217   4.571  0.00  0.00    +0.292 HD
ENDBRANCH   9  22
BRANCH  10  24
ATOM     24  O   UNL     1     -39.682  25.102   3.791  0.00  0.00    -0.501 OA
ATOM     25  H   UNL     1     -39.912  25.126   4.699  0.00  0.00    +0.292 HD
ENDBRANCH  10  24
BRANCH  11  26
ATOM     26  O   UNL     1     -37.142  25.871   4.529  0.00  0.00    -0.501 OA
ATOM     27  H   UNL     1     -37.048  26.712   4.128  0.00  0.00    +0.292 HD
ENDBRANCH  11  26
TORSDOF 6
ENDMDL
MODEL 2
REMARK VINA RESULT:      -6.2      1.302      2.201
REMARK  Name = 21579195
REMARK  6 active torsions:
REMARK  status: ('A' for Active; 'I' for Inactive)
REMARK    1  A    between atoms: C_5  and  C_12
REMARK    2  A    between atoms: C_7  and  O_18
REMARK    3  A    between atoms: C_8  and  O_20
REMARK    4  A    between atoms: C_9  and  O_22
REMARK    5  A    between atoms: C_10  and  O_24
REMARK    6  A    between atoms: C_11  and  O_26
REMARK                            x       y       z     vdW  Elec       q    Type
REMARK                         _______ _______ _______ _____ _____    ______ ____
ROOT
ATOM      1  O   UNL     1     -34.961  20.830   1.603  0.00  0.00    -0.447 OA
ATOM      2  O   UNL     1     -38.038  18.976  -0.317  0.00  0.00    -0.283 OA
ATOM      3  C   UNL     1     -37.337  20.693   1.136  0.00  0.00    +0.116 A 
ATOM      4  C   UNL     1     -36.244  21.282   1.766  0.00  0.00    +0.188 A 
ATOM      5  C   UNL     1     -34.742  19.744   0.769  0.00  0.00    +0.182 A 
ATOM      6  C   UNL     1     -37.113  19.534   0.258  0.00  0.00    +0.238 A 
ATOM      7  C   UNL     1     -35.710  19.078   0.109  0.00  0.00    +0.212 A 
ATOM      8  C   UNL     1     -38.625  21.197   1.340  0.00  0.00    +0.177 A 
ATOM      9  C   UNL     1     -36.431  22.380   2.605  0.00  0.00    +0.206 A 
ATOM     10  C   UNL     1     -38.809  22.296   2.179  0.00  0.00    +0.205 A 
ATOM     11  C   UNL     1     -37.713  22.888   2.810  0.00  0.00    +0.208 A 
ENDROOT
BRANCH   5  12
ATOM     12  C   UNL     1     -33.318  19.384   0.686  0.00  0.00    +0.038 C 
ATOM     13  C   UNL     1     -32.852  18.233   1.319  0.00  0.00    +0.003 C 
ATOM     14  C   UNL     1     -32.433  20.196  -0.025  0.00  0.00    +0.003 C 
ATOM     15  C   UNL     1     -31.502  17.891   1.241  0.00  0.00    +0.000 C 
ATOM     16  C   UNL     1     -31.083  19.854  -0.104  0.00  0.00    +0.000 C 
ATOM     17  C   UNL     1     -30.617  18.702   0.529  0.00  0.00    +0.000 C 
ENDBRANCH   5  12
BRANCH   7  18
ATOM     18  O   UNL     1     -35.514  17.979  -0.699  0.00  0.00    -0.465 OA
ATOM     19  C   UNL     1     -35.241  18.376  -2.030  0.00  0.00    +0.253 C 
ENDBRANCH   7  18
BRANCH   8  20
ATOM     20  O   UNL     1     -39.720  20.647   0.741  0.00  0.00    -0.503 OA
ATOM     21  H   UNL     1     -40.238  21.159   0.151  0.00  0.00    +0.292 HD
ENDBRANCH   8  20
BRANCH   9  22
ATOM     22  O   UNL     1     -35.364  22.962   3.224  0.00  0.00    -0.501 OA
ATOM     23  H   UNL     1     -35.043  23.790   2.925  0.00  0.00    +0.292 HD
ENDBRANCH   9  22
BRANCH  10  24
ATOM     24  O   UNL     1     -40.061  22.797   2.385  0.00  0.00    -0.501 OA
ATOM     25  H   UNL     1     -40.811  22.325   2.078  0.00  0.00    +0.292 HD
ENDBRANCH  10  24
BRANCH  11  26
ATOM     26  O   UNL     1     -37.898  23.962   3.630  0.00  0.00    -0.501 OA
ATOM     27  H   UNL     1     -37.594  23.934   4.515  0.00  0.00    +0.292 HD
ENDBRANCH  11  26
TORSDOF 6
ENDMDL
MODEL 3
REMARK VINA RESULT:      -5.9      4.910      7.351
REMARK  Name = 21579195
REMARK  6 active torsions:
REMARK  status: ('A' for Active; 'I' for Inactive)
REMARK    1  A    between atoms: C_5  and  C_12
REMARK    2  A    between atoms: C_7  and  O_18
REMARK    3  A    between atoms: C_8  and  O_20
REMARK    4  A    between atoms: C_9  and  O_22
REMARK    5  A    between atoms: C_10  and  O_24
REMARK    6  A    between atoms: C_11  and  O_26
REMARK                            x       y       z     vdW  Elec       q    Type
REMARK                         _______ _______ _______ _____ _____    ______ ____
ROOT
ATOM      1  O   UNL     1     -33.423  26.224   5.148  0.00  0.00    -0.447 OA
ATOM      2  O   UNL     1     -34.326  28.729   2.065  0.00  0.00    -0.283 OA
ATOM      3  C   UNL     1     -33.165  28.390   4.087  0.00  0.00    +0.116 A 
ATOM      4  C   UNL     1     -32.896  27.489   5.113  0.00  0.00    +0.188 A 
ATOM      5  C   UNL     1     -34.252  25.824   4.111  0.00  0.00    +0.182 A 
ATOM      6  C   UNL     1     -34.053  27.975   2.990  0.00  0.00    +0.238 A 
ATOM      7  C   UNL     1     -34.601  26.599   3.066  0.00  0.00    +0.212 A 
ATOM      8  C   UNL     1     -32.599  29.668   4.104  0.00  0.00    +0.177 A 
ATOM      9  C   UNL     1     -32.058  27.858   6.165  0.00  0.00    +0.206 A 
ATOM     10  C   UNL     1     -31.761  30.036   5.158  0.00  0.00    +0.205 A 
ATOM     11  C   UNL     1     -31.491  29.132   6.186  0.00  0.00    +0.208 A 
ENDROOT
BRANCH   5  12
ATOM     12  C   UNL     1     -34.729  24.442   4.282  0.00  0.00    +0.038 C 
ATOM     13  C   UNL     1     -35.044  23.966   5.554  0.00  0.00    +0.003 C 
ATOM     14  C   UNL     1     -34.863  23.609   3.171  0.00  0.00    +0.003 C 
ATOM     15  C   UNL     1     -35.496  22.656   5.716  0.00  0.00    +0.000 C 
ATOM     16  C   UNL     1     -35.314  22.299   3.333  0.00  0.00    +0.000 C 
ATOM     17  C   UNL     1     -35.631  21.822   4.605  0.00  0.00    +0.000 C 
ENDBRANCH   5  12
BRANCH   7  18
ATOM     18  O   UNL     1     -35.448  26.228   2.044  0.00  0.00    -0.465 OA
ATOM     19  C   UNL     1     -36.787  26.564   2.354  0.00  0.00    +0.253 C 
ENDBRANCH   7  18
BRANCH   8  20
ATOM     20  O   UNL     1     -32.839  30.579   3.118  0.00  0.00    -0.503 OA
ATOM     21  H   UNL     1     -32.415  30.492   2.287  0.00  0.00    +0.292 HD
ENDBRANCH   8  20
BRANCH   9  22
ATOM     22  O   UNL     1     -31.791  26.980   7.173  0.00  0.00    -0.501 OA
ATOM     23  H   UNL     1     -31.910  26.060   7.037  0.00  0.00    +0.292 HD
ENDBRANCH   9  22
BRANCH  10  24
ATOM     24  O   UNL     1     -31.203  31.281   5.184  0.00  0.00    -0.501 OA
ATOM     25  H   UNL     1     -30.650  31.561   4.482  0.00  0.00    +0.292 HD
ENDBRANCH  10  24
BRANCH  11  26
ATOM     26  O   UNL     1     -30.671  29.496   7.214  0.00  0.00    -0.501 OA
ATOM     27  H   UNL     1     -30.225  30.320   7.188  0.00  0.00    +0.292 HD
ENDBRANCH  11  26
TORSDOF 6
ENDMDL
MODEL 4
REMARK VINA RESULT:      -5.8      3.533      5.564
REMARK  Name = 21579195
REMARK  6 active torsions:
REMARK  status: ('A' for Active; 'I' for Inactive)
REMARK    1  A    between atoms: C_5  and  C_12
REMARK    2  A    between atoms: C_7  and  O_18
REMARK    3  A    between atoms: C_8  and  O_20
REMARK    4  A    between atoms: C_9  and  O_22
REMARK    5  A    between atoms: C_10  and  O_24
REMARK    6  A    between atoms: C_11  and  O_26
REMARK                            x       y       z     vdW  Elec       q    Type
REMARK                         _______ _______ _______ _____ _____    ______ ____
ROOT
ATOM      1  O   UNL     1     -35.024  25.539   3.013  0.00  0.00    -0.447 OA
ATOM      2  O   UNL     1     -38.791  26.756   2.053  0.00  0.00    -0.283 OA
ATOM      3  C   UNL     1     -36.471  27.136   1.898  0.00  0.00    +0.116 A 
ATOM      4  C   UNL     1     -35.210  26.669   2.260  0.00  0.00    +0.188 A 
ATOM      5  C   UNL     1     -36.140  24.826   3.423  0.00  0.00    +0.182 A 
ATOM      6  C   UNL     1     -37.659  26.389   2.340  0.00  0.00    +0.238 A 
ATOM      7  C   UNL     1     -37.413  25.173   3.151  0.00  0.00    +0.212 A 
ATOM      8  C   UNL     1     -36.600  28.295   1.129  0.00  0.00    +0.177 A 
ATOM      9  C   UNL     1     -34.068  27.360   1.856  0.00  0.00    +0.206 A 
ATOM     10  C   UNL     1     -35.456  28.985   0.725  0.00  0.00    +0.205 A 
ATOM     11  C   UNL     1     -34.192  28.517   1.087  0.00  0.00    +0.208 A 
ENDROOT
BRANCH   5  12
ATOM     12  C   UNL     1     -35.781  23.635   4.210  0.00  0.00    +0.038 C 
ATOM     13  C   UNL     1     -35.612  22.405   3.575  0.00  0.00    +0.003 C 
ATOM     14  C   UNL     1     -35.611  23.736   5.591  0.00  0.00    +0.003 C 
ATOM     15  C   UNL     1     -35.272  21.276   4.320  0.00  0.00    +0.000 C 
ATOM     16  C   UNL     1     -35.271  22.607   6.336  0.00  0.00    +0.000 C 
ATOM     17  C   UNL     1     -35.101  21.378   5.701  0.00  0.00    +0.000 C 
ENDBRANCH   5  12
BRANCH   7  18
ATOM     18  O   UNL     1     -38.534  24.493   3.577  0.00  0.00    -0.465 OA
ATOM     19  C   UNL     1     -38.987  23.596   2.580  0.00  0.00    +0.253 C 
ENDBRANCH   7  18
BRANCH   8  20
ATOM     20  O   UNL     1     -37.817  28.783   0.755  0.00  0.00    -0.503 OA
ATOM     21  H   UNL     1     -38.411  29.109   1.403  0.00  0.00    +0.292 HD
ENDBRANCH   8  20
BRANCH   9  22
ATOM     22  O   UNL     1     -32.830  26.908   2.207  0.00  0.00    -0.501 OA
ATOM     23  H   UNL     1     -32.545  26.966   3.098  0.00  0.00    +0.292 HD
ENDBRANCH   9  22
BRANCH  10  24
ATOM     24  O   UNL     1     -35.570  30.118  -0.026  0.00  0.00    -0.501 OA
ATOM     25  H   UNL     1     -34.812  30.488  -0.433  0.00  0.00    +0.292 HD
ENDBRANCH  10  24
BRANCH  11  26
ATOM     26  O   UNL     1     -33.076  29.194   0.690  0.00  0.00    -0.501 OA
ATOM     27  H   UNL     1     -32.981  29.456  -0.205  0.00  0.00    +0.292 HD
ENDBRANCH  11  26
TORSDOF 6
ENDMDL
MODEL 5
REMARK VINA RESULT:      -5.8      2.042      2.734
REMARK  Name = 21579195
REMARK  6 active torsions:
REMARK  status: ('A' for Active; 'I' for Inactive)
REMARK    1  A    between atoms: C_5  and  C_12
REMARK    2  A    between atoms: C_7  and  O_18
REMARK    3  A    between atoms: C_8  and  O_20
REMARK    4  A    between atoms: C_9  and  O_22
REMARK    5  A    between atoms: C_10  and  O_24
REMARK    6  A    between atoms: C_11  and  O_26
REMARK                            x       y       z     vdW  Elec       q    Type
REMARK                         _______ _______ _______ _____ _____    ______ ____
ROOT
ATOM      1  O   UNL     1     -34.878  20.320   2.528  0.00  0.00    -0.447 OA
ATOM      2  O   UNL     1     -36.297  23.171  -0.012  0.00  0.00    -0.283 OA
ATOM      3  C   UNL     1     -35.931  22.483   2.211  0.00  0.00    +0.116 A 
ATOM      4  C   UNL     1     -35.430  21.472   3.026  0.00  0.00    +0.188 A 
ATOM      5  C   UNL     1     -34.809  20.161   1.152  0.00  0.00    +0.182 A 
ATOM      6  C   UNL     1     -35.869  22.315   0.751  0.00  0.00    +0.238 A 
ATOM      7  C   UNL     1     -35.264  21.056   0.253  0.00  0.00    +0.212 A 
ATOM      8  C   UNL     1     -36.482  23.636   2.775  0.00  0.00    +0.177 A 
ATOM      9  C   UNL     1     -35.478  21.606   4.414  0.00  0.00    +0.206 A 
ATOM     10  C   UNL     1     -36.529  23.769   4.164  0.00  0.00    +0.205 A 
ATOM     11  C   UNL     1     -36.027  22.755   4.981  0.00  0.00    +0.208 A 
ENDROOT
BRANCH   5  12
ATOM     12  C   UNL     1     -34.183  18.885   0.771  0.00  0.00    +0.038 C 
ATOM     13  C   UNL     1     -34.899  17.956   0.018  0.00  0.00    +0.003 C 
ATOM     14  C   UNL     1     -32.874  18.605   1.164  0.00  0.00    +0.003 C 
ATOM     15  C   UNL     1     -34.306  16.746  -0.344  0.00  0.00    +0.000 C 
ATOM     16  C   UNL     1     -32.281  17.395   0.802  0.00  0.00    +0.000 C 
ATOM     17  C   UNL     1     -32.997  16.466   0.048  0.00  0.00    +0.000 C 
ENDBRANCH   5  12
BRANCH   7  18
ATOM     18  O   UNL     1     -35.231  20.900  -1.115  0.00  0.00    -0.465 OA
ATOM     19  C   UNL     1     -34.013  21.386  -1.647  0.00  0.00    +0.253 C 
ENDBRANCH   7  18
BRANCH   8  20
ATOM     20  O   UNL     1     -36.983  24.648   2.010  0.00  0.00    -0.503 OA
ATOM     21  H   UNL     1     -36.561  25.485   2.006  0.00  0.00    +0.292 HD
ENDBRANCH   8  20
BRANCH   9  22
ATOM     22  O   UNL     1     -34.989  20.619   5.218  0.00  0.00    -0.501 OA
ATOM     23  H   UNL     1     -35.401  19.777   5.228  0.00  0.00    +0.292 HD
ENDBRANCH   9  22
BRANCH  10  24
ATOM     24  O   UNL     1     -37.066  24.890   4.725  0.00  0.00    -0.501 OA
ATOM     25  H   UNL     1     -36.949  25.723   4.312  0.00  0.00    +0.292 HD
ENDBRANCH  10  24
BRANCH  11  26
ATOM     26  O   UNL     1     -36.075  22.889   6.338  0.00  0.00    -0.501 OA
ATOM     27  H   UNL     1     -36.401  22.188   6.867  0.00  0.00    +0.292 HD
ENDBRANCH  11  26
TORSDOF 6
ENDMDL
MODEL 6
REMARK VINA RESULT:      -5.8      3.294      7.350
REMARK  Name = 21579195
REMARK  6 active torsions:
REMARK  status: ('A' for Active; 'I' for Inactive)
REMARK    1  A    between atoms: C_5  and  C_12
REMARK    2  A    between atoms: C_7  and  O_18
REMARK    3  A    between atoms: C_8  and  O_20
REMARK    4  A    between atoms: C_9  and  O_22
REMARK    5  A    between atoms: C_10  and  O_24
REMARK    6  A    between atoms: C_11  and  O_26
REMARK                            x       y       z     vdW  Elec       q    Type
REMARK                         _______ _______ _______ _____ _____    ______ ____
ROOT
ATOM      1  O   UNL     1     -39.364  25.712   3.003  0.00  0.00    -0.447 OA
ATOM      2  O   UNL     1     -40.199  22.097   1.320  0.00  0.00    -0.283 OA
ATOM      3  C   UNL     1     -38.714  23.411   2.593  0.00  0.00    +0.116 A 
ATOM      4  C   UNL     1     -38.485  24.670   3.142  0.00  0.00    +0.188 A 
ATOM      5  C   UNL     1     -40.535  25.500   2.291  0.00  0.00    +0.182 A 
ATOM      6  C   UNL     1     -39.949  23.183   1.828  0.00  0.00    +0.238 A 
ATOM      7  C   UNL     1     -40.873  24.336   1.701  0.00  0.00    +0.212 A 
ATOM      8  C   UNL     1     -37.781  22.385   2.768  0.00  0.00    +0.177 A 
ATOM      9  C   UNL     1     -37.321  24.912   3.871  0.00  0.00    +0.206 A 
ATOM     10  C   UNL     1     -36.617  22.629   3.497  0.00  0.00    +0.205 A 
ATOM     11  C   UNL     1     -36.388  23.891   4.048  0.00  0.00    +0.208 A 
ENDROOT
BRANCH   5  12
ATOM     12  C   UNL     1     -41.380  26.703   2.238  0.00  0.00    +0.038 C 
ATOM     13  C   UNL     1     -42.123  27.083   3.355  0.00  0.00    +0.003 C 
ATOM     14  C   UNL     1     -41.438  27.464   1.070  0.00  0.00    +0.003 C 
ATOM     15  C   UNL     1     -42.924  28.224   3.305  0.00  0.00    +0.000 C 
ATOM     16  C   UNL     1     -42.239  28.605   1.020  0.00  0.00    +0.000 C 
ATOM     17  C   UNL     1     -42.982  28.985   2.137  0.00  0.00    +0.000 C 
ENDBRANCH   5  12
BRANCH   7  18
ATOM     18  O   UNL     1     -42.017  24.118   0.965  0.00  0.00    -0.465 OA
ATOM     19  C   UNL     1     -41.751  24.223  -0.421  0.00  0.00    +0.253 C 
ENDBRANCH   7  18
BRANCH   8  20
ATOM     20  O   UNL     1     -37.970  21.140   2.245  0.00  0.00    -0.503 OA
ATOM     21  H   UNL     1     -38.734  20.648   2.470  0.00  0.00    +0.292 HD
ENDBRANCH   8  20
BRANCH   9  22
ATOM     22  O   UNL     1     -37.091  26.143   4.411  0.00  0.00    -0.501 OA
ATOM     23  H   UNL     1     -36.212  26.438   4.547  0.00  0.00    +0.292 HD
ENDBRANCH   9  22
BRANCH  10  24
ATOM     24  O   UNL     1     -35.700  21.635   3.674  0.00  0.00    -0.501 OA
ATOM     25  H   UNL     1     -35.966  20.738   3.622  0.00  0.00    +0.292 HD
ENDBRANCH  10  24
BRANCH  11  26
ATOM     26  O   UNL     1     -35.248  24.125   4.761  0.00  0.00    -0.501 OA
ATOM     27  H   UNL     1     -34.639  24.775   4.470  0.00  0.00    +0.292 HD
ENDBRANCH  11  26
TORSDOF 6
ENDMDL
MODEL 7
REMARK VINA RESULT:      -5.7      2.007      5.545
REMARK  Name = 21579195
REMARK  6 active torsions:
REMARK  status: ('A' for Active; 'I' for Inactive)
REMARK    1  A    between atoms: C_5  and  C_12
REMARK    2  A    between atoms: C_7  and  O_18
REMARK    3  A    between atoms: C_8  and  O_20
REMARK    4  A    between atoms: C_9  and  O_22
REMARK    5  A    between atoms: C_10  and  O_24
REMARK    6  A    between atoms: C_11  and  O_26
REMARK                            x       y       z     vdW  Elec       q    Type
REMARK                         _______ _______ _______ _____ _____    ______ ____
ROOT
ATOM      1  O   UNL     1     -35.888  22.558   2.532  0.00  0.00    -0.447 OA
ATOM      2  O   UNL     1     -39.944  22.815   2.250  0.00  0.00    -0.283 OA
ATOM      3  C   UNL     1     -37.974  21.655   1.683  0.00  0.00    +0.116 A 
ATOM      4  C   UNL     1     -36.588  21.622   1.815  0.00  0.00    +0.188 A 
ATOM      5  C   UNL     1     -36.593  23.575   3.159  0.00  0.00    +0.182 A 
ATOM      6  C   UNL     1     -38.725  22.737   2.337  0.00  0.00    +0.238 A 
ATOM      7  C   UNL     1     -37.930  23.727   3.102  0.00  0.00    +0.212 A 
ATOM      8  C   UNL     1     -38.634  20.673   0.939  0.00  0.00    +0.177 A 
ATOM      9  C   UNL     1     -35.852  20.608   1.204  0.00  0.00    +0.206 A 
ATOM     10  C   UNL     1     -37.896  19.659   0.328  0.00  0.00    +0.205 A 
ATOM     11  C   UNL     1     -36.507  19.626   0.461  0.00  0.00    +0.208 A 
ENDROOT
BRANCH   5  12
ATOM     12  C   UNL     1     -35.709  24.491   3.897  0.00  0.00    +0.038 C 
ATOM     13  C   UNL     1     -34.956  25.439   3.206  0.00  0.00    +0.003 C 
ATOM     14  C   UNL     1     -35.624  24.410   5.287  0.00  0.00    +0.003 C 
ATOM     15  C   UNL     1     -34.118  26.308   3.905  0.00  0.00    +0.000 C 
ATOM     16  C   UNL     1     -34.786  25.279   5.986  0.00  0.00    +0.000 C 
ATOM     17  C   UNL     1     -34.033  26.228   5.296  0.00  0.00    +0.000 C 
ENDBRANCH   5  12
BRANCH   7  18
ATOM     18  O   UNL     1     -38.643  24.748   3.693  0.00  0.00    -0.465 OA
ATOM     19  C   UNL     1     -38.731  25.866   2.830  0.00  0.00    +0.253 C 
ENDBRANCH   7  18
BRANCH   8  20
ATOM     20  O   UNL     1     -39.989  20.671   0.786  0.00  0.00    -0.503 OA
ATOM     21  H   UNL     1     -40.369  20.924  -0.032  0.00  0.00    +0.292 HD
ENDBRANCH   8  20
BRANCH   9  22
ATOM     22  O   UNL     1     -34.494  20.571   1.330  0.00  0.00    -0.501 OA
ATOM     23  H   UNL     1     -33.954  20.532   0.566  0.00  0.00    +0.292 HD
ENDBRANCH   9  22
BRANCH  10  24
ATOM     24  O   UNL     1     -38.530  18.696  -0.400  0.00  0.00    -0.501 OA
ATOM     25  H   UNL     1     -38.399  17.791  -0.195  0.00  0.00    +0.292 HD
ENDBRANCH  10  24
BRANCH  11  26
ATOM     26  O   UNL     1     -35.789  18.632  -0.138  0.00  0.00    -0.501 OA
ATOM     27  H   UNL     1     -35.431  18.763  -0.993  0.00  0.00    +0.292 HD
ENDBRANCH  11  26
TORSDOF 6
ENDMDL
MODEL 8
REMARK VINA RESULT:      -5.7      1.694      3.564
REMARK  Name = 21579195
REMARK  6 active torsions:
REMARK  status: ('A' for Active; 'I' for Inactive)
REMARK    1  A    between atoms: C_5  and  C_12
REMARK    2  A    between atoms: C_7  and  O_18
REMARK    3  A    between atoms: C_8  and  O_20
REMARK    4  A    between atoms: C_9  and  O_22
REMARK    5  A    between atoms: C_10  and  O_24
REMARK    6  A    between atoms: C_11  and  O_26
REMARK                            x       y       z     vdW  Elec       q    Type
REMARK                         _______ _______ _______ _____ _____    ______ ____
ROOT
ATOM      1  O   UNL     1     -37.032  22.141   0.988  0.00  0.00    -0.447 OA
ATOM      2  O   UNL     1     -37.275  24.202   4.493  0.00  0.00    -0.283 OA
ATOM      3  C   UNL     1     -38.297  23.598   2.459  0.00  0.00    +0.116 A 
ATOM      4  C   UNL     1     -38.154  22.874   1.278  0.00  0.00    +0.188 A 
ATOM      5  C   UNL     1     -36.001  22.114   1.914  0.00  0.00    +0.182 A 
ATOM      6  C   UNL     1     -37.202  23.581   3.440  0.00  0.00    +0.238 A 
ATOM      7  C   UNL     1     -36.008  22.776   3.088  0.00  0.00    +0.212 A 
ATOM      8  C   UNL     1     -39.465  24.327   2.700  0.00  0.00    +0.177 A 
ATOM      9  C   UNL     1     -39.176  22.874   0.330  0.00  0.00    +0.206 A 
ATOM     10  C   UNL     1     -40.487  24.326   1.751  0.00  0.00    +0.205 A 
ATOM     11  C   UNL     1     -40.343  23.600   0.568  0.00  0.00    +0.208 A 
ENDROOT
BRANCH   5  12
ATOM     12  C   UNL     1     -34.874  21.279   1.469  0.00  0.00    +0.038 C 
ATOM     13  C   UNL     1     -33.938  21.793   0.573  0.00  0.00    +0.003 C 
ATOM     14  C   UNL     1     -34.744  19.973   1.942  0.00  0.00    +0.003 C 
ATOM     15  C   UNL     1     -32.869  21.002   0.150  0.00  0.00    +0.000 C 
ATOM     16  C   UNL     1     -33.675  19.182   1.519  0.00  0.00    +0.000 C 
ATOM     17  C   UNL     1     -32.738  19.696   0.624  0.00  0.00    +0.000 C 
ENDBRANCH   5  12
BRANCH   7  18
ATOM     18  O   UNL     1     -34.980  22.785   4.006  0.00  0.00    -0.465 OA
ATOM     19  C   UNL     1     -35.242  21.881   5.063  0.00  0.00    +0.253 C 
ENDBRANCH   7  18
BRANCH   8  20
ATOM     20  O   UNL     1     -39.642  25.048   3.844  0.00  0.00    -0.503 OA
ATOM     21  H   UNL     1     -39.041  24.954   4.556  0.00  0.00    +0.292 HD
ENDBRANCH   8  20
BRANCH   9  22
ATOM     22  O   UNL     1     -39.041  22.167  -0.828  0.00  0.00    -0.501 OA
ATOM     23  H   UNL     1     -39.773  22.070  -1.406  0.00  0.00    +0.292 HD
ENDBRANCH   9  22
BRANCH  10  24
ATOM     24  O   UNL     1     -41.630  25.035   1.977  0.00  0.00    -0.501 OA
ATOM     25  H   UNL     1     -41.611  25.972   1.966  0.00  0.00    +0.292 HD
ENDBRANCH  10  24
BRANCH  11  26
ATOM     26  O   UNL     1     -41.345  23.602  -0.358  0.00  0.00    -0.501 OA
ATOM     27  H   UNL     1     -41.660  22.792  -0.709  0.00  0.00    +0.292 HD
ENDBRANCH  11  26
TORSDOF 6
ENDMDL
MODEL 9
REMARK VINA RESULT:      -5.7      1.502      2.404
REMARK  Name = 21579195
REMARK  6 active torsions:
REMARK  status: ('A' for Active; 'I' for Inactive)
REMARK    1  A    between atoms: C_5  and  C_12
REMARK    2  A    between atoms: C_7  and  O_18
REMARK    3  A    between atoms: C_8  and  O_20
REMARK    4  A    between atoms: C_9  and  O_22
REMARK    5  A    between atoms: C_10  and  O_24
REMARK    6  A    between atoms: C_11  and  O_26
REMARK                            x       y       z     vdW  Elec       q    Type
REMARK                         _______ _______ _______ _____ _____    ______ ____
ROOT
ATOM      1  O   UNL     1     -34.402  22.958   2.379  0.00  0.00    -0.447 OA
ATOM      2  O   UNL     1     -38.433  22.747   2.929  0.00  0.00    -0.283 OA
ATOM      3  C   UNL     1     -36.418  23.894   3.350  0.00  0.00    +0.116 A 
ATOM      4  C   UNL     1     -35.044  23.910   3.127  0.00  0.00    +0.188 A 
ATOM      5  C   UNL     1     -35.156  21.941   1.813  0.00  0.00    +0.182 A 
ATOM      6  C   UNL     1     -37.221  22.812   2.762  0.00  0.00    +0.238 A 
ATOM      7  C   UNL     1     -36.488  21.803   1.959  0.00  0.00    +0.212 A 
ATOM      8  C   UNL     1     -37.019  24.892   4.122  0.00  0.00    +0.177 A 
ATOM      9  C   UNL     1     -34.260  24.925   3.675  0.00  0.00    +0.206 A 
ATOM     10  C   UNL     1     -36.232  25.907   4.670  0.00  0.00    +0.205 A 
ATOM     11  C   UNL     1     -34.855  25.923   4.445  0.00  0.00    +0.208 A 
ENDROOT
BRANCH   5  12
ATOM     12  C   UNL     1     -34.331  21.006   1.032  0.00  0.00    +0.038 C 
ATOM     13  C   UNL     1     -34.003  19.757   1.560  0.00  0.00    +0.003 C 
ATOM     14  C   UNL     1     -33.877  21.368  -0.236  0.00  0.00    +0.003 C 
ATOM     15  C   UNL     1     -33.221  18.871   0.820  0.00  0.00    +0.000 C 
ATOM     16  C   UNL     1     -33.095  20.481  -0.976  0.00  0.00    +0.000 C 
ATOM     17  C   UNL     1     -32.767  19.233  -0.449  0.00  0.00    +0.000 C 
ENDBRANCH   5  12
BRANCH   7  18
ATOM     18  O   UNL     1     -37.248  20.782   1.430  0.00  0.00    -0.465 OA
ATOM     19  C   UNL     1     -37.697  21.111   0.129  0.00  0.00    +0.253 C 
ENDBRANCH   7  18
BRANCH   8  20
ATOM     20  O   UNL     1     -38.361  24.910   4.363  0.00  0.00    -0.503 OA
ATOM     21  H   UNL     1     -38.703  25.415   5.075  0.00  0.00    +0.292 HD
ENDBRANCH   8  20
BRANCH   9  22
ATOM     22  O   UNL     1     -32.913  24.946   3.460  0.00  0.00    -0.501 OA
ATOM     23  H   UNL     1     -32.334  24.536   4.072  0.00  0.00    +0.292 HD
ENDBRANCH   9  22
BRANCH  10  24
ATOM     24  O   UNL     1     -36.809  26.886   5.425  0.00  0.00    -0.501 OA
ATOM     25  H   UNL     1     -37.407  26.658   6.110  0.00  0.00    +0.292 HD
ENDBRANCH  10  24
BRANCH  11  26
ATOM     26  O   UNL     1     -34.090  26.917   4.982  0.00  0.00    -0.501 OA
ATOM     27  H   UNL     1     -34.405  27.405   5.718  0.00  0.00    +0.292 HD
ENDBRANCH  11  26
TORSDOF 6
ENDMDL
