MODEL 1
REMARK VINA RESULT:      -5.3      0.000      0.000
REMARK  Name = 5748399
REMARK  6 active torsions:
REMARK  status: ('A' for Active; 'I' for Inactive)
REMARK    1  A    between atoms: C_1  and  N_13
REMARK    2  A    between atoms: C_2  and  N_9
REMARK    3  A    between atoms: C_5  and  N_10
REMARK    4  A    between atoms: N_13  and  C_15
REMARK    5  A    between atoms: C_15  and  C_16
REMARK    6  A    between atoms: C_16  and  S_17
REMARK                            x       y       z     vdW  Elec       q    Type
REMARK                         _______ _______ _______ _____ _____    ______ ____
ROOT
ATOM      1  C   UNL     1     -36.502  23.640   3.885  0.00  0.00    +0.067 C 
ATOM      2  C   UNL     1     -35.638  23.383   4.969  0.00  0.00    +0.157 C 
ATOM      3  C   UNL     1     -36.520  24.942   3.347  0.00  0.00    +0.017 C 
ATOM      4  C   UNL     1     -34.825  24.387   5.493  0.00  0.00    +0.039 C 
ATOM      5  C   UNL     1     -34.860  25.670   4.944  0.00  0.00    +0.043 C 
ATOM      6  C   UNL     1     -35.707  25.947   3.871  0.00  0.00    +0.015 C 
ENDROOT
BRANCH   2   9
ATOM      7  O   UNL     1     -36.001  21.925   6.718  0.00  0.00    -0.126 OA
ATOM      8  O   UNL     1     -35.122  21.138   4.867  0.00  0.00    -0.126 OA
ATOM      9  N   UNL     1     -35.584  22.084   5.547  0.00  0.00    +0.059 N 
ENDBRANCH   2   9
BRANCH   5  10
ATOM     10  N   UNL     1     -34.038  26.686   5.474  0.00  0.00    -0.357 N 
ATOM     11  H   UNL     1     -33.665  26.595   6.380  0.00  0.00    +0.142 HD
ATOM     12  H   UNL     1     -33.837  27.486   4.937  0.00  0.00    +0.142 HD
ENDBRANCH   5  10
BRANCH   1  13
ATOM     13  N   UNL     1     -37.320  22.660   3.346  0.00  0.00    -0.330 N 
ATOM     14  H   UNL     1     -38.089  22.353   3.879  0.00  0.00    +0.147 HD
BRANCH  13  15
ATOM     15  C   UNL     1     -37.109  22.063   2.049  0.00  0.00    +0.113 C 
BRANCH  15  16
ATOM     16  C   UNL     1     -38.116  22.596   1.047  0.00  0.00    +0.179 C 
BRANCH  16  17
ATOM     17  S   UNL     1     -39.745  22.700   1.720  0.00  0.00    +0.024 S 
ATOM     18  O   UNL     1     -40.540  22.933   0.315  0.00  0.00    -0.069 OA
ATOM     19  O   UNL     1     -39.848  23.906   2.520  0.00  0.00    -0.069 OA
ATOM     20  O   UNL     1     -40.114  21.401   2.252  0.00  0.00    -0.069 OA
ENDBRANCH  16  17
ENDBRANCH  15  16
ENDBRANCH  13  15
ENDBRANCH   1  13
TORSDOF 6
ENDMDL
MODEL 2
REMARK VINA RESULT:      -5.2      2.554      2.779
REMARK  Name = 5748399
REMARK  6 active torsions:
REMARK  status: ('A' for Active; 'I' for Inactive)
REMARK    1  A    between atoms: C_1  and  N_13
REMARK    2  A    between atoms: C_2  and  N_9
REMARK    3  A    between atoms: C_5  and  N_10
REMARK    4  A    between atoms: N_13  and  C_15
REMARK    5  A    between atoms: C_15  and  C_16
REMARK    6  A    between atoms: C_16  and  S_17
REMARK                            x       y       z     vdW  Elec       q    Type
REMARK                         _______ _______ _______ _____ _____    ______ ____
ROOT
ATOM      1  C   UNL     1     -36.248  23.735   4.084  0.00  0.00    +0.067 C 
ATOM      2  C   UNL     1     -35.373  23.660   5.186  0.00  0.00    +0.157 C 
ATOM      3  C   UNL     1     -36.313  24.949   3.371  0.00  0.00    +0.017 C 
ATOM      4  C   UNL     1     -34.593  24.754   5.559  0.00  0.00    +0.039 C 
ATOM      5  C   UNL     1     -34.674  25.946   4.839  0.00  0.00    +0.043 C 
ATOM      6  C   UNL     1     -35.534  26.043   3.744  0.00  0.00    +0.015 C 
ENDROOT
BRANCH   2   9
ATOM      7  O   UNL     1     -34.210  21.792   5.877  0.00  0.00    -0.126 OA
ATOM      8  O   UNL     1     -36.246  22.097   6.640  0.00  0.00    -0.126 OA
ATOM      9  N   UNL     1     -35.271  22.456   5.938  0.00  0.00    +0.059 N 
ENDBRANCH   2   9
BRANCH   5  10
ATOM     10  N   UNL     1     -33.886  27.054   5.216  0.00  0.00    -0.357 N 
ATOM     11  H   UNL     1     -33.690  27.217   6.167  0.00  0.00    +0.142 HD
ATOM     12  H   UNL     1     -33.533  27.663   4.529  0.00  0.00    +0.142 HD
ENDBRANCH   5  10
BRANCH   1  13
ATOM     13  N   UNL     1     -37.032  22.662   3.692  0.00  0.00    -0.330 N 
ATOM     14  H   UNL     1     -37.213  21.954   4.352  0.00  0.00    +0.147 HD
BRANCH  13  15
ATOM     15  C   UNL     1     -37.601  22.523   2.373  0.00  0.00    +0.113 C 
BRANCH  15  16
ATOM     16  C   UNL     1     -37.442  21.100   1.871  0.00  0.00    +0.179 C 
BRANCH  16  17
ATOM     17  S   UNL     1     -35.754  20.585   1.833  0.00  0.00    +0.024 S 
ATOM     18  O   UNL     1     -35.117  21.987   1.295  0.00  0.00    -0.069 OA
ATOM     19  O   UNL     1     -35.593  19.575   0.804  0.00  0.00    -0.069 OA
ATOM     20  O   UNL     1     -35.303  20.361   3.194  0.00  0.00    -0.069 OA
ENDBRANCH  16  17
ENDBRANCH  15  16
ENDBRANCH  13  15
ENDBRANCH   1  13
TORSDOF 6
ENDMDL
MODEL 3
REMARK VINA RESULT:      -5.2      5.242      6.540
REMARK  Name = 5748399
REMARK  6 active torsions:
REMARK  status: ('A' for Active; 'I' for Inactive)
REMARK    1  A    between atoms: C_1  and  N_13
REMARK    2  A    between atoms: C_2  and  N_9
REMARK    3  A    between atoms: C_5  and  N_10
REMARK    4  A    between atoms: N_13  and  C_15
REMARK    5  A    between atoms: C_15  and  C_16
REMARK    6  A    between atoms: C_16  and  S_17
REMARK                            x       y       z     vdW  Elec       q    Type
REMARK                         _______ _______ _______ _____ _____    ______ ____
ROOT
ATOM      1  C   UNL     1     -35.448  26.574   4.189  0.00  0.00    +0.067 C 
ATOM      2  C   UNL     1     -34.552  25.922   5.059  0.00  0.00    +0.157 C 
ATOM      3  C   UNL     1     -36.570  25.854   3.733  0.00  0.00    +0.017 C 
ATOM      4  C   UNL     1     -34.768  24.603   5.457  0.00  0.00    +0.039 C 
ATOM      5  C   UNL     1     -35.886  23.909   4.993  0.00  0.00    +0.043 C 
ATOM      6  C   UNL     1     -36.787  24.535   4.131  0.00  0.00    +0.015 C 
ENDROOT
BRANCH   2   9
ATOM      7  O   UNL     1     -33.324  26.858   6.773  0.00  0.00    -0.126 OA
ATOM      8  O   UNL     1     -32.506  26.937   4.737  0.00  0.00    -0.126 OA
ATOM      9  N   UNL     1     -33.403  26.607   5.548  0.00  0.00    +0.059 N 
ENDBRANCH   2   9
BRANCH   5  10
ATOM     10  N   UNL     1     -36.106  22.576   5.395  0.00  0.00    -0.357 N 
ATOM     11  H   UNL     1     -35.388  22.072   5.841  0.00  0.00    +0.142 HD
ATOM     12  H   UNL     1     -36.978  22.149   5.230  0.00  0.00    +0.142 HD
ENDBRANCH   5  10
BRANCH   1  13
ATOM     13  N   UNL     1     -35.256  27.883   3.779  0.00  0.00    -0.330 N 
ATOM     14  H   UNL     1     -35.252  28.589   4.465  0.00  0.00    +0.147 HD
BRANCH  13  15
ATOM     15  C   UNL     1     -35.060  28.272   2.403  0.00  0.00    +0.113 C 
BRANCH  15  16
ATOM     16  C   UNL     1     -33.843  29.169   2.270  0.00  0.00    +0.179 C 
BRANCH  16  17
ATOM     17  S   UNL     1     -33.999  30.659   3.205  0.00  0.00    +0.024 S 
ATOM     18  O   UNL     1     -33.191  30.162   4.532  0.00  0.00    -0.069 OA
ATOM     19  O   UNL     1     -35.394  30.851   3.554  0.00  0.00    -0.069 OA
ATOM     20  O   UNL     1     -33.228  31.702   2.554  0.00  0.00    -0.069 OA
ENDBRANCH  16  17
ENDBRANCH  15  16
ENDBRANCH  13  15
ENDBRANCH   1  13
TORSDOF 6
ENDMDL
MODEL 4
REMARK VINA RESULT:      -5.2      3.292      5.975
REMARK  Name = 5748399
REMARK  6 active torsions:
REMARK  status: ('A' for Active; 'I' for Inactive)
REMARK    1  A    between atoms: C_1  and  N_13
REMARK    2  A    between atoms: C_2  and  N_9
REMARK    3  A    between atoms: C_5  and  N_10
REMARK    4  A    between atoms: N_13  and  C_15
REMARK    5  A    between atoms: C_15  and  C_16
REMARK    6  A    between atoms: C_16  and  S_17
REMARK                            x       y       z     vdW  Elec       q    Type
REMARK                         _______ _______ _______ _____ _____    ______ ____
ROOT
ATOM      1  C   UNL     1     -36.696  22.809   3.386  0.00  0.00    +0.067 C 
ATOM      2  C   UNL     1     -37.743  22.438   2.519  0.00  0.00    +0.157 C 
ATOM      3  C   UNL     1     -35.596  21.935   3.509  0.00  0.00    +0.017 C 
ATOM      4  C   UNL     1     -37.693  21.243   1.803  0.00  0.00    +0.039 C 
ATOM      5  C   UNL     1     -36.596  20.393   1.940  0.00  0.00    +0.043 C 
ATOM      6  C   UNL     1     -35.547  20.739   2.792  0.00  0.00    +0.015 C 
ENDROOT
BRANCH   2   9
ATOM      7  O   UNL     1     -40.020  22.780   2.398  0.00  0.00    -0.126 OA
ATOM      8  O   UNL     1     -38.691  24.515   2.193  0.00  0.00    -0.126 OA
ATOM      9  N   UNL     1     -38.875  23.287   2.362  0.00  0.00    +0.059 N 
ENDBRANCH   2   9
BRANCH   5  10
ATOM     10  N   UNL     1     -36.545  19.184   1.215  0.00  0.00    -0.357 N 
ATOM     11  H   UNL     1     -37.338  18.871   0.723  0.00  0.00    +0.142 HD
ATOM     12  H   UNL     1     -35.716  18.653   1.202  0.00  0.00    +0.142 HD
ENDBRANCH   5  10
BRANCH   1  13
ATOM     13  N   UNL     1     -36.721  23.990   4.109  0.00  0.00    -0.330 N 
ATOM     14  H   UNL     1     -37.315  24.711   3.799  0.00  0.00    +0.147 HD
BRANCH  13  15
ATOM     15  C   UNL     1     -35.925  24.225   5.290  0.00  0.00    +0.113 C 
BRANCH  15  16
ATOM     16  C   UNL     1     -35.816  25.712   5.573  0.00  0.00    +0.179 C 
BRANCH  16  17
ATOM     17  S   UNL     1     -34.226  26.361   5.159  0.00  0.00    +0.024 S 
ATOM     18  O   UNL     1     -33.593  24.989   4.543  0.00  0.00    -0.069 OA
ATOM     19  O   UNL     1     -33.521  26.692   6.383  0.00  0.00    -0.069 OA
ATOM     20  O   UNL     1     -34.381  27.325   4.085  0.00  0.00    -0.069 OA
ENDBRANCH  16  17
ENDBRANCH  15  16
ENDBRANCH  13  15
ENDBRANCH   1  13
TORSDOF 6
ENDMDL
MODEL 5
REMARK VINA RESULT:      -5.1      5.248      6.512
REMARK  Name = 5748399
REMARK  6 active torsions:
REMARK  status: ('A' for Active; 'I' for Inactive)
REMARK    1  A    between atoms: C_1  and  N_13
REMARK    2  A    between atoms: C_2  and  N_9
REMARK    3  A    between atoms: C_5  and  N_10
REMARK    4  A    between atoms: N_13  and  C_15
REMARK    5  A    between atoms: C_15  and  C_16
REMARK    6  A    between atoms: C_16  and  S_17
REMARK                            x       y       z     vdW  Elec       q    Type
REMARK                         _______ _______ _______ _____ _____    ______ ____
ROOT
ATOM      1  C   UNL     1     -35.408  26.585   4.137  0.00  0.00    +0.067 C 
ATOM      2  C   UNL     1     -34.531  25.955   5.043  0.00  0.00    +0.157 C 
ATOM      3  C   UNL     1     -36.536  25.865   3.697  0.00  0.00    +0.017 C 
ATOM      4  C   UNL     1     -34.774  24.657   5.492  0.00  0.00    +0.039 C 
ATOM      5  C   UNL     1     -35.898  23.963   5.043  0.00  0.00    +0.043 C 
ATOM      6  C   UNL     1     -36.779  24.567   4.146  0.00  0.00    +0.015 C 
ENDROOT
BRANCH   2   9
ATOM      7  O   UNL     1     -32.481  26.952   4.698  0.00  0.00    -0.126 OA
ATOM      8  O   UNL     1     -33.294  26.914   6.736  0.00  0.00    -0.126 OA
ATOM      9  N   UNL     1     -33.377  26.641   5.516  0.00  0.00    +0.059 N 
ENDBRANCH   2   9
BRANCH   5  10
ATOM     10  N   UNL     1     -36.144  22.650   5.496  0.00  0.00    -0.357 N 
ATOM     11  H   UNL     1     -36.016  22.425   6.446  0.00  0.00    +0.142 HD
ATOM     12  H   UNL     1     -36.444  21.959   4.863  0.00  0.00    +0.142 HD
ENDBRANCH   5  10
BRANCH   1  13
ATOM     13  N   UNL     1     -35.189  27.873   3.676  0.00  0.00    -0.330 N 
ATOM     14  H   UNL     1     -35.100  28.595   4.340  0.00  0.00    +0.147 HD
BRANCH  13  15
ATOM     15  C   UNL     1     -35.084  28.218   2.278  0.00  0.00    +0.113 C 
BRANCH  15  16
ATOM     16  C   UNL     1     -34.018  29.278   2.069  0.00  0.00    +0.179 C 
BRANCH  16  17
ATOM     17  S   UNL     1     -34.054  30.524   3.321  0.00  0.00    +0.024 S 
ATOM     18  O   UNL     1     -33.350  31.714   2.454  0.00  0.00    -0.069 OA
ATOM     19  O   UNL     1     -33.158  30.137   4.394  0.00  0.00    -0.069 OA
ATOM     20  O   UNL     1     -35.435  30.889   3.577  0.00  0.00    -0.069 OA
ENDBRANCH  16  17
ENDBRANCH  15  16
ENDBRANCH  13  15
ENDBRANCH   1  13
TORSDOF 6
ENDMDL
MODEL 6
REMARK VINA RESULT:      -5.1      2.271      3.829
REMARK  Name = 5748399
REMARK  6 active torsions:
REMARK  status: ('A' for Active; 'I' for Inactive)
REMARK    1  A    between atoms: C_1  and  N_13
REMARK    2  A    between atoms: C_2  and  N_9
REMARK    3  A    between atoms: C_5  and  N_10
REMARK    4  A    between atoms: N_13  and  C_15
REMARK    5  A    between atoms: C_15  and  C_16
REMARK    6  A    between atoms: C_16  and  S_17
REMARK                            x       y       z     vdW  Elec       q    Type
REMARK                         _______ _______ _______ _____ _____    ______ ____
ROOT
ATOM      1  C   UNL     1     -36.498  23.600   3.997  0.00  0.00    +0.067 C 
ATOM      2  C   UNL     1     -36.927  24.940   4.083  0.00  0.00    +0.157 C 
ATOM      3  C   UNL     1     -35.254  23.265   4.566  0.00  0.00    +0.017 C 
ATOM      4  C   UNL     1     -36.143  25.905   4.714  0.00  0.00    +0.039 C 
ATOM      5  C   UNL     1     -34.914  25.551   5.271  0.00  0.00    +0.043 C 
ATOM      6  C   UNL     1     -34.469  24.230   5.197  0.00  0.00    +0.015 C 
ENDROOT
BRANCH   2   9
ATOM      7  O   UNL     1     -39.194  24.644   3.780  0.00  0.00    -0.126 OA
ATOM      8  O   UNL     1     -38.221  26.345   2.791  0.00  0.00    -0.126 OA
ATOM      9  N   UNL     1     -38.176  25.329   3.523  0.00  0.00    +0.059 N 
ENDBRANCH   2   9
BRANCH   5  10
ATOM     10  N   UNL     1     -34.120  26.527   5.909  0.00  0.00    -0.357 N 
ATOM     11  H   UNL     1     -33.578  26.284   6.693  0.00  0.00    +0.142 HD
ATOM     12  H   UNL     1     -34.108  27.451   5.568  0.00  0.00    +0.142 HD
ENDBRANCH   5  10
BRANCH   1  13
ATOM     13  N   UNL     1     -37.258  22.623   3.376  0.00  0.00    -0.330 N 
ATOM     14  H   UNL     1     -37.825  22.048   3.939  0.00  0.00    +0.147 HD
BRANCH  13  15
ATOM     15  C   UNL     1     -37.267  22.398   1.950  0.00  0.00    +0.113 C 
BRANCH  15  16
ATOM     16  C   UNL     1     -37.056  20.928   1.640  0.00  0.00    +0.179 C 
BRANCH  16  17
ATOM     17  S   UNL     1     -35.384  20.420   1.892  0.00  0.00    +0.024 S 
ATOM     18  O   UNL     1     -34.669  21.811   1.430  0.00  0.00    -0.069 OA
ATOM     19  O   UNL     1     -35.056  19.386   0.929  0.00  0.00    -0.069 OA
ATOM     20  O   UNL     1     -35.161  20.233   3.314  0.00  0.00    -0.069 OA
ENDBRANCH  16  17
ENDBRANCH  15  16
ENDBRANCH  13  15
ENDBRANCH   1  13
TORSDOF 6
ENDMDL
MODEL 7
REMARK VINA RESULT:      -5.1      3.564      5.340
REMARK  Name = 5748399
REMARK  6 active torsions:
REMARK  status: ('A' for Active; 'I' for Inactive)
REMARK    1  A    between atoms: C_1  and  N_13
REMARK    2  A    between atoms: C_2  and  N_9
REMARK    3  A    between atoms: C_5  and  N_10
REMARK    4  A    between atoms: N_13  and  C_15
REMARK    5  A    between atoms: C_15  and  C_16
REMARK    6  A    between atoms: C_16  and  S_17
REMARK                            x       y       z     vdW  Elec       q    Type
REMARK                         _______ _______ _______ _____ _____    ______ ____
ROOT
ATOM      1  C   UNL     1     -36.664  23.003   3.628  0.00  0.00    +0.067 C 
ATOM      2  C   UNL     1     -35.813  22.026   4.182  0.00  0.00    +0.157 C 
ATOM      3  C   UNL     1     -37.099  22.826   2.299  0.00  0.00    +0.017 C 
ATOM      4  C   UNL     1     -35.414  20.916   3.438  0.00  0.00    +0.039 C 
ATOM      5  C   UNL     1     -35.857  20.761   2.124  0.00  0.00    +0.043 C 
ATOM      6  C   UNL     1     -36.700  21.717   1.555  0.00  0.00    +0.015 C 
ENDROOT
BRANCH   2   9
ATOM      7  O   UNL     1     -34.116  22.294   5.721  0.00  0.00    -0.126 OA
ATOM      8  O   UNL     1     -36.179  22.141   6.456  0.00  0.00    -0.126 OA
ATOM      9  N   UNL     1     -35.346  22.160   5.520  0.00  0.00    +0.059 N 
ENDBRANCH   2   9
BRANCH   5  10
ATOM     10  N   UNL     1     -35.453  19.639   1.371  0.00  0.00    -0.357 N 
ATOM     11  H   UNL     1     -35.105  18.840   1.827  0.00  0.00    +0.142 HD
ATOM     12  H   UNL     1     -35.521  19.656   0.389  0.00  0.00    +0.142 HD
ENDBRANCH   5  10
BRANCH   1  13
ATOM     13  N   UNL     1     -37.075  24.114   4.345  0.00  0.00    -0.330 N 
ATOM     14  H   UNL     1     -37.829  24.011   4.970  0.00  0.00    +0.147 HD
BRANCH  13  15
ATOM     15  C   UNL     1     -36.461  25.416   4.231  0.00  0.00    +0.113 C 
BRANCH  15  16
ATOM     16  C   UNL     1     -35.734  25.777   5.514  0.00  0.00    +0.179 C 
BRANCH  16  17
ATOM     17  S   UNL     1     -34.051  26.232   5.228  0.00  0.00    +0.024 S 
ATOM     18  O   UNL     1     -34.338  27.472   4.208  0.00  0.00    -0.069 OA
ATOM     19  O   UNL     1     -33.394  25.167   4.494  0.00  0.00    -0.069 OA
ATOM     20  O   UNL     1     -33.495  26.762   6.460  0.00  0.00    -0.069 OA
ENDBRANCH  16  17
ENDBRANCH  15  16
ENDBRANCH  13  15
ENDBRANCH   1  13
TORSDOF 6
ENDMDL
MODEL 8
REMARK VINA RESULT:      -5.1      2.160      2.972
REMARK  Name = 5748399
REMARK  6 active torsions:
REMARK  status: ('A' for Active; 'I' for Inactive)
REMARK    1  A    between atoms: C_1  and  N_13
REMARK    2  A    between atoms: C_2  and  N_9
REMARK    3  A    between atoms: C_5  and  N_10
REMARK    4  A    between atoms: N_13  and  C_15
REMARK    5  A    between atoms: C_15  and  C_16
REMARK    6  A    between atoms: C_16  and  S_17
REMARK                            x       y       z     vdW  Elec       q    Type
REMARK                         _______ _______ _______ _____ _____    ______ ____
ROOT
ATOM      1  C   UNL     1     -36.613  23.513   3.873  0.00  0.00    +0.067 C 
ATOM      2  C   UNL     1     -37.051  24.843   4.031  0.00  0.00    +0.157 C 
ATOM      3  C   UNL     1     -35.383  23.147   4.456  0.00  0.00    +0.017 C 
ATOM      4  C   UNL     1     -36.291  25.769   4.743  0.00  0.00    +0.039 C 
ATOM      5  C   UNL     1     -35.076  25.385   5.312  0.00  0.00    +0.043 C 
ATOM      6  C   UNL     1     -34.623  24.073   5.169  0.00  0.00    +0.015 C 
ENDROOT
BRANCH   2   9
ATOM      7  O   UNL     1     -38.317  26.325   2.798  0.00  0.00    -0.126 OA
ATOM      8  O   UNL     1     -39.305  24.553   3.636  0.00  0.00    -0.126 OA
ATOM      9  N   UNL     1     -38.286  25.261   3.460  0.00  0.00    +0.059 N 
ENDBRANCH   2   9
BRANCH   5  10
ATOM     10  N   UNL     1     -34.307  26.322   6.033  0.00  0.00    -0.357 N 
ATOM     11  H   UNL     1     -33.844  27.049   5.558  0.00  0.00    +0.142 HD
ATOM     12  H   UNL     1     -34.234  26.249   7.012  0.00  0.00    +0.142 HD
ENDBRANCH   5  10
BRANCH   1  13
ATOM     13  N   UNL     1     -37.349  22.573   3.170  0.00  0.00    -0.330 N 
ATOM     14  H   UNL     1     -38.250  22.348   3.499  0.00  0.00    +0.147 HD
BRANCH  13  15
ATOM     15  C   UNL     1     -36.873  21.905   1.983  0.00  0.00    +0.113 C 
BRANCH  15  16
ATOM     16  C   UNL     1     -37.857  20.838   1.540  0.00  0.00    +0.179 C 
BRANCH  16  17
ATOM     17  S   UNL     1     -39.394  21.522   1.002  0.00  0.00    +0.024 S 
ATOM     18  O   UNL     1     -40.176  21.433   2.431  0.00  0.00    -0.069 OA
ATOM     19  O   UNL     1     -40.018  20.601   0.071  0.00  0.00    -0.069 OA
ATOM     20  O   UNL     1     -39.191  22.920   0.668  0.00  0.00    -0.069 OA
ENDBRANCH  16  17
ENDBRANCH  15  16
ENDBRANCH  13  15
ENDBRANCH   1  13
TORSDOF 6
ENDMDL
MODEL 9
REMARK VINA RESULT:      -5.0      2.633      3.693
REMARK  Name = 5748399
REMARK  6 active torsions:
REMARK  status: ('A' for Active; 'I' for Inactive)
REMARK    1  A    between atoms: C_1  and  N_13
REMARK    2  A    between atoms: C_2  and  N_9
REMARK    3  A    between atoms: C_5  and  N_10
REMARK    4  A    between atoms: N_13  and  C_15
REMARK    5  A    between atoms: C_15  and  C_16
REMARK    6  A    between atoms: C_16  and  S_17
REMARK                            x       y       z     vdW  Elec       q    Type
REMARK                         _______ _______ _______ _____ _____    ______ ____
ROOT
ATOM      1  C   UNL     1     -35.239  24.320   3.291  0.00  0.00    +0.067 C 
ATOM      2  C   UNL     1     -34.943  24.517   4.654  0.00  0.00    +0.157 C 
ATOM      3  C   UNL     1     -35.571  23.017   2.867  0.00  0.00    +0.017 C 
ATOM      4  C   UNL     1     -34.977  23.456   5.557  0.00  0.00    +0.039 C 
ATOM      5  C   UNL     1     -35.308  22.174   5.116  0.00  0.00    +0.043 C 
ATOM      6  C   UNL     1     -35.606  21.955   3.770  0.00  0.00    +0.015 C 
ENDROOT
BRANCH   2   9
ATOM      7  O   UNL     1     -33.417  26.041   5.473  0.00  0.00    -0.126 OA
ATOM      8  O   UNL     1     -35.495  26.690   5.193  0.00  0.00    -0.126 OA
ATOM      9  N   UNL     1     -34.601  25.814   5.131  0.00  0.00    +0.059 N 
ENDBRANCH   2   9
BRANCH   5  10
ATOM     10  N   UNL     1     -35.344  21.100   6.029  0.00  0.00    -0.357 N 
ATOM     11  H   UNL     1     -34.736  21.092   6.803  0.00  0.00    +0.142 HD
ATOM     12  H   UNL     1     -35.977  20.359   5.892  0.00  0.00    +0.142 HD
ENDBRANCH   5  10
BRANCH   1  13
ATOM     13  N   UNL     1     -35.211  25.357   2.373  0.00  0.00    -0.330 N 
ATOM     14  H   UNL     1     -34.390  25.896   2.306  0.00  0.00    +0.147 HD
BRANCH  13  15
ATOM     15  C   UNL     1     -36.317  25.693   1.509  0.00  0.00    +0.113 C 
BRANCH  15  16
ATOM     16  C   UNL     1     -37.406  26.408   2.289  0.00  0.00    +0.179 C 
BRANCH  16  17
ATOM     17  S   UNL     1     -38.815  25.382   2.571  0.00  0.00    +0.024 S 
ATOM     18  O   UNL     1     -39.884  26.573   2.888  0.00  0.00    -0.069 OA
ATOM     19  O   UNL     1     -38.602  24.612   3.781  0.00  0.00    -0.069 OA
ATOM     20  O   UNL     1     -39.187  24.745   1.320  0.00  0.00    -0.069 OA
ENDBRANCH  16  17
ENDBRANCH  15  16
ENDBRANCH  13  15
ENDBRANCH   1  13
TORSDOF 6
ENDMDL
