MODEL 1
REMARK VINA RESULT:      -6.8      0.000      0.000
REMARK  Name = 194902
REMARK  14 active torsions:
REMARK  status: ('A' for Active; 'I' for Inactive)
REMARK    1  A    between atoms: C_3  and  O_31
REMARK    2  A    between atoms: C_6  and  O_27
REMARK    3  A    between atoms: C_8  and  O_29
REMARK    4  A    between atoms: C_10  and  C_12
REMARK    5  A    between atoms: C_15  and  O_18
REMARK    6  A    between atoms: C_17  and  O_20
REMARK    7  A    between atoms: O_20  and  P_21
REMARK    8  A    between atoms: P_21  and  O_23
REMARK    9  A    between atoms: P_21  and  O_25
REMARK   10  A    between atoms: O_31  and  C_32
REMARK   11  A    between atoms: C_32  and  C_33
REMARK   12  A    between atoms: C_33  and  C_34
REMARK   13  A    between atoms: C_34  and  C_35
REMARK   14  A    between atoms: C_35  and  C_36
REMARK                            x       y       z     vdW  Elec       q    Type
REMARK                         _______ _______ _______ _____ _____    ______ ____
ROOT
ATOM      1  O   UNL     1     -36.104  25.965   4.053  0.00  0.00    -0.453 OA
ATOM      2  O   UNL     1     -35.422  21.977   3.578  0.00  0.00    -0.286 OA
ATOM      3  C   UNL     1     -37.937  23.028   2.765  0.00  0.00    +0.181 C 
ATOM      4  C   UNL     1     -36.910  23.794   3.322  0.00  0.00    +0.111 C 
ATOM      5  C   UNL     1     -37.077  25.165   3.512  0.00  0.00    +0.154 C 
ATOM      6  C   UNL     1     -39.134  23.645   2.397  0.00  0.00    +0.206 C 
ATOM      7  C   UNL     1     -35.637  23.173   3.718  0.00  0.00    +0.205 C 
ATOM      8  C   UNL     1     -39.302  25.017   2.586  0.00  0.00    +0.178 C 
ATOM      9  C   UNL     1     -38.275  25.779   3.143  0.00  0.00    +0.078 C 
ATOM     10  C   UNL     1     -34.906  25.381   4.436  0.00  0.00    +0.149 C 
ATOM     11  C   UNL     1     -34.623  24.076   4.299  0.00  0.00    +0.080 C 
ENDROOT
BRANCH  10  12
ATOM     12  C   UNL     1     -33.928  26.332   5.001  0.00  0.00    +0.038 C 
ATOM     13  C   UNL     1     -33.263  27.229   4.165  0.00  0.00    +0.043 C 
ATOM     14  C   UNL     1     -33.667  26.333   6.372  0.00  0.00    +0.006 C 
ATOM     15  C   UNL     1     -32.339  28.128   4.700  0.00  0.00    +0.168 C 
ATOM     16  C   UNL     1     -32.743  27.230   6.906  0.00  0.00    +0.041 C 
ATOM     17  C   UNL     1     -32.079  28.128   6.070  0.00  0.00    +0.182 C 
BRANCH  15  18
ATOM     18  O   UNL     1     -31.696  28.999   3.873  0.00  0.00    -0.503 OA
ATOM     19  H   UNL     1     -32.087  29.248   3.059  0.00  0.00    +0.292 HD
ENDBRANCH  15  18
BRANCH  17  20
ATOM     20  O   UNL     1     -31.181  29.001   6.603  0.00  0.00    -0.400 OA
BRANCH  20  21
ATOM     21  P   UNL     1     -29.573  28.820   6.573  0.00  0.00    +0.528 P 
ATOM     22  O   UNL     1     -28.894  29.324   5.332  0.00  0.00    -0.216 OA
BRANCH  21  23
ATOM     23  O   UNL     1     -29.388  27.233   6.838  0.00  0.00    -0.293 OA
ATOM     24  H   UNL     1     -30.084  26.924   7.439  0.00  0.00    +0.223 HD
ENDBRANCH  21  23
BRANCH  21  25
ATOM     25  O   UNL     1     -29.073  29.479   7.963  0.00  0.00    -0.293 OA
ATOM     26  H   UNL     1     -28.224  29.928   7.820  0.00  0.00    +0.223 HD
ENDBRANCH  21  25
ENDBRANCH  20  21
ENDBRANCH  17  20
ENDBRANCH  10  12
BRANCH   6  27
ATOM     27  O   UNL     1     -40.143  22.908   1.852  0.00  0.00    -0.465 OA
ATOM     28  C   UNL     1     -40.333  23.016   0.443  0.00  0.00    +0.253 C 
ENDBRANCH   6  27
BRANCH   8  29
ATOM     29  O   UNL     1     -40.468  25.627   2.231  0.00  0.00    -0.468 OA
ATOM     30  C   UNL     1     -41.186  26.303   3.262  0.00  0.00    +0.253 C 
ENDBRANCH   8  29
BRANCH   3  31
ATOM     31  O   UNL     1     -37.809  21.678   2.564  0.00  0.00    -0.472 OA
BRANCH  31  32
ATOM     32  C   UNL     1     -37.406  21.259   1.267  0.00  0.00    +0.206 C 
BRANCH  32  33
ATOM     33  C   UNL     1     -36.608  19.968   1.395  0.00  0.00    +0.047 C 
BRANCH  33  34
ATOM     34  C   UNL     1     -35.264  20.065   0.675  0.00  0.00    +0.004 C 
BRANCH  34  35
ATOM     35  C   UNL     1     -34.094  19.511   1.491  0.00  0.00    +0.000 C 
BRANCH  35  36
ATOM     36  C   UNL     1     -33.496  18.231   0.906  0.00  0.00    +0.000 C 
ATOM     37  C   UNL     1     -32.003  18.138   1.185  0.00  0.00    +0.000 C 
ENDBRANCH  35  36
ENDBRANCH  34  35
ENDBRANCH  33  34
ENDBRANCH  32  33
ENDBRANCH  31  32
ENDBRANCH   3  31
TORSDOF 14
ENDMDL
MODEL 2
REMARK VINA RESULT:      -6.3      1.327      5.063
REMARK  Name = 194902
REMARK  14 active torsions:
REMARK  status: ('A' for Active; 'I' for Inactive)
REMARK    1  A    between atoms: C_3  and  O_31
REMARK    2  A    between atoms: C_6  and  O_27
REMARK    3  A    between atoms: C_8  and  O_29
REMARK    4  A    between atoms: C_10  and  C_12
REMARK    5  A    between atoms: C_15  and  O_18
REMARK    6  A    between atoms: C_17  and  O_20
REMARK    7  A    between atoms: O_20  and  P_21
REMARK    8  A    between atoms: P_21  and  O_23
REMARK    9  A    between atoms: P_21  and  O_25
REMARK   10  A    between atoms: O_31  and  C_32
REMARK   11  A    between atoms: C_32  and  C_33
REMARK   12  A    between atoms: C_33  and  C_34
REMARK   13  A    between atoms: C_34  and  C_35
REMARK   14  A    between atoms: C_35  and  C_36
REMARK                            x       y       z     vdW  Elec       q    Type
REMARK                         _______ _______ _______ _____ _____    ______ ____
ROOT
ATOM      1  O   UNL     1     -34.539  24.716   4.050  0.00  0.00    -0.453 OA
ATOM      2  O   UNL     1     -37.825  26.390   2.320  0.00  0.00    -0.286 OA
ATOM      3  C   UNL     1     -37.503  23.567   2.169  0.00  0.00    +0.181 C 
ATOM      4  C   UNL     1     -36.601  24.427   2.802  0.00  0.00    +0.111 C 
ATOM      5  C   UNL     1     -35.457  23.920   3.414  0.00  0.00    +0.154 C 
ATOM      6  C   UNL     1     -37.251  22.195   2.154  0.00  0.00    +0.206 C 
ATOM      7  C   UNL     1     -36.841  25.878   2.835  0.00  0.00    +0.205 C 
ATOM      8  C   UNL     1     -36.105  21.686   2.767  0.00  0.00    +0.178 C 
ATOM      9  C   UNL     1     -35.207  22.547   3.399  0.00  0.00    +0.078 C 
ATOM     10  C   UNL     1     -34.757  26.085   4.075  0.00  0.00    +0.149 C 
ATOM     11  C   UNL     1     -35.822  26.692   3.528  0.00  0.00    +0.080 C 
ENDROOT
BRANCH  10  12
ATOM     12  C   UNL     1     -33.712  26.847   4.788  0.00  0.00    +0.038 C 
ATOM     13  C   UNL     1     -32.943  27.787   4.103  0.00  0.00    +0.043 C 
ATOM     14  C   UNL     1     -33.493  26.625   6.149  0.00  0.00    +0.006 C 
ATOM     15  C   UNL     1     -31.956  28.507   4.777  0.00  0.00    +0.168 C 
ATOM     16  C   UNL     1     -32.506  27.344   6.822  0.00  0.00    +0.041 C 
ATOM     17  C   UNL     1     -31.738  28.286   6.136  0.00  0.00    +0.182 C 
BRANCH  15  18
ATOM     18  O   UNL     1     -31.211  29.422   4.096  0.00  0.00    -0.503 OA
ATOM     19  H   UNL     1     -31.015  29.287   3.191  0.00  0.00    +0.292 HD
ENDBRANCH  15  18
BRANCH  17  20
ATOM     20  O   UNL     1     -30.778  28.983   6.806  0.00  0.00    -0.400 OA
BRANCH  20  21
ATOM     21  P   UNL     1     -29.192  28.670   6.755  0.00  0.00    +0.528 P 
ATOM     22  O   UNL     1     -28.483  29.147   5.520  0.00  0.00    -0.216 OA
BRANCH  21  23
ATOM     23  O   UNL     1     -29.137  27.068   6.981  0.00  0.00    -0.293 OA
ATOM     24  H   UNL     1     -28.381  26.699   6.496  0.00  0.00    +0.223 HD
ENDBRANCH  21  23
BRANCH  21  25
ATOM     25  O   UNL     1     -28.628  29.252   8.156  0.00  0.00    -0.293 OA
ATOM     26  H   UNL     1     -28.080  30.035   7.983  0.00  0.00    +0.223 HD
ENDBRANCH  21  25
ENDBRANCH  20  21
ENDBRANCH  17  20
ENDBRANCH  10  12
BRANCH   6  27
ATOM     27  O   UNL     1     -38.123  21.346   1.540  0.00  0.00    -0.465 OA
ATOM     28  C   UNL     1     -37.895  21.073   0.160  0.00  0.00    +0.253 C 
ENDBRANCH   6  27
BRANCH   8  29
ATOM     29  O   UNL     1     -35.851  20.347   2.757  0.00  0.00    -0.468 OA
ATOM     30  C   UNL     1     -34.769  19.899   1.942  0.00  0.00    +0.253 C 
ENDBRANCH   8  29
BRANCH   3  31
ATOM     31  O   UNL     1     -38.639  24.029   1.555  0.00  0.00    -0.472 OA
BRANCH  31  32
ATOM     32  C   UNL     1     -39.855  23.903   2.280  0.00  0.00    +0.206 C 
BRANCH  32  33
ATOM     33  C   UNL     1     -40.987  24.489   1.447  0.00  0.00    +0.047 C 
BRANCH  33  34
ATOM     34  C   UNL     1     -41.223  25.961   1.778  0.00  0.00    +0.004 C 
BRANCH  34  35
ATOM     35  C   UNL     1     -41.176  26.264   3.277  0.00  0.00    +0.000 C 
BRANCH  35  36
ATOM     36  C   UNL     1     -42.507  26.762   3.840  0.00  0.00    +0.000 C 
ATOM     37  C   UNL     1     -42.643  28.270   3.691  0.00  0.00    +0.000 C 
ENDBRANCH  35  36
ENDBRANCH  34  35
ENDBRANCH  33  34
ENDBRANCH  32  33
ENDBRANCH  31  32
ENDBRANCH   3  31
TORSDOF 14
ENDMDL
MODEL 3
REMARK VINA RESULT:      -6.2      4.448      8.702
REMARK  Name = 194902
REMARK  14 active torsions:
REMARK  status: ('A' for Active; 'I' for Inactive)
REMARK    1  A    between atoms: C_3  and  O_31
REMARK    2  A    between atoms: C_6  and  O_27
REMARK    3  A    between atoms: C_8  and  O_29
REMARK    4  A    between atoms: C_10  and  C_12
REMARK    5  A    between atoms: C_15  and  O_18
REMARK    6  A    between atoms: C_17  and  O_20
REMARK    7  A    between atoms: O_20  and  P_21
REMARK    8  A    between atoms: P_21  and  O_23
REMARK    9  A    between atoms: P_21  and  O_25
REMARK   10  A    between atoms: O_31  and  C_32
REMARK   11  A    between atoms: C_32  and  C_33
REMARK   12  A    between atoms: C_33  and  C_34
REMARK   13  A    between atoms: C_34  and  C_35
REMARK   14  A    between atoms: C_35  and  C_36
REMARK                            x       y       z     vdW  Elec       q    Type
REMARK                         _______ _______ _______ _____ _____    ______ ____
ROOT
ATOM      1  O   UNL     1     -33.660  19.281   1.323  0.00  0.00    -0.453 OA
ATOM      2  O   UNL     1     -36.561  17.658  -1.033  0.00  0.00    -0.286 OA
ATOM      3  C   UNL     1     -34.075  16.292  -0.808  0.00  0.00    +0.181 C 
ATOM      4  C   UNL     1     -34.371  17.494  -0.160  0.00  0.00    +0.111 C 
ATOM      5  C   UNL     1     -33.424  18.102   0.662  0.00  0.00    +0.154 C 
ATOM      6  C   UNL     1     -32.823  15.703  -0.627  0.00  0.00    +0.206 C 
ATOM      7  C   UNL     1     -35.682  18.138  -0.329  0.00  0.00    +0.205 C 
ATOM      8  C   UNL     1     -31.874  16.311   0.195  0.00  0.00    +0.178 C 
ATOM      9  C   UNL     1     -32.173  17.511   0.841  0.00  0.00    +0.078 C 
ATOM     10  C   UNL     1     -34.892  19.895   1.158  0.00  0.00    +0.149 C 
ATOM     11  C   UNL     1     -35.886  19.405   0.400  0.00  0.00    +0.080 C 
ENDROOT
BRANCH  10  12
ATOM     12  C   UNL     1     -35.042  21.153   1.917  0.00  0.00    +0.038 C 
ATOM     13  C   UNL     1     -35.559  21.129   3.213  0.00  0.00    +0.043 C 
ATOM     14  C   UNL     1     -34.668  22.367   1.338  0.00  0.00    +0.006 C 
ATOM     15  C   UNL     1     -35.700  22.318   3.929  0.00  0.00    +0.168 C 
ATOM     16  C   UNL     1     -34.810  23.554   2.054  0.00  0.00    +0.041 C 
ATOM     17  C   UNL     1     -35.326  23.530   3.350  0.00  0.00    +0.182 C 
BRANCH  15  18
ATOM     18  O   UNL     1     -36.206  22.282   5.193  0.00  0.00    -0.503 OA
ATOM     19  H   UNL     1     -35.915  22.900   5.833  0.00  0.00    +0.292 HD
ENDBRANCH  15  18
BRANCH  17  20
ATOM     20  O   UNL     1     -35.457  24.697   4.040  0.00  0.00    -0.400 OA
BRANCH  20  21
ATOM     21  P   UNL     1     -36.717  25.707   3.932  0.00  0.00    +0.528 P 
ATOM     22  O   UNL     1     -36.822  26.467   2.642  0.00  0.00    -0.216 OA
BRANCH  21  23
ATOM     23  O   UNL     1     -36.541  26.638   5.245  0.00  0.00    -0.293 OA
ATOM     24  H   UNL     1     -35.690  27.102   5.199  0.00  0.00    +0.223 HD
ENDBRANCH  21  23
BRANCH  21  25
ATOM     25  O   UNL     1     -37.994  24.788   4.310  0.00  0.00    -0.293 OA
ATOM     26  H   UNL     1     -37.928  24.509   5.238  0.00  0.00    +0.223 HD
ENDBRANCH  21  25
ENDBRANCH  20  21
ENDBRANCH  17  20
ENDBRANCH  10  12
BRANCH   6  27
ATOM     27  O   UNL     1     -32.522  14.530  -1.255  0.00  0.00    -0.465 OA
ATOM     28  C   UNL     1     -31.907  14.623  -2.537  0.00  0.00    +0.253 C 
ENDBRANCH   6  27
BRANCH   8  29
ATOM     29  O   UNL     1     -30.649  15.743   0.376  0.00  0.00    -0.468 OA
ATOM     30  C   UNL     1     -29.511  16.537   0.045  0.00  0.00    +0.253 C 
ENDBRANCH   8  29
BRANCH   3  31
ATOM     31  O   UNL     1     -34.981  15.665  -1.624  0.00  0.00    -0.472 OA
BRANCH  31  32
ATOM     32  C   UNL     1     -35.600  14.492  -1.112  0.00  0.00    +0.206 C 
BRANCH  32  33
ATOM     33  C   UNL     1     -36.425  13.849  -2.218  0.00  0.00    +0.047 C 
BRANCH  33  34
ATOM     34  C   UNL     1     -37.713  14.627  -2.482  0.00  0.00    +0.004 C 
BRANCH  34  35
ATOM     35  C   UNL     1     -38.872  14.215  -1.571  0.00  0.00    +0.000 C 
BRANCH  35  36
ATOM     36  C   UNL     1     -39.339  15.333  -0.638  0.00  0.00    +0.000 C 
ATOM     37  C   UNL     1     -39.891  16.514  -1.421  0.00  0.00    +0.000 C 
ENDBRANCH  35  36
ENDBRANCH  34  35
ENDBRANCH  33  34
ENDBRANCH  32  33
ENDBRANCH  31  32
ENDBRANCH   3  31
TORSDOF 14
ENDMDL
MODEL 4
REMARK VINA RESULT:      -6.1      1.464      4.261
REMARK  Name = 194902
REMARK  14 active torsions:
REMARK  status: ('A' for Active; 'I' for Inactive)
REMARK    1  A    between atoms: C_3  and  O_31
REMARK    2  A    between atoms: C_6  and  O_27
REMARK    3  A    between atoms: C_8  and  O_29
REMARK    4  A    between atoms: C_10  and  C_12
REMARK    5  A    between atoms: C_15  and  O_18
REMARK    6  A    between atoms: C_17  and  O_20
REMARK    7  A    between atoms: O_20  and  P_21
REMARK    8  A    between atoms: P_21  and  O_23
REMARK    9  A    between atoms: P_21  and  O_25
REMARK   10  A    between atoms: O_31  and  C_32
REMARK   11  A    between atoms: C_32  and  C_33
REMARK   12  A    between atoms: C_33  and  C_34
REMARK   13  A    between atoms: C_34  and  C_35
REMARK   14  A    between atoms: C_35  and  C_36
REMARK                            x       y       z     vdW  Elec       q    Type
REMARK                         _______ _______ _______ _____ _____    ______ ____
ROOT
ATOM      1  O   UNL     1     -34.525  24.387   3.543  0.00  0.00    -0.453 OA
ATOM      2  O   UNL     1     -38.544  24.785   4.081  0.00  0.00    -0.286 OA
ATOM      3  C   UNL     1     -37.598  22.632   2.481  0.00  0.00    +0.181 C 
ATOM      4  C   UNL     1     -36.770  23.572   3.100  0.00  0.00    +0.111 C 
ATOM      5  C   UNL     1     -35.385  23.493   2.957  0.00  0.00    +0.154 C 
ATOM      6  C   UNL     1     -37.029  21.611   1.718  0.00  0.00    +0.206 C 
ATOM      7  C   UNL     1     -37.339  24.658   3.912  0.00  0.00    +0.205 C 
ATOM      8  C   UNL     1     -35.644  21.531   1.574  0.00  0.00    +0.178 C 
ATOM      9  C   UNL     1     -34.820  22.471   2.194  0.00  0.00    +0.078 C 
ATOM     10  C   UNL     1     -35.059  25.417   4.301  0.00  0.00    +0.149 C 
ATOM     11  C   UNL     1     -36.372  25.596   4.518  0.00  0.00    +0.080 C 
ENDROOT
BRANCH  10  12
ATOM     12  C   UNL     1     -34.046  26.318   4.889  0.00  0.00    +0.038 C 
ATOM     13  C   UNL     1     -33.357  27.218   4.076  0.00  0.00    +0.043 C 
ATOM     14  C   UNL     1     -33.779  26.268   6.257  0.00  0.00    +0.006 C 
ATOM     15  C   UNL     1     -32.401  28.068   4.632  0.00  0.00    +0.168 C 
ATOM     16  C   UNL     1     -32.822  27.117   6.812  0.00  0.00    +0.041 C 
ATOM     17  C   UNL     1     -32.134  28.018   5.999  0.00  0.00    +0.182 C 
BRANCH  15  18
ATOM     18  O   UNL     1     -31.733  28.942   3.828  0.00  0.00    -0.503 OA
ATOM     19  H   UNL     1     -32.195  29.414   3.163  0.00  0.00    +0.292 HD
ENDBRANCH  15  18
BRANCH  17  20
ATOM     20  O   UNL     1     -31.203  28.844   6.554  0.00  0.00    -0.400 OA
BRANCH  20  21
ATOM     21  P   UNL     1     -29.602  28.618   6.495  0.00  0.00    +0.528 P 
ATOM     22  O   UNL     1     -28.951  28.975   5.190  0.00  0.00    -0.216 OA
BRANCH  21  23
ATOM     23  O   UNL     1     -29.446  27.063   6.917  0.00  0.00    -0.293 OA
ATOM     24  H   UNL     1     -28.508  26.816   6.899  0.00  0.00    +0.223 HD
ENDBRANCH  21  23
BRANCH  21  25
ATOM     25  O   UNL     1     -29.044  29.402   7.795  0.00  0.00    -0.293 OA
ATOM     26  H   UNL     1     -29.733  29.996   8.135  0.00  0.00    +0.223 HD
ENDBRANCH  21  25
ENDBRANCH  20  21
ENDBRANCH  17  20
ENDBRANCH  10  12
BRANCH   6  27
ATOM     27  O   UNL     1     -37.827  20.688   1.109  0.00  0.00    -0.465 OA
ATOM     28  C   UNL     1     -37.820  20.668  -0.316  0.00  0.00    +0.253 C 
ENDBRANCH   6  27
BRANCH   8  29
ATOM     29  O   UNL     1     -35.081  20.538   0.830  0.00  0.00    -0.468 OA
ATOM     30  C   UNL     1     -34.230  19.619   1.513  0.00  0.00    +0.253 C 
ENDBRANCH   8  29
BRANCH   3  31
ATOM     31  O   UNL     1     -38.963  22.678   2.599  0.00  0.00    -0.472 OA
BRANCH  31  32
ATOM     32  C   UNL     1     -39.700  22.925   1.408  0.00  0.00    +0.206 C 
BRANCH  32  33
ATOM     33  C   UNL     1     -40.096  24.395   1.372  0.00  0.00    +0.047 C 
BRANCH  33  34
ATOM     34  C   UNL     1     -39.260  25.176   0.359  0.00  0.00    +0.004 C 
BRANCH  34  35
ATOM     35  C   UNL     1     -38.572  26.406   0.956  0.00  0.00    +0.000 C 
BRANCH  35  36
ATOM     36  C   UNL     1     -37.068  26.454   0.684  0.00  0.00    +0.000 C 
ATOM     37  C   UNL     1     -36.397  27.568   1.474  0.00  0.00    +0.000 C 
ENDBRANCH  35  36
ENDBRANCH  34  35
ENDBRANCH  33  34
ENDBRANCH  32  33
ENDBRANCH  31  32
ENDBRANCH   3  31
TORSDOF 14
ENDMDL
MODEL 5
REMARK VINA RESULT:      -6.1      4.652      8.668
REMARK  Name = 194902
REMARK  14 active torsions:
REMARK  status: ('A' for Active; 'I' for Inactive)
REMARK    1  A    between atoms: C_3  and  O_31
REMARK    2  A    between atoms: C_6  and  O_27
REMARK    3  A    between atoms: C_8  and  O_29
REMARK    4  A    between atoms: C_10  and  C_12
REMARK    5  A    between atoms: C_15  and  O_18
REMARK    6  A    between atoms: C_17  and  O_20
REMARK    7  A    between atoms: O_20  and  P_21
REMARK    8  A    between atoms: P_21  and  O_23
REMARK    9  A    between atoms: P_21  and  O_25
REMARK   10  A    between atoms: O_31  and  C_32
REMARK   11  A    between atoms: C_32  and  C_33
REMARK   12  A    between atoms: C_33  and  C_34
REMARK   13  A    between atoms: C_34  and  C_35
REMARK   14  A    between atoms: C_35  and  C_36
REMARK                            x       y       z     vdW  Elec       q    Type
REMARK                         _______ _______ _______ _____ _____    ______ ____
ROOT
ATOM      1  O   UNL     1     -35.968  21.681   0.678  0.00  0.00    -0.453 OA
ATOM      2  O   UNL     1     -35.778  22.356   4.691  0.00  0.00    -0.286 OA
ATOM      3  C   UNL     1     -37.321  24.131   3.090  0.00  0.00    +0.181 C 
ATOM      4  C   UNL     1     -36.616  23.033   2.589  0.00  0.00    +0.111 C 
ATOM      5  C   UNL     1     -36.639  22.745   1.225  0.00  0.00    +0.154 C 
ATOM      6  C   UNL     1     -38.050  24.938   2.216  0.00  0.00    +0.206 C 
ATOM      7  C   UNL     1     -35.840  22.163   3.485  0.00  0.00    +0.205 C 
ATOM      8  C   UNL     1     -38.073  24.651   0.851  0.00  0.00    +0.178 C 
ATOM      9  C   UNL     1     -37.370  23.554   0.354  0.00  0.00    +0.078 C 
ATOM     10  C   UNL     1     -35.228  20.865   1.519  0.00  0.00    +0.149 C 
ATOM     11  C   UNL     1     -35.133  21.034   2.848  0.00  0.00    +0.080 C 
ENDROOT
BRANCH  10  12
ATOM     12  C   UNL     1     -34.550  19.748   0.829  0.00  0.00    +0.038 C 
ATOM     13  C   UNL     1     -33.485  19.091   1.444  0.00  0.00    +0.043 C 
ATOM     14  C   UNL     1     -34.976  19.351  -0.440  0.00  0.00    +0.006 C 
ATOM     15  C   UNL     1     -32.845  18.036   0.791  0.00  0.00    +0.168 C 
ATOM     16  C   UNL     1     -34.336  18.298  -1.092  0.00  0.00    +0.041 C 
ATOM     17  C   UNL     1     -33.271  17.640  -0.476  0.00  0.00    +0.182 C 
BRANCH  15  18
ATOM     18  O   UNL     1     -31.806  17.403   1.402  0.00  0.00    -0.503 OA
ATOM     19  H   UNL     1     -31.705  16.476   1.315  0.00  0.00    +0.292 HD
ENDBRANCH  15  18
BRANCH  17  20
ATOM     20  O   UNL     1     -32.656  16.611  -1.122  0.00  0.00    -0.400 OA
BRANCH  20  21
ATOM     21  P   UNL     1     -33.000  15.043  -0.919  0.00  0.00    +0.528 P 
ATOM     22  O   UNL     1     -32.962  14.210  -2.167  0.00  0.00    -0.216 OA
BRANCH  21  23
ATOM     23  O   UNL     1     -34.444  15.087  -0.188  0.00  0.00    -0.293 OA
ATOM     24  H   UNL     1     -34.432  14.504   0.587  0.00  0.00    +0.223 HD
ENDBRANCH  21  23
BRANCH  21  25
ATOM     25  O   UNL     1     -32.009  14.571   0.270  0.00  0.00    -0.293 OA
ATOM     26  H   UNL     1     -32.374  13.782   0.701  0.00  0.00    +0.223 HD
ENDBRANCH  21  25
ENDBRANCH  20  21
ENDBRANCH  17  20
ENDBRANCH  10  12
BRANCH   6  27
ATOM     27  O   UNL     1     -38.741  26.012   2.694  0.00  0.00    -0.465 OA
ATOM     28  C   UNL     1     -40.126  25.817   2.971  0.00  0.00    +0.253 C 
ENDBRANCH   6  27
BRANCH   8  29
ATOM     29  O   UNL     1     -38.782  25.435  -0.009  0.00  0.00    -0.468 OA
ATOM     30  C   UNL     1     -39.329  24.800  -1.164  0.00  0.00    +0.253 C 
ENDBRANCH   8  29
BRANCH   3  31
ATOM     31  O   UNL     1     -37.321  24.445   4.425  0.00  0.00    -0.472 OA
BRANCH  31  32
ATOM     32  C   UNL     1     -36.652  25.642   4.800  0.00  0.00    +0.206 C 
BRANCH  32  33
ATOM     33  C   UNL     1     -35.541  25.296   5.783  0.00  0.00    +0.047 C 
BRANCH  33  34
ATOM     34  C   UNL     1     -34.161  25.440   5.143  0.00  0.00    +0.004 C 
BRANCH  34  35
ATOM     35  C   UNL     1     -34.172  26.255   3.847  0.00  0.00    +0.000 C 
BRANCH  35  36
ATOM     36  C   UNL     1     -33.324  25.638   2.733  0.00  0.00    +0.000 C 
ATOM     37  C   UNL     1     -34.140  25.429   1.467  0.00  0.00    +0.000 C 
ENDBRANCH  35  36
ENDBRANCH  34  35
ENDBRANCH  33  34
ENDBRANCH  32  33
ENDBRANCH  31  32
ENDBRANCH   3  31
TORSDOF 14
ENDMDL
MODEL 6
REMARK VINA RESULT:      -6.1      4.114      7.876
REMARK  Name = 194902
REMARK  14 active torsions:
REMARK  status: ('A' for Active; 'I' for Inactive)
REMARK    1  A    between atoms: C_3  and  O_31
REMARK    2  A    between atoms: C_6  and  O_27
REMARK    3  A    between atoms: C_8  and  O_29
REMARK    4  A    between atoms: C_10  and  C_12
REMARK    5  A    between atoms: C_15  and  O_18
REMARK    6  A    between atoms: C_17  and  O_20
REMARK    7  A    between atoms: O_20  and  P_21
REMARK    8  A    between atoms: P_21  and  O_23
REMARK    9  A    between atoms: P_21  and  O_25
REMARK   10  A    between atoms: O_31  and  C_32
REMARK   11  A    between atoms: C_32  and  C_33
REMARK   12  A    between atoms: C_33  and  C_34
REMARK   13  A    between atoms: C_34  and  C_35
REMARK   14  A    between atoms: C_35  and  C_36
REMARK                            x       y       z     vdW  Elec       q    Type
REMARK                         _______ _______ _______ _____ _____    ______ ____
ROOT
ATOM      1  O   UNL     1     -35.650  19.462   0.458  0.00  0.00    -0.453 OA
ATOM      2  O   UNL     1     -32.159  17.622   1.467  0.00  0.00    -0.286 OA
ATOM      3  C   UNL     1     -33.785  16.434  -0.542  0.00  0.00    +0.181 C 
ATOM      4  C   UNL     1     -34.106  17.617   0.129  0.00  0.00    +0.111 C 
ATOM      5  C   UNL     1     -35.285  18.298  -0.168  0.00  0.00    +0.154 C 
ATOM      6  C   UNL     1     -34.654  15.938  -1.515  0.00  0.00    +0.206 C 
ATOM      7  C   UNL     1     -33.210  18.166   1.158  0.00  0.00    +0.205 C 
ATOM      8  C   UNL     1     -35.835  16.618  -1.814  0.00  0.00    +0.178 C 
ATOM      9  C   UNL     1     -36.152  17.799  -1.142  0.00  0.00    +0.078 C 
ATOM     10  C   UNL     1     -34.812  19.977   1.435  0.00  0.00    +0.149 C 
ATOM     11  C   UNL     1     -33.649  19.419   1.805  0.00  0.00    +0.080 C 
ENDROOT
BRANCH  10  12
ATOM     12  C   UNL     1     -35.297  21.234   2.040  0.00  0.00    +0.038 C 
ATOM     13  C   UNL     1     -35.551  21.296   3.410  0.00  0.00    +0.043 C 
ATOM     14  C   UNL     1     -35.502  22.360   1.241  0.00  0.00    +0.006 C 
ATOM     15  C   UNL     1     -36.008  22.485   3.982  0.00  0.00    +0.168 C 
ATOM     16  C   UNL     1     -35.960  23.547   1.812  0.00  0.00    +0.041 C 
ATOM     17  C   UNL     1     -36.212  23.609   3.183  0.00  0.00    +0.182 C 
BRANCH  15  18
ATOM     18  O   UNL     1     -36.253  22.533   5.321  0.00  0.00    -0.503 OA
ATOM     19  H   UNL     1     -37.003  22.991   5.644  0.00  0.00    +0.292 HD
ENDBRANCH  15  18
BRANCH  17  20
ATOM     20  O   UNL     1     -36.657  24.775   3.729  0.00  0.00    -0.400 OA
BRANCH  20  21
ATOM     21  P   UNL     1     -35.714  25.996   4.216  0.00  0.00    +0.528 P 
ATOM     22  O   UNL     1     -34.284  25.632   4.493  0.00  0.00    -0.216 OA
BRANCH  21  23
ATOM     23  O   UNL     1     -36.516  26.577   5.497  0.00  0.00    -0.293 OA
ATOM     24  H   UNL     1     -36.453  25.945   6.230  0.00  0.00    +0.223 HD
ENDBRANCH  21  23
BRANCH  21  25
ATOM     25  O   UNL     1     -35.941  27.142   3.097  0.00  0.00    -0.293 OA
ATOM     26  H   UNL     1     -35.804  28.016   3.497  0.00  0.00    +0.223 HD
ENDBRANCH  21  25
ENDBRANCH  20  21
ENDBRANCH  17  20
ENDBRANCH  10  12
BRANCH   6  27
ATOM     27  O   UNL     1     -34.351  14.785  -2.177  0.00  0.00    -0.465 OA
ATOM     28  C   UNL     1     -34.825  13.568  -1.605  0.00  0.00    +0.253 C 
ENDBRANCH   6  27
BRANCH   8  29
ATOM     29  O   UNL     1     -36.689  16.140  -2.762  0.00  0.00    -0.468 OA
ATOM     30  C   UNL     1     -37.976  15.715  -2.319  0.00  0.00    +0.253 C 
ENDBRANCH   8  29
BRANCH   3  31
ATOM     31  O   UNL     1     -32.635  15.738  -0.276  0.00  0.00    -0.472 OA
BRANCH  31  32
ATOM     32  C   UNL     1     -31.565  15.890  -1.200  0.00  0.00    +0.206 C 
BRANCH  32  33
ATOM     33  C   UNL     1     -30.280  15.393  -0.551  0.00  0.00    +0.047 C 
BRANCH  33  34
ATOM     34  C   UNL     1     -29.341  16.548  -0.209  0.00  0.00    +0.004 C 
BRANCH  34  35
ATOM     35  C   UNL     1     -29.624  17.821  -1.010  0.00  0.00    +0.000 C 
BRANCH  35  36
ATOM     36  C   UNL     1     -29.460  19.103  -0.193  0.00  0.00    +0.000 C 
ATOM     37  C   UNL     1     -30.545  20.116  -0.527  0.00  0.00    +0.000 C 
ENDBRANCH  35  36
ENDBRANCH  34  35
ENDBRANCH  33  34
ENDBRANCH  32  33
ENDBRANCH  31  32
ENDBRANCH   3  31
TORSDOF 14
ENDMDL
MODEL 7
REMARK VINA RESULT:      -6.1      3.760      9.656
REMARK  Name = 194902
REMARK  14 active torsions:
REMARK  status: ('A' for Active; 'I' for Inactive)
REMARK    1  A    between atoms: C_3  and  O_31
REMARK    2  A    between atoms: C_6  and  O_27
REMARK    3  A    between atoms: C_8  and  O_29
REMARK    4  A    between atoms: C_10  and  C_12
REMARK    5  A    between atoms: C_15  and  O_18
REMARK    6  A    between atoms: C_17  and  O_20
REMARK    7  A    between atoms: O_20  and  P_21
REMARK    8  A    between atoms: P_21  and  O_23
REMARK    9  A    between atoms: P_21  and  O_25
REMARK   10  A    between atoms: O_31  and  C_32
REMARK   11  A    between atoms: C_32  and  C_33
REMARK   12  A    between atoms: C_33  and  C_34
REMARK   13  A    between atoms: C_34  and  C_35
REMARK   14  A    between atoms: C_35  and  C_36
REMARK                            x       y       z     vdW  Elec       q    Type
REMARK                         _______ _______ _______ _____ _____    ______ ____
ROOT
ATOM      1  O   UNL     1     -35.192  28.186   2.926  0.00  0.00    -0.453 OA
ATOM      2  O   UNL     1     -31.450  27.553   4.407  0.00  0.00    -0.286 OA
ATOM      3  C   UNL     1     -32.136  30.171   3.532  0.00  0.00    +0.181 C 
ATOM      4  C   UNL     1     -33.004  29.077   3.487  0.00  0.00    +0.111 C 
ATOM      5  C   UNL     1     -34.298  29.225   2.992  0.00  0.00    +0.154 C 
ATOM      6  C   UNL     1     -32.575  31.416   3.078  0.00  0.00    +0.206 C 
ATOM      7  C   UNL     1     -32.571  27.753   3.959  0.00  0.00    +0.205 C 
ATOM      8  C   UNL     1     -33.871  31.565   2.583  0.00  0.00    +0.178 C 
ATOM      9  C   UNL     1     -34.735  30.471   2.540  0.00  0.00    +0.078 C 
ATOM     10  C   UNL     1     -34.784  26.935   3.362  0.00  0.00    +0.149 C 
ATOM     11  C   UNL     1     -33.568  26.668   3.864  0.00  0.00    +0.080 C 
ENDROOT
BRANCH  10  12
ATOM     12  C   UNL     1     -35.824  25.892   3.251  0.00  0.00    +0.038 C 
ATOM     13  C   UNL     1     -35.677  24.685   3.934  0.00  0.00    +0.043 C 
ATOM     14  C   UNL     1     -36.954  26.115   2.463  0.00  0.00    +0.006 C 
ATOM     15  C   UNL     1     -36.660  23.700   3.829  0.00  0.00    +0.168 C 
ATOM     16  C   UNL     1     -37.936  25.130   2.358  0.00  0.00    +0.041 C 
ATOM     17  C   UNL     1     -37.789  23.922   3.042  0.00  0.00    +0.182 C 
BRANCH  15  18
ATOM     18  O   UNL     1     -36.504  22.525   4.500  0.00  0.00    -0.503 OA
ATOM     19  H   UNL     1     -36.421  22.525   5.432  0.00  0.00    +0.292 HD
ENDBRANCH  15  18
BRANCH  17  20
ATOM     20  O   UNL     1     -38.756  22.970   2.933  0.00  0.00    -0.400 OA
BRANCH  20  21
ATOM     21  P   UNL     1     -38.793  21.803   1.812  0.00  0.00    +0.528 P 
ATOM     22  O   UNL     1     -38.638  22.270   0.394  0.00  0.00    -0.216 OA
BRANCH  21  23
ATOM     23  O   UNL     1     -40.197  21.057   2.120  0.00  0.00    -0.293 OA
ATOM     24  H   UNL     1     -40.577  21.411   2.939  0.00  0.00    +0.223 HD
ENDBRANCH  21  23
BRANCH  21  25
ATOM     25  O   UNL     1     -37.694  20.730   2.321  0.00  0.00    -0.293 OA
ATOM     26  H   UNL     1     -37.910  20.450   3.225  0.00  0.00    +0.223 HD
ENDBRANCH  21  25
ENDBRANCH  20  21
ENDBRANCH  17  20
ENDBRANCH  10  12
BRANCH   6  27
ATOM     27  O   UNL     1     -31.737  32.492   3.117  0.00  0.00    -0.465 OA
ATOM     28  C   UNL     1     -30.921  32.716   1.970  0.00  0.00    +0.253 C 
ENDBRANCH   6  27
BRANCH   8  29
ATOM     29  O   UNL     1     -34.306  32.777   2.137  0.00  0.00    -0.468 OA
ATOM     30  C   UNL     1     -34.634  32.879   0.753  0.00  0.00    +0.253 C 
ENDBRANCH   8  29
BRANCH   3  31
ATOM     31  O   UNL     1     -30.856  30.064   4.010  0.00  0.00    -0.472 OA
BRANCH  31  32
ATOM     32  C   UNL     1     -30.605  30.613   5.297  0.00  0.00    +0.206 C 
BRANCH  32  33
ATOM     33  C   UNL     1     -29.146  31.043   5.373  0.00  0.00    +0.047 C 
BRANCH  33  34
ATOM     34  C   UNL     1     -28.247  29.898   5.837  0.00  0.00    +0.004 C 
BRANCH  34  35
ATOM     35  C   UNL     1     -28.209  29.732   7.358  0.00  0.00    +0.000 C 
BRANCH  35  36
ATOM     36  C   UNL     1     -27.739  28.348   7.808  0.00  0.00    +0.000 C 
ATOM     37  C   UNL     1     -28.244  27.261   6.871  0.00  0.00    +0.000 C 
ENDBRANCH  35  36
ENDBRANCH  34  35
ENDBRANCH  33  34
ENDBRANCH  32  33
ENDBRANCH  31  32
ENDBRANCH   3  31
TORSDOF 14
ENDMDL
MODEL 8
REMARK VINA RESULT:      -6.0      4.909      9.414
REMARK  Name = 194902
REMARK  14 active torsions:
REMARK  status: ('A' for Active; 'I' for Inactive)
REMARK    1  A    between atoms: C_3  and  O_31
REMARK    2  A    between atoms: C_6  and  O_27
REMARK    3  A    between atoms: C_8  and  O_29
REMARK    4  A    between atoms: C_10  and  C_12
REMARK    5  A    between atoms: C_15  and  O_18
REMARK    6  A    between atoms: C_17  and  O_20
REMARK    7  A    between atoms: O_20  and  P_21
REMARK    8  A    between atoms: P_21  and  O_23
REMARK    9  A    between atoms: P_21  and  O_25
REMARK   10  A    between atoms: O_31  and  C_32
REMARK   11  A    between atoms: C_32  and  C_33
REMARK   12  A    between atoms: C_33  and  C_34
REMARK   13  A    between atoms: C_34  and  C_35
REMARK   14  A    between atoms: C_35  and  C_36
REMARK                            x       y       z     vdW  Elec       q    Type
REMARK                         _______ _______ _______ _____ _____    ______ ____
ROOT
ATOM      1  O   UNL     1     -36.372  19.414   0.376  0.00  0.00    -0.453 OA
ATOM      2  O   UNL     1     -35.284  21.889   3.424  0.00  0.00    -0.286 OA
ATOM      3  C   UNL     1     -37.935  22.075   2.407  0.00  0.00    +0.181 C 
ATOM      4  C   UNL     1     -36.971  21.184   1.927  0.00  0.00    +0.111 C 
ATOM      5  C   UNL     1     -37.277  20.309   0.886  0.00  0.00    +0.154 C 
ATOM      6  C   UNL     1     -39.209  22.082   1.838  0.00  0.00    +0.206 C 
ATOM      7  C   UNL     1     -35.620  21.151   2.507  0.00  0.00    +0.205 C 
ATOM      8  C   UNL     1     -39.516  21.207   0.796  0.00  0.00    +0.178 C 
ATOM      9  C   UNL     1     -38.552  20.319   0.319  0.00  0.00    +0.078 C 
ATOM     10  C   UNL     1     -35.095  19.387   0.914  0.00  0.00    +0.149 C 
ATOM     11  C   UNL     1     -34.682  20.174   1.922  0.00  0.00    +0.080 C 
ENDROOT
BRANCH  10  12
ATOM     12  C   UNL     1     -34.203  18.385   0.296  0.00  0.00    +0.038 C 
ATOM     13  C   UNL     1     -32.953  18.123   0.857  0.00  0.00    +0.043 C 
ATOM     14  C   UNL     1     -34.611  17.701  -0.850  0.00  0.00    +0.006 C 
ATOM     15  C   UNL     1     -32.111  17.176   0.273  0.00  0.00    +0.168 C 
ATOM     16  C   UNL     1     -33.769  16.755  -1.434  0.00  0.00    +0.041 C 
ATOM     17  C   UNL     1     -32.519  16.492  -0.872  0.00  0.00    +0.182 C 
BRANCH  15  18
ATOM     18  O   UNL     1     -30.893  16.929   0.830  0.00  0.00    -0.503 OA
ATOM     19  H   UNL     1     -30.114  17.036   0.320  0.00  0.00    +0.292 HD
ENDBRANCH  15  18
BRANCH  17  20
ATOM     20  O   UNL     1     -31.707  15.564  -1.450  0.00  0.00    -0.400 OA
BRANCH  20  21
ATOM     21  P   UNL     1     -31.728  13.978  -1.131  0.00  0.00    +0.528 P 
ATOM     22  O   UNL     1     -33.009  13.272  -1.470  0.00  0.00    -0.216 OA
BRANCH  21  23
ATOM     23  O   UNL     1     -31.330  13.925   0.437  0.00  0.00    -0.293 OA
ATOM     24  H   UNL     1     -31.948  13.344   0.908  0.00  0.00    +0.223 HD
ENDBRANCH  21  23
BRANCH  21  25
ATOM     25  O   UNL     1     -30.400  13.410  -1.861  0.00  0.00    -0.293 OA
ATOM     26  H   UNL     1     -30.434  13.626  -2.807  0.00  0.00    +0.223 HD
ENDBRANCH  21  25
ENDBRANCH  20  21
ENDBRANCH  17  20
ENDBRANCH  10  12
BRANCH   6  27
ATOM     27  O   UNL     1     -40.158  22.946   2.298  0.00  0.00    -0.465 OA
ATOM     28  C   UNL     1     -40.417  24.103   1.506  0.00  0.00    +0.253 C 
ENDBRANCH   6  27
BRANCH   8  29
ATOM     29  O   UNL     1     -40.758  21.209   0.234  0.00  0.00    -0.468 OA
ATOM     30  C   UNL     1     -40.910  20.517  -1.005  0.00  0.00    +0.253 C 
ENDBRANCH   8  29
BRANCH   3  31
ATOM     31  O   UNL     1     -37.670  22.950   3.429  0.00  0.00    -0.472 OA
BRANCH  31  32
ATOM     32  C   UNL     1     -37.223  24.248   3.060  0.00  0.00    +0.206 C 
BRANCH  32  33
ATOM     33  C   UNL     1     -37.139  25.112   4.311  0.00  0.00    +0.047 C 
BRANCH  33  34
ATOM     34  C   UNL     1     -35.906  24.770   5.147  0.00  0.00    +0.004 C 
BRANCH  34  35
ATOM     35  C   UNL     1     -34.585  25.018   4.415  0.00  0.00    +0.000 C 
BRANCH  35  36
ATOM     36  C   UNL     1     -33.898  26.322   4.823  0.00  0.00    +0.000 C 
ATOM     37  C   UNL     1     -33.683  26.387   6.328  0.00  0.00    +0.000 C 
ENDBRANCH  35  36
ENDBRANCH  34  35
ENDBRANCH  33  34
ENDBRANCH  32  33
ENDBRANCH  31  32
ENDBRANCH   3  31
TORSDOF 14
ENDMDL
MODEL 9
REMARK VINA RESULT:      -6.0      4.438      8.449
REMARK  Name = 194902
REMARK  14 active torsions:
REMARK  status: ('A' for Active; 'I' for Inactive)
REMARK    1  A    between atoms: C_3  and  O_31
REMARK    2  A    between atoms: C_6  and  O_27
REMARK    3  A    between atoms: C_8  and  O_29
REMARK    4  A    between atoms: C_10  and  C_12
REMARK    5  A    between atoms: C_15  and  O_18
REMARK    6  A    between atoms: C_17  and  O_20
REMARK    7  A    between atoms: O_20  and  P_21
REMARK    8  A    between atoms: P_21  and  O_23
REMARK    9  A    between atoms: P_21  and  O_25
REMARK   10  A    between atoms: O_31  and  C_32
REMARK   11  A    between atoms: C_32  and  C_33
REMARK   12  A    between atoms: C_33  and  C_34
REMARK   13  A    between atoms: C_34  and  C_35
REMARK   14  A    between atoms: C_35  and  C_36
REMARK                            x       y       z     vdW  Elec       q    Type
REMARK                         _______ _______ _______ _____ _____    ______ ____
ROOT
ATOM      1  O   UNL     1     -36.676  20.861   0.913  0.00  0.00    -0.453 OA
ATOM      2  O   UNL     1     -34.611  24.241   1.865  0.00  0.00    -0.286 OA
ATOM      3  C   UNL     1     -37.443  24.399   1.650  0.00  0.00    +0.181 C 
ATOM      4  C   UNL     1     -36.705  23.230   1.449  0.00  0.00    +0.111 C 
ATOM      5  C   UNL     1     -37.349  22.038   1.121  0.00  0.00    +0.154 C 
ATOM      6  C   UNL     1     -38.832  24.366   1.522  0.00  0.00    +0.206 C 
ATOM      7  C   UNL     1     -35.240  23.232   1.578  0.00  0.00    +0.205 C 
ATOM      8  C   UNL     1     -39.478  23.174   1.194  0.00  0.00    +0.178 C 
ATOM      9  C   UNL     1     -38.738  22.008   0.994  0.00  0.00    +0.078 C 
ATOM     10  C   UNL     1     -35.294  20.862   1.025  0.00  0.00    +0.149 C 
ATOM     11  C   UNL     1     -34.562  21.942   1.341  0.00  0.00    +0.080 C 
ENDROOT
BRANCH  10  12
ATOM     12  C   UNL     1     -34.671  19.544   0.787  0.00  0.00    +0.038 C 
ATOM     13  C   UNL     1     -33.474  19.214   1.421  0.00  0.00    +0.043 C 
ATOM     14  C   UNL     1     -35.280  18.630  -0.074  0.00  0.00    +0.006 C 
ATOM     15  C   UNL     1     -32.886  17.968   1.196  0.00  0.00    +0.168 C 
ATOM     16  C   UNL     1     -34.692  17.386  -0.299  0.00  0.00    +0.041 C 
ATOM     17  C   UNL     1     -33.495  17.055   0.336  0.00  0.00    +0.182 C 
BRANCH  15  18
ATOM     18  O   UNL     1     -31.716  17.657   1.820  0.00  0.00    -0.503 OA
ATOM     19  H   UNL     1     -30.962  17.427   1.316  0.00  0.00    +0.292 HD
ENDBRANCH  15  18
BRANCH  17  20
ATOM     20  O   UNL     1     -32.932  15.836   0.109  0.00  0.00    -0.400 OA
BRANCH  20  21
ATOM     21  P   UNL     1     -31.606  15.572  -0.781  0.00  0.00    +0.528 P 
ATOM     22  O   UNL     1     -31.372  16.557  -1.890  0.00  0.00    -0.216 OA
BRANCH  21  23
ATOM     23  O   UNL     1     -31.808  14.044  -1.276  0.00  0.00    -0.293 OA
ATOM     24  H   UNL     1     -30.947  13.596  -1.298  0.00  0.00    +0.223 HD
ENDBRANCH  21  23
BRANCH  21  25
ATOM     25  O   UNL     1     -30.416  15.446   0.307  0.00  0.00    -0.293 OA
ATOM     26  H   UNL     1     -29.571  15.677  -0.110  0.00  0.00    +0.223 HD
ENDBRANCH  21  25
ENDBRANCH  20  21
ENDBRANCH  17  20
ENDBRANCH  10  12
BRANCH   6  27
ATOM     27  O   UNL     1     -39.563  25.500   1.716  0.00  0.00    -0.465 OA
ATOM     28  C   UNL     1     -40.458  25.510   2.825  0.00  0.00    +0.253 C 
ENDBRANCH   6  27
BRANCH   8  29
ATOM     29  O   UNL     1     -40.834  23.134   1.066  0.00  0.00    -0.468 OA
ATOM     30  C   UNL     1     -41.361  23.161  -0.260  0.00  0.00    +0.253 C 
ENDBRANCH   8  29
BRANCH   3  31
ATOM     31  O   UNL     1     -36.844  25.589   1.972  0.00  0.00    -0.472 OA
BRANCH  31  32
ATOM     32  C   UNL     1     -37.180  26.154   3.233  0.00  0.00    +0.206 C 
BRANCH  32  33
ATOM     33  C   UNL     1     -36.889  25.131   4.323  0.00  0.00    +0.047 C 
BRANCH  33  34
ATOM     34  C   UNL     1     -35.585  25.445   5.054  0.00  0.00    +0.004 C 
BRANCH  34  35
ATOM     35  C   UNL     1     -34.863  24.200   5.576  0.00  0.00    +0.000 C 
BRANCH  35  36
ATOM     36  C   UNL     1     -35.555  22.891   5.194  0.00  0.00    +0.000 C 
ATOM     37  C   UNL     1     -35.168  21.763   6.139  0.00  0.00    +0.000 C 
ENDBRANCH  35  36
ENDBRANCH  34  35
ENDBRANCH  33  34
ENDBRANCH  32  33
ENDBRANCH  31  32
ENDBRANCH   3  31
TORSDOF 14
ENDMDL
