MODEL 1
REMARK VINA RESULT:      -6.3      0.000      0.000
REMARK  Name = 5744
REMARK  6 active torsions:
REMARK  status: ('A' for Active; 'I' for Inactive)
REMARK    1  A    between atoms: C_6  and  O_21
REMARK    2  A    between atoms: C_6  and  C_26
REMARK    3  A    between atoms: C_9  and  O_23
REMARK    4  A    between atoms: C_26  and  C_27
REMARK    5  A    between atoms: C_27  and  O_28
REMARK    6  A    between atoms: O_28  and  C_30
REMARK                            x       y       z     vdW  Elec       q    Type
REMARK                         _______ _______ _______ _____ _____    ______ ____
ROOT
ATOM      1  O   UNL     1     -31.839  15.509   0.377  0.00  0.00    -0.291 OA
ATOM      2  C   UNL     1     -36.609  22.402   1.433  0.00  0.00    +0.031 C 
ATOM      3  C   UNL     1     -37.079  20.938   1.289  0.00  0.00    +0.003 C 
ATOM      4  C   UNL     1     -36.237  20.116   0.301  0.00  0.00    +0.003 C 
ATOM      5  C   UNL     1     -34.755  20.098   0.797  0.00  0.00    +0.030 C 
ATOM      6  C   UNL     1     -37.693  22.922   2.418  0.00  0.00    +0.143 C 
ATOM      7  C   UNL     1     -35.164  22.373   1.970  0.00  0.00    +0.032 C 
ATOM      8  C   UNL     1     -33.818  19.185  -0.095  0.00  0.00    +0.018 C 
ATOM      9  C   UNL     1     -34.210  21.529   1.098  0.00  0.00    +0.111 C 
ATOM     10  C   UNL     1     -38.580  21.070   1.046  0.00  0.00    +0.003 C 
ATOM     11  C   UNL     1     -39.003  22.268   1.923  0.00  0.00    +0.034 C 
ATOM     12  C   UNL     1     -36.783  18.684   0.197  0.00  0.00    +0.004 C 
ATOM     13  C   UNL     1     -36.686  23.204   0.105  0.00  0.00    +0.003 C 
ATOM     14  C   UNL     1     -34.478  17.811  -0.276  0.00  0.00    -0.042 C 
ATOM     15  C   UNL     1     -35.923  17.815  -0.709  0.00  0.00    +0.022 C 
ATOM     16  C   UNL     1     -32.456  19.027   0.641  0.00  0.00    +0.012 C 
ATOM     17  C   UNL     1     -33.561  19.756  -1.508  0.00  0.00    +0.004 C 
ATOM     18  C   UNL     1     -31.609  17.878   0.116  0.00  0.00    +0.069 C 
ATOM     19  C   UNL     1     -33.840  16.640  -0.109  0.00  0.00    +0.029 C 
ATOM     20  C   UNL     1     -32.387  16.591   0.175  0.00  0.00    +0.173 C 
ENDROOT
BRANCH   6  21
ATOM     21  O   UNL     1     -37.427  22.493   3.750  0.00  0.00    -0.380 OA
ATOM     22  H   UNL     1     -38.094  22.866   4.349  0.00  0.00    +0.211 HD
ENDBRANCH   6  21
BRANCH   9  23
ATOM     23  O   UNL     1     -33.917  22.235  -0.099  0.00  0.00    -0.384 OA
ATOM     24  H   UNL     1     -34.004  23.189   0.058  0.00  0.00    +0.210 HD
ENDBRANCH   9  23
BRANCH   6  26
ATOM     25  O   UNL     1     -38.729  25.038   2.054  0.00  0.00    -0.290 OA
ATOM     26  C   UNL     1     -37.766  24.418   2.503  0.00  0.00    +0.218 C 
BRANCH  26  27
ATOM     27  C   UNL     1     -36.594  25.110   3.167  0.00  0.00    +0.274 C 
BRANCH  27  28
ATOM     28  O   UNL     1     -36.803  25.219   4.559  0.00  0.00    -0.440 OA
BRANCH  28  30
ATOM     29  O   UNL     1     -35.837  23.533   5.810  0.00  0.00    -0.250 OA
ATOM     30  C   UNL     1     -35.833  24.671   5.361  0.00  0.00    +0.318 C 
ATOM     31  C   UNL     1     -34.748  25.671   5.617  0.00  0.00    +0.121 C 
ENDBRANCH  28  30
ENDBRANCH  27  28
ENDBRANCH  26  27
ENDBRANCH   6  26
TORSDOF 6
ENDMDL
MODEL 2
REMARK VINA RESULT:      -6.2      4.971      9.015
REMARK  Name = 5744
REMARK  6 active torsions:
REMARK  status: ('A' for Active; 'I' for Inactive)
REMARK    1  A    between atoms: C_6  and  O_21
REMARK    2  A    between atoms: C_6  and  C_26
REMARK    3  A    between atoms: C_9  and  O_23
REMARK    4  A    between atoms: C_26  and  C_27
REMARK    5  A    between atoms: C_27  and  O_28
REMARK    6  A    between atoms: O_28  and  C_30
REMARK                            x       y       z     vdW  Elec       q    Type
REMARK                         _______ _______ _______ _____ _____    ______ ____
ROOT
ATOM      1  O   UNL     1     -31.337  33.172   3.617  0.00  0.00    -0.291 OA
ATOM      2  C   UNL     1     -35.279  25.703   3.439  0.00  0.00    +0.031 C 
ATOM      3  C   UNL     1     -34.557  26.364   4.633  0.00  0.00    +0.003 C 
ATOM      4  C   UNL     1     -33.294  27.143   4.233  0.00  0.00    +0.003 C 
ATOM      5  C   UNL     1     -33.696  28.272   3.229  0.00  0.00    +0.030 C 
ATOM      6  C   UNL     1     -36.421  24.976   4.203  0.00  0.00    +0.143 C 
ATOM      7  C   UNL     1     -35.716  26.829   2.481  0.00  0.00    +0.032 C 
ATOM      8  C   UNL     1     -32.480  29.207   2.835  0.00  0.00    +0.018 C 
ATOM      9  C   UNL     1     -34.546  27.734   2.037  0.00  0.00    +0.111 C 
ATOM     10  C   UNL     1     -34.432  25.229   5.645  0.00  0.00    +0.003 C 
ATOM     11  C   UNL     1     -35.737  24.422   5.473  0.00  0.00    +0.034 C 
ATOM     12  C   UNL     1     -32.623  27.747   5.476  0.00  0.00    +0.004 C 
ATOM     13  C   UNL     1     -34.404  24.657   2.696  0.00  0.00    +0.003 C 
ATOM     14  C   UNL     1     -31.767  29.672   4.112  0.00  0.00    -0.042 C 
ATOM     15  C   UNL     1     -31.416  28.597   5.110  0.00  0.00    +0.022 C 
ATOM     16  C   UNL     1     -33.048  30.435   2.066  0.00  0.00    +0.012 C 
ATOM     17  C   UNL     1     -31.423  28.507   1.951  0.00  0.00    +0.004 C 
ATOM     18  C   UNL     1     -32.071  31.597   1.970  0.00  0.00    +0.069 C 
ATOM     19  C   UNL     1     -31.418  30.945   4.359  0.00  0.00    +0.029 C 
ATOM     20  C   UNL     1     -31.615  32.006   3.345  0.00  0.00    +0.173 C 
ENDROOT
BRANCH   6  21
ATOM     21  O   UNL     1     -37.449  25.887   4.582  0.00  0.00    -0.380 OA
ATOM     22  H   UNL     1     -37.755  25.675   5.478  0.00  0.00    +0.211 HD
ENDBRANCH   6  21
BRANCH   9  23
ATOM     23  O   UNL     1     -33.740  27.035   1.099  0.00  0.00    -0.384 OA
ATOM     24  H   UNL     1     -33.300  26.292   1.541  0.00  0.00    +0.210 HD
ENDBRANCH   9  23
BRANCH   6  26
ATOM     25  O   UNL     1     -36.891  22.728   3.564  0.00  0.00    -0.290 OA
ATOM     26  C   UNL     1     -37.119  23.925   3.392  0.00  0.00    +0.218 C 
BRANCH  26  27
ATOM     27  C   UNL     1     -38.107  24.421   2.358  0.00  0.00    +0.274 C 
BRANCH  27  28
ATOM     28  O   UNL     1     -39.419  24.417   2.880  0.00  0.00    -0.440 OA
BRANCH  28  30
ATOM     29  O   UNL     1     -40.043  26.637   3.027  0.00  0.00    -0.250 OA
ATOM     30  C   UNL     1     -40.194  25.508   2.579  0.00  0.00    +0.318 C 
ATOM     31  C   UNL     1     -41.270  25.128   1.609  0.00  0.00    +0.121 C 
ENDBRANCH  28  30
ENDBRANCH  27  28
ENDBRANCH  26  27
ENDBRANCH   6  26
TORSDOF 6
ENDMDL
MODEL 3
REMARK VINA RESULT:      -6.2      4.273      9.082
REMARK  Name = 5744
REMARK  6 active torsions:
REMARK  status: ('A' for Active; 'I' for Inactive)
REMARK    1  A    between atoms: C_6  and  O_21
REMARK    2  A    between atoms: C_6  and  C_26
REMARK    3  A    between atoms: C_9  and  O_23
REMARK    4  A    between atoms: C_26  and  C_27
REMARK    5  A    between atoms: C_27  and  O_28
REMARK    6  A    between atoms: O_28  and  C_30
REMARK                            x       y       z     vdW  Elec       q    Type
REMARK                         _______ _______ _______ _____ _____    ______ ____
ROOT
ATOM      1  O   UNL     1     -31.049  33.344   3.750  0.00  0.00    -0.291 OA
ATOM      2  C   UNL     1     -35.100  25.942   3.335  0.00  0.00    +0.031 C 
ATOM      3  C   UNL     1     -34.455  26.600   4.574  0.00  0.00    +0.003 C 
ATOM      4  C   UNL     1     -33.153  27.354   4.262  0.00  0.00    +0.003 C 
ATOM      5  C   UNL     1     -33.461  28.482   3.224  0.00  0.00    +0.030 C 
ATOM      6  C   UNL     1     -36.307  25.241   4.019  0.00  0.00    +0.143 C 
ATOM      7  C   UNL     1     -35.446  27.069   2.341  0.00  0.00    +0.032 C 
ATOM      8  C   UNL     1     -32.203  29.393   2.913  0.00  0.00    +0.018 C 
ATOM      9  C   UNL     1     -34.232  27.950   1.977  0.00  0.00    +0.111 C 
ATOM     10  C   UNL     1     -34.424  25.471   5.600  0.00  0.00    +0.003 C 
ATOM     11  C   UNL     1     -35.727  24.686   5.339  0.00  0.00    +0.034 C 
ATOM     12  C   UNL     1     -32.563  27.956   5.546  0.00  0.00    +0.004 C 
ATOM     13  C   UNL     1     -34.192  24.876   2.664  0.00  0.00    +0.003 C 
ATOM     14  C   UNL     1     -31.576  29.855   4.235  0.00  0.00    -0.042 C 
ATOM     15  C   UNL     1     -31.317  28.782   5.263  0.00  0.00    +0.022 C 
ATOM     16  C   UNL     1     -32.691  30.625   2.097  0.00  0.00    +0.012 C 
ATOM     17  C   UNL     1     -31.097  28.668   2.113  0.00  0.00    +0.004 C 
ATOM     18  C   UNL     1     -31.690  31.769   2.065  0.00  0.00    +0.069 C 
ATOM     19  C   UNL     1     -31.223  31.124   4.499  0.00  0.00    +0.029 C 
ATOM     20  C   UNL     1     -31.327  32.181   3.466  0.00  0.00    +0.173 C 
ENDROOT
BRANCH   6  21
ATOM     21  O   UNL     1     -37.344  26.173   4.316  0.00  0.00    -0.380 OA
ATOM     22  H   UNL     1     -38.200  25.717   4.305  0.00  0.00    +0.211 HD
ENDBRANCH   6  21
BRANCH   9  23
ATOM     23  O   UNL     1     -33.372  27.230   1.105  0.00  0.00    -0.384 OA
ATOM     24  H   UNL     1     -32.753  26.697   1.627  0.00  0.00    +0.210 HD
ENDBRANCH   9  23
BRANCH   6  26
ATOM     25  O   UNL     1     -37.597  24.500   2.156  0.00  0.00    -0.290 OA
ATOM     26  C   UNL     1     -36.963  24.196   3.166  0.00  0.00    +0.218 C 
BRANCH  26  27
ATOM     27  C   UNL     1     -36.802  22.761   3.620  0.00  0.00    +0.274 C 
BRANCH  27  28
ATOM     28  O   UNL     1     -36.233  21.974   2.595  0.00  0.00    -0.440 OA
BRANCH  28  30
ATOM     29  O   UNL     1     -35.188  20.634   4.161  0.00  0.00    -0.250 OA
ATOM     30  C   UNL     1     -35.411  20.953   3.000  0.00  0.00    +0.318 C 
ATOM     31  C   UNL     1     -34.813  20.266   1.811  0.00  0.00    +0.121 C 
ENDBRANCH  28  30
ENDBRANCH  27  28
ENDBRANCH  26  27
ENDBRANCH   6  26
TORSDOF 6
ENDMDL
MODEL 4
REMARK VINA RESULT:      -6.1      4.590      6.826
REMARK  Name = 5744
REMARK  6 active torsions:
REMARK  status: ('A' for Active; 'I' for Inactive)
REMARK    1  A    between atoms: C_6  and  O_21
REMARK    2  A    between atoms: C_6  and  C_26
REMARK    3  A    between atoms: C_9  and  O_23
REMARK    4  A    between atoms: C_26  and  C_27
REMARK    5  A    between atoms: C_27  and  O_28
REMARK    6  A    between atoms: O_28  and  C_30
REMARK                            x       y       z     vdW  Elec       q    Type
REMARK                         _______ _______ _______ _____ _____    ______ ____
ROOT
ATOM      1  O   UNL     1     -40.929  22.716  -2.127  0.00  0.00    -0.291 OA
ATOM      2  C   UNL     1     -35.738  25.445   3.954  0.00  0.00    +0.031 C 
ATOM      3  C   UNL     1     -35.935  23.996   3.457  0.00  0.00    +0.003 C 
ATOM      4  C   UNL     1     -37.388  23.668   3.082  0.00  0.00    +0.003 C 
ATOM      5  C   UNL     1     -37.844  24.634   1.940  0.00  0.00    +0.030 C 
ATOM      6  C   UNL     1     -34.222  25.393   4.294  0.00  0.00    +0.143 C 
ATOM      7  C   UNL     1     -36.141  26.388   2.803  0.00  0.00    +0.032 C 
ATOM      8  C   UNL     1     -39.297  24.309   1.401  0.00  0.00    +0.018 C 
ATOM      9  C   UNL     1     -37.572  26.131   2.283  0.00  0.00    +0.111 C 
ATOM     10  C   UNL     1     -35.243  23.157   4.528  0.00  0.00    +0.003 C 
ATOM     11  C   UNL     1     -34.026  24.007   4.948  0.00  0.00    +0.034 C 
ATOM     12  C   UNL     1     -37.504  22.206   2.623  0.00  0.00    +0.004 C 
ATOM     13  C   UNL     1     -36.548  25.768   5.240  0.00  0.00    +0.003 C 
ATOM     14  C   UNL     1     -39.394  22.810   1.085  0.00  0.00    -0.042 C 
ATOM     15  C   UNL     1     -38.914  21.868   2.162  0.00  0.00    +0.022 C 
ATOM     16  C   UNL     1     -39.527  25.140   0.106  0.00  0.00    +0.012 C 
ATOM     17  C   UNL     1     -40.419  24.635   2.412  0.00  0.00    +0.004 C 
ATOM     18  C   UNL     1     -40.697  24.649  -0.733  0.00  0.00    +0.069 C 
ATOM     19  C   UNL     1     -39.905  22.310  -0.052  0.00  0.00    +0.029 C 
ATOM     20  C   UNL     1     -40.518  23.193  -1.071  0.00  0.00    +0.173 C 
ENDROOT
BRANCH   6  21
ATOM     21  O   UNL     1     -33.426  25.474   3.115  0.00  0.00    -0.380 OA
ATOM     22  H   UNL     1     -33.804  26.136   2.515  0.00  0.00    +0.211 HD
ENDBRANCH   6  21
BRANCH   9  23
ATOM     23  O   UNL     1     -38.512  26.626   3.226  0.00  0.00    -0.384 OA
ATOM     24  H   UNL     1     -39.411  26.417   2.928  0.00  0.00    +0.210 HD
ENDBRANCH   9  23
BRANCH   6  26
ATOM     25  O   UNL     1     -33.831  26.481   6.379  0.00  0.00    -0.290 OA
ATOM     26  C   UNL     1     -33.755  26.532   5.152  0.00  0.00    +0.218 C 
BRANCH  26  27
ATOM     27  C   UNL     1     -33.193  27.734   4.423  0.00  0.00    +0.274 C 
BRANCH  27  28
ATOM     28  O   UNL     1     -31.781  27.733   4.474  0.00  0.00    -0.440 OA
BRANCH  28  30
ATOM     29  O   UNL     1     -30.354  27.850   6.288  0.00  0.00    -0.250 OA
ATOM     30  C   UNL     1     -31.215  28.338   5.568  0.00  0.00    +0.318 C 
ATOM     31  C   UNL     1     -31.801  29.702   5.767  0.00  0.00    +0.121 C 
ENDBRANCH  28  30
ENDBRANCH  27  28
ENDBRANCH  26  27
ENDBRANCH   6  26
TORSDOF 6
ENDMDL
MODEL 5
REMARK VINA RESULT:      -6.1      2.003      7.732
REMARK  Name = 5744
REMARK  6 active torsions:
REMARK  status: ('A' for Active; 'I' for Inactive)
REMARK    1  A    between atoms: C_6  and  O_21
REMARK    2  A    between atoms: C_6  and  C_26
REMARK    3  A    between atoms: C_9  and  O_23
REMARK    4  A    between atoms: C_26  and  C_27
REMARK    5  A    between atoms: C_27  and  O_28
REMARK    6  A    between atoms: O_28  and  C_30
REMARK                            x       y       z     vdW  Elec       q    Type
REMARK                         _______ _______ _______ _____ _____    ______ ____
ROOT
ATOM      1  O   UNL     1     -34.584  26.149   5.844  0.00  0.00    -0.291 OA
ATOM      2  C   UNL     1     -34.707  19.834   0.234  0.00  0.00    +0.031 C 
ATOM      3  C   UNL     1     -34.278  21.300   0.001  0.00  0.00    +0.003 C 
ATOM      4  C   UNL     1     -35.121  22.318   0.784  0.00  0.00    +0.003 C 
ATOM      5  C   UNL     1     -34.985  22.015   2.312  0.00  0.00    +0.030 C 
ATOM      6  C   UNL     1     -33.720  19.123  -0.733  0.00  0.00    +0.143 C 
ATOM      7  C   UNL     1     -34.521  19.531   1.734  0.00  0.00    +0.032 C 
ATOM      8  C   UNL     1     -35.731  23.077   3.219  0.00  0.00    +0.018 C 
ATOM      9  C   UNL     1     -35.275  20.520   2.650  0.00  0.00    +0.111 C 
ATOM     10  C   UNL     1     -34.212  21.412  -1.519  0.00  0.00    +0.003 C 
ATOM     11  C   UNL     1     -33.683  20.037  -1.979  0.00  0.00    +0.034 C 
ATOM     12  C   UNL     1     -34.648  23.748   0.480  0.00  0.00    +0.004 C 
ATOM     13  C   UNL     1     -36.168  19.545  -0.209  0.00  0.00    +0.003 C 
ATOM     14  C   UNL     1     -35.323  24.490   2.781  0.00  0.00    -0.042 C 
ATOM     15  C   UNL     1     -35.404  24.781   1.303  0.00  0.00    +0.022 C 
ATOM     16  C   UNL     1     -35.303  22.834   4.696  0.00  0.00    +0.012 C 
ATOM     17  C   UNL     1     -37.272  22.998   3.125  0.00  0.00    +0.004 C 
ATOM     18  C   UNL     1     -35.616  24.001   5.620  0.00  0.00    +0.069 C 
ATOM     19  C   UNL     1     -34.943  25.462   3.627  0.00  0.00    +0.029 C 
ATOM     20  C   UNL     1     -34.988  25.263   5.094  0.00  0.00    +0.173 C 
ENDROOT
BRANCH   6  21
ATOM     21  O   UNL     1     -32.413  19.044  -0.169  0.00  0.00    -0.380 OA
ATOM     22  H   UNL     1     -31.761  19.346  -0.821  0.00  0.00    +0.211 HD
ENDBRANCH   6  21
BRANCH   9  23
ATOM     23  O   UNL     1     -36.666  20.238   2.605  0.00  0.00    -0.384 OA
ATOM     24  H   UNL     1     -37.013  20.459   1.726  0.00  0.00    +0.210 HD
ENDBRANCH   9  23
BRANCH   6  26
ATOM     25  O   UNL     1     -34.600  17.396  -2.121  0.00  0.00    -0.290 OA
ATOM     26  C   UNL     1     -34.092  17.703  -1.043  0.00  0.00    +0.218 C 
BRANCH  26  27
ATOM     27  C   UNL     1     -33.811  16.685   0.041  0.00  0.00    +0.274 C 
BRANCH  27  28
ATOM     28  O   UNL     1     -33.110  15.578  -0.485  0.00  0.00    -0.440 OA
BRANCH  28  30
ATOM     29  O   UNL     1     -31.132  16.332   0.439  0.00  0.00    -0.250 OA
ATOM     30  C   UNL     1     -31.791  15.469  -0.125  0.00  0.00    +0.318 C 
ATOM     31  C   UNL     1     -31.255  14.127  -0.519  0.00  0.00    +0.121 C 
ENDBRANCH  28  30
ENDBRANCH  27  28
ENDBRANCH  26  27
ENDBRANCH   6  26
TORSDOF 6
ENDMDL
MODEL 6
REMARK VINA RESULT:      -6.1      2.639      8.043
REMARK  Name = 5744
REMARK  6 active torsions:
REMARK  status: ('A' for Active; 'I' for Inactive)
REMARK    1  A    between atoms: C_6  and  O_21
REMARK    2  A    between atoms: C_6  and  C_26
REMARK    3  A    between atoms: C_9  and  O_23
REMARK    4  A    between atoms: C_26  and  C_27
REMARK    5  A    between atoms: C_27  and  O_28
REMARK    6  A    between atoms: O_28  and  C_30
REMARK                            x       y       z     vdW  Elec       q    Type
REMARK                         _______ _______ _______ _____ _____    ______ ____
ROOT
ATOM      1  O   UNL     1     -43.520  26.547   2.648  0.00  0.00    -0.291 OA
ATOM      2  C   UNL     1     -36.770  21.649   1.303  0.00  0.00    +0.031 C 
ATOM      3  C   UNL     1     -37.052  22.558   2.518  0.00  0.00    +0.003 C 
ATOM      4  C   UNL     1     -37.761  23.871   2.152  0.00  0.00    +0.003 C 
ATOM      5  C   UNL     1     -39.130  23.533   1.476  0.00  0.00    +0.030 C 
ATOM      6  C   UNL     1     -36.013  20.495   2.018  0.00  0.00    +0.143 C 
ATOM      7  C   UNL     1     -38.129  21.279   0.675  0.00  0.00    +0.032 C 
ATOM      8  C   UNL     1     -39.994  24.820   1.155  0.00  0.00    +0.018 C 
ATOM      9  C   UNL     1     -38.980  22.513   0.305  0.00  0.00    +0.111 C 
ATOM     10  C   UNL     1     -35.706  22.623   3.233  0.00  0.00    +0.003 C 
ATOM     11  C   UNL     1     -35.108  21.213   3.045  0.00  0.00    +0.034 C 
ATOM     12  C   UNL     1     -37.983  24.728   3.408  0.00  0.00    +0.004 C 
ATOM     13  C   UNL     1     -35.837  22.306   0.248  0.00  0.00    +0.003 C 
ATOM     14  C   UNL     1     -40.068  25.703   2.408  0.00  0.00    -0.042 C 
ATOM     15  C   UNL     1     -38.758  25.998   3.097  0.00  0.00    +0.022 C 
ATOM     16  C   UNL     1     -41.422  24.353   0.749  0.00  0.00    +0.012 C 
ATOM     17  C   UNL     1     -39.409  25.691   0.020  0.00  0.00    +0.004 C 
ATOM     18  C   UNL     1     -42.461  25.463   0.795  0.00  0.00    +0.069 C 
ATOM     19  C   UNL     1     -41.203  26.239   2.887  0.00  0.00    +0.029 C 
ATOM     20  C   UNL     1     -42.487  26.093   2.162  0.00  0.00    +0.173 C 
ENDROOT
BRANCH   6  21
ATOM     21  O   UNL     1     -36.917  19.636   2.708  0.00  0.00    -0.380 OA
ATOM     22  H   UNL     1     -36.699  18.711   2.509  0.00  0.00    +0.211 HD
ENDBRANCH   6  21
BRANCH   9  23
ATOM     23  O   UNL     1     -38.436  23.131  -0.853  0.00  0.00    -0.384 OA
ATOM     24  H   UNL     1     -38.951  22.868  -1.633  0.00  0.00    +0.210 HD
ENDBRANCH   9  23
BRANCH   6  26
ATOM     25  O   UNL     1     -35.851  18.830   0.320  0.00  0.00    -0.290 OA
ATOM     26  C   UNL     1     -35.262  19.593   1.085  0.00  0.00    +0.218 C 
BRANCH  26  27
ATOM     27  C   UNL     1     -33.751  19.676   1.142  0.00  0.00    +0.274 C 
BRANCH  27  28
ATOM     28  O   UNL     1     -33.192  18.406   1.406  0.00  0.00    -0.440 OA
BRANCH  28  30
ATOM     29  O   UNL     1     -31.178  17.275   1.339  0.00  0.00    -0.250 OA
ATOM     30  C   UNL     1     -31.876  18.240   1.057  0.00  0.00    +0.318 C 
ATOM     31  C   UNL     1     -31.396  19.420   0.268  0.00  0.00    +0.121 C 
ENDBRANCH  28  30
ENDBRANCH  27  28
ENDBRANCH  26  27
ENDBRANCH   6  26
TORSDOF 6
ENDMDL
MODEL 7
REMARK VINA RESULT:      -6.0      1.719      2.971
REMARK  Name = 5744
REMARK  6 active torsions:
REMARK  status: ('A' for Active; 'I' for Inactive)
REMARK    1  A    between atoms: C_6  and  O_21
REMARK    2  A    between atoms: C_6  and  C_26
REMARK    3  A    between atoms: C_9  and  O_23
REMARK    4  A    between atoms: C_26  and  C_27
REMARK    5  A    between atoms: C_27  and  O_28
REMARK    6  A    between atoms: O_28  and  C_30
REMARK                            x       y       z     vdW  Elec       q    Type
REMARK                         _______ _______ _______ _____ _____    ______ ____
ROOT
ATOM      1  O   UNL     1     -32.995  16.715  -3.030  0.00  0.00    -0.291 OA
ATOM      2  C   UNL     1     -36.031  22.856   1.915  0.00  0.00    +0.031 C 
ATOM      3  C   UNL     1     -34.974  22.977   0.795  0.00  0.00    +0.003 C 
ATOM      4  C   UNL     1     -34.030  21.768   0.708  0.00  0.00    +0.003 C 
ATOM      5  C   UNL     1     -34.880  20.485   0.429  0.00  0.00    +0.030 C 
ATOM      6  C   UNL     1     -36.731  24.234   1.754  0.00  0.00    +0.143 C 
ATOM      7  C   UNL     1     -36.895  21.618   1.602  0.00  0.00    +0.032 C 
ATOM      8  C   UNL     1     -33.991  19.192   0.213  0.00  0.00    +0.018 C 
ATOM      9  C   UNL     1     -36.065  20.327   1.431  0.00  0.00    +0.111 C 
ATOM     10  C   UNL     1     -34.376  24.363   1.021  0.00  0.00    +0.003 C 
ATOM     11  C   UNL     1     -35.572  25.221   1.486  0.00  0.00    +0.034 C 
ATOM     12  C   UNL     1     -32.996  21.977  -0.409  0.00  0.00    +0.004 C 
ATOM     13  C   UNL     1     -35.411  22.750   3.335  0.00  0.00    +0.003 C 
ATOM     14  C   UNL     1     -32.894  19.502  -0.814  0.00  0.00    -0.042 C 
ATOM     15  C   UNL     1     -32.097  20.762  -0.582  0.00  0.00    +0.022 C 
ATOM     16  C   UNL     1     -34.914  18.058  -0.321  0.00  0.00    +0.012 C 
ATOM     17  C   UNL     1     -33.287  18.703   1.499  0.00  0.00    +0.004 C 
ATOM     18  C   UNL     1     -34.153  16.897  -0.943  0.00  0.00    +0.069 C 
ATOM     19  C   UNL     1     -32.591  18.710  -1.857  0.00  0.00    +0.029 C 
ATOM     20  C   UNL     1     -33.250  17.396  -2.039  0.00  0.00    +0.173 C 
ENDROOT
BRANCH   6  21
ATOM     21  O   UNL     1     -37.617  24.236   0.638  0.00  0.00    -0.380 OA
ATOM     22  H   UNL     1     -38.428  24.715   0.871  0.00  0.00    +0.211 HD
ENDBRANCH   6  21
BRANCH   9  23
ATOM     23  O   UNL     1     -35.614  19.885   2.703  0.00  0.00    -0.384 OA
ATOM     24  H   UNL     1     -35.323  18.961   2.641  0.00  0.00    +0.210 HD
ENDBRANCH   9  23
BRANCH   6  26
ATOM     25  O   UNL     1     -38.513  23.903   3.302  0.00  0.00    -0.290 OA
ATOM     26  C   UNL     1     -37.586  24.619   2.925  0.00  0.00    +0.218 C 
BRANCH  26  27
ATOM     27  C   UNL     1     -37.245  25.928   3.603  0.00  0.00    +0.274 C 
BRANCH  27  28
ATOM     28  O   UNL     1     -36.545  25.698   4.808  0.00  0.00    -0.440 OA
BRANCH  28  30
ATOM     29  O   UNL     1     -34.942  27.309   4.391  0.00  0.00    -0.250 OA
ATOM     30  C   UNL     1     -35.292  26.250   4.894  0.00  0.00    +0.318 C 
ATOM     31  C   UNL     1     -34.391  25.366   5.702  0.00  0.00    +0.121 C 
ENDBRANCH  28  30
ENDBRANCH  27  28
ENDBRANCH  26  27
ENDBRANCH   6  26
TORSDOF 6
ENDMDL
MODEL 8
REMARK VINA RESULT:      -6.0      3.998      6.484
REMARK  Name = 5744
REMARK  6 active torsions:
REMARK  status: ('A' for Active; 'I' for Inactive)
REMARK    1  A    between atoms: C_6  and  O_21
REMARK    2  A    between atoms: C_6  and  C_26
REMARK    3  A    between atoms: C_9  and  O_23
REMARK    4  A    between atoms: C_26  and  C_27
REMARK    5  A    between atoms: C_27  and  O_28
REMARK    6  A    between atoms: O_28  and  C_30
REMARK                            x       y       z     vdW  Elec       q    Type
REMARK                         _______ _______ _______ _____ _____    ______ ____
ROOT
ATOM      1  O   UNL     1     -34.741  21.735   6.340  0.00  0.00    -0.291 OA
ATOM      2  C   UNL     1     -39.934  25.672   0.963  0.00  0.00    +0.031 C 
ATOM      3  C   UNL     1     -39.509  24.187   0.953  0.00  0.00    +0.003 C 
ATOM      4  C   UNL     1     -38.048  23.963   1.373  0.00  0.00    +0.003 C 
ATOM      5  C   UNL     1     -37.852  24.510   2.824  0.00  0.00    +0.030 C 
ATOM      6  C   UNL     1     -41.389  25.524   0.438  0.00  0.00    +0.143 C 
ATOM      7  C   UNL     1     -39.785  26.186   2.409  0.00  0.00    +0.032 C 
ATOM      8  C   UNL     1     -36.402  24.230   3.397  0.00  0.00    +0.018 C 
ATOM      9  C   UNL     1     -38.368  25.973   2.985  0.00  0.00    +0.111 C 
ATOM     10  C   UNL     1     -39.965  23.697  -0.418  0.00  0.00    +0.003 C 
ATOM     11  C   UNL     1     -41.286  24.453  -0.671  0.00  0.00    +0.034 C 
ATOM     12  C   UNL     1     -37.698  22.468   1.313  0.00  0.00    +0.004 C 
ATOM     13  C   UNL     1     -39.114  26.551  -0.021  0.00  0.00    +0.003 C 
ATOM     14  C   UNL     1     -36.054  22.750   3.189  0.00  0.00    -0.042 C 
ATOM     15  C   UNL     1     -36.283  22.199   1.803  0.00  0.00    +0.022 C 
ATOM     16  C   UNL     1     -36.412  24.565   4.917  0.00  0.00    +0.012 C 
ATOM     17  C   UNL     1     -35.294  25.060   2.709  0.00  0.00    +0.004 C 
ATOM     18  C   UNL     1     -35.230  23.982   5.676  0.00  0.00    +0.069 C 
ATOM     19  C   UNL     1     -35.536  21.956   4.140  0.00  0.00    +0.029 C 
ATOM     20  C   UNL     1     -35.162  22.493   5.469  0.00  0.00    +0.173 C 
ENDROOT
BRANCH   6  21
ATOM     21  O   UNL     1     -42.262  25.057   1.464  0.00  0.00    -0.380 OA
ATOM     22  H   UNL     1     -42.641  24.203   1.201  0.00  0.00    +0.211 HD
ENDBRANCH   6  21
BRANCH   9  23
ATOM     23  O   UNL     1     -37.474  26.906   2.395  0.00  0.00    -0.384 OA
ATOM     24  H   UNL     1     -36.565  26.699   2.663  0.00  0.00    +0.210 HD
ENDBRANCH   9  23
BRANCH   6  26
ATOM     25  O   UNL     1     -42.350  26.968  -1.197  0.00  0.00    -0.290 OA
ATOM     26  C   UNL     1     -41.999  26.812  -0.028  0.00  0.00    +0.218 C 
BRANCH  26  27
ATOM     27  C   UNL     1     -42.152  27.898   1.015  0.00  0.00    +0.274 C 
BRANCH  27  28
ATOM     28  O   UNL     1     -43.209  27.594   1.901  0.00  0.00    -0.440 OA
BRANCH  28  30
ATOM     29  O   UNL     1     -42.319  28.884   3.599  0.00  0.00    -0.250 OA
ATOM     30  C   UNL     1     -43.029  27.966   3.209  0.00  0.00    +0.318 C 
ATOM     31  C   UNL     1     -43.832  27.084   4.115  0.00  0.00    +0.121 C 
ENDBRANCH  28  30
ENDBRANCH  27  28
ENDBRANCH  26  27
ENDBRANCH   6  26
TORSDOF 6
ENDMDL
MODEL 9
REMARK VINA RESULT:      -6.0      2.511      3.870
REMARK  Name = 5744
REMARK  6 active torsions:
REMARK  status: ('A' for Active; 'I' for Inactive)
REMARK    1  A    between atoms: C_6  and  O_21
REMARK    2  A    between atoms: C_6  and  C_26
REMARK    3  A    between atoms: C_9  and  O_23
REMARK    4  A    between atoms: C_26  and  C_27
REMARK    5  A    between atoms: C_27  and  O_28
REMARK    6  A    between atoms: O_28  and  C_30
REMARK                            x       y       z     vdW  Elec       q    Type
REMARK                         _______ _______ _______ _____ _____    ______ ____
ROOT
ATOM      1  O   UNL     1     -33.298  18.289  -2.363  0.00  0.00    -0.291 OA
ATOM      2  C   UNL     1     -35.155  24.319   3.255  0.00  0.00    +0.031 C 
ATOM      3  C   UNL     1     -35.194  22.789   3.460  0.00  0.00    +0.003 C 
ATOM      4  C   UNL     1     -35.675  22.015   2.223  0.00  0.00    +0.003 C 
ATOM      5  C   UNL     1     -34.706  22.316   1.033  0.00  0.00    +0.030 C 
ATOM      6  C   UNL     1     -34.707  24.756   4.678  0.00  0.00    +0.143 C 
ATOM      7  C   UNL     1     -34.158  24.608   2.114  0.00  0.00    +0.032 C 
ATOM      8  C   UNL     1     -35.050  21.480  -0.267  0.00  0.00    +0.018 C 
ATOM      9  C   UNL     1     -34.490  23.845   0.813  0.00  0.00    +0.111 C 
ATOM     10  C   UNL     1     -35.955  22.627   4.773  0.00  0.00    +0.003 C 
ATOM     11  C   UNL     1     -35.499  23.829   5.627  0.00  0.00    +0.034 C 
ATOM     12  C   UNL     1     -35.709  20.507   2.516  0.00  0.00    +0.004 C 
ATOM     13  C   UNL     1     -36.546  24.932   2.938  0.00  0.00    +0.003 C 
ATOM     14  C   UNL     1     -35.204  20.001   0.111  0.00  0.00    -0.042 C 
ATOM     15  C   UNL     1     -36.100  19.701   1.287  0.00  0.00    +0.022 C 
ATOM     16  C   UNL     1     -33.876  21.651  -1.274  0.00  0.00    +0.012 C 
ATOM     17  C   UNL     1     -36.366  21.915  -0.952  0.00  0.00    +0.004 C 
ATOM     18  C   UNL     1     -33.871  20.613  -2.386  0.00  0.00    +0.069 C 
ATOM     19  C   UNL     1     -34.628  18.987  -0.557  0.00  0.00    +0.029 C 
ATOM     20  C   UNL     1     -33.860  19.227  -1.801  0.00  0.00    +0.173 C 
ENDROOT
BRANCH   6  21
ATOM     21  O   UNL     1     -33.311  24.541   4.867  0.00  0.00    -0.380 OA
ATOM     22  H   UNL     1     -32.811  25.182   4.337  0.00  0.00    +0.211 HD
ENDBRANCH   6  21
BRANCH   9  23
ATOM     23  O   UNL     1     -35.618  24.444   0.190  0.00  0.00    -0.384 OA
ATOM     24  H   UNL     1     -36.398  23.884   0.328  0.00  0.00    +0.210 HD
ENDBRANCH   9  23
BRANCH   6  26
ATOM     25  O   UNL     1     -35.960  26.631   5.450  0.00  0.00    -0.290 OA
ATOM     26  C   UNL     1     -34.913  26.215   4.956  0.00  0.00    +0.218 C 
BRANCH  26  27
ATOM     27  C   UNL     1     -33.767  27.136   4.594  0.00  0.00    +0.274 C 
BRANCH  27  28
ATOM     28  O   UNL     1     -32.977  27.419   5.729  0.00  0.00    -0.440 OA
BRANCH  28  30
ATOM     29  O   UNL     1     -30.904  27.762   4.767  0.00  0.00    -0.250 OA
ATOM     30  C   UNL     1     -31.817  28.116   5.501  0.00  0.00    +0.318 C 
ATOM     31  C   UNL     1     -31.817  29.394   6.283  0.00  0.00    +0.121 C 
ENDBRANCH  28  30
ENDBRANCH  27  28
ENDBRANCH  26  27
ENDBRANCH   6  26
TORSDOF 6
ENDMDL
