MODEL 1
REMARK VINA RESULT:      -6.2      0.000      0.000
REMARK  Name = 57394020
REMARK  9 active torsions:
REMARK  status: ('A' for Active; 'I' for Inactive)
REMARK    1  A    between atoms: N_1  and  C_3
REMARK    2  A    between atoms: N_1  and  C_14
REMARK    3  A    between atoms: N_1  and  C_22
REMARK    4  A    between atoms: C_3  and  C_6
REMARK    5  A    between atoms: C_10  and  O_11
REMARK    6  A    between atoms: O_11  and  C_12
REMARK    7  A    between atoms: C_14  and  C_16
REMARK    8  A    between atoms: C_22  and  C_24
REMARK    9  A    between atoms: C_27  and  N_30
REMARK                            x       y       z     vdW  Elec       q    Type
REMARK                         _______ _______ _______ _____ _____    ______ ____
ROOT
ATOM      1  N   UNL     1     -36.197  21.927   2.580  0.00  0.00    +0.393 N 
ATOM      2  H   UNL     1     -35.733  22.634   2.011  0.00  0.00    -0.079 HD
ENDROOT
BRANCH   1   3
ATOM      3  C   UNL     1     -37.615  22.259   2.652  0.00  0.00    -0.075 C 
BRANCH   3   6
ATOM      4  O   UNL     1     -40.890  26.975   0.919  0.00  0.00    -0.226 OA
ATOM      5  N   UNL     1     -39.534  25.242   1.621  0.00  0.00    -0.246 N 
ATOM      6  C   UNL     1     -37.915  23.551   1.913  0.00  0.00    +0.001 C 
ATOM      7  C   UNL     1     -38.641  23.333   0.582  0.00  0.00    +0.021 C 
ATOM      8  C   UNL     1     -38.870  24.472   2.668  0.00  0.00    +0.095 C 
ATOM      9  C   UNL     1     -39.250  24.699   0.302  0.00  0.00    +0.097 C 
ATOM     10  C   UNL     1     -40.341  26.348   1.823  0.00  0.00    +0.405 C 
BRANCH  10  11
ATOM     11  O   UNL     1     -40.458  26.663   3.150  0.00  0.00    -0.435 OA
BRANCH  11  12
ATOM     12  C   UNL     1     -41.778  26.585   3.698  0.00  0.00    +0.210 C 
ATOM     13  C   UNL     1     -42.263  27.984   4.016  0.00  0.00    +0.051 C 
ENDBRANCH  11  12
ENDBRANCH  10  11
ENDBRANCH   3   6
ENDBRANCH   1   3
BRANCH   1  14
ATOM     14  C   UNL     1     -36.005  20.621   1.948  0.00  0.00    -0.049 C 
BRANCH  14  16
ATOM     15 CL   UNL     1     -30.551  20.119  -0.540  0.00  0.00    -0.082 Cl
ATOM     16  C   UNL     1     -34.640  20.495   1.325  0.00  0.00    -0.043 C 
ATOM     17  C   UNL     1     -34.122  21.542   0.563  0.00  0.00    -0.005 C 
ATOM     18  C   UNL     1     -33.894  19.331   1.510  0.00  0.00    -0.005 C 
ATOM     19  C   UNL     1     -32.858  21.425  -0.014  0.00  0.00    +0.011 C 
ATOM     20  C   UNL     1     -32.629  19.214   0.932  0.00  0.00    +0.011 C 
ATOM     21  C   UNL     1     -32.111  20.261   0.170  0.00  0.00    +0.058 C 
ENDBRANCH  14  16
ENDBRANCH   1  14
BRANCH   1  22
ATOM     22  C   UNL     1     -35.597  21.937   3.915  0.00  0.00    -0.043 C 
BRANCH  22  24
ATOM     23  S   UNL     1     -34.468  24.406   3.305  0.00  0.00    -0.070 S 
ATOM     24  C   UNL     1     -35.272  23.334   4.373  0.00  0.00    -0.012 C 
ATOM     25  C   UNL     1     -35.534  23.920   5.592  0.00  0.00    +0.002 C 
ATOM     26  C   UNL     1     -35.071  25.266   5.650  0.00  0.00    +0.031 C 
ATOM     27  C   UNL     1     -34.470  25.658   4.473  0.00  0.00    +0.172 C 
BRANCH  27  30
ATOM     28  O   UNL     1     -32.640  27.031   4.183  0.00  0.00    -0.126 OA
ATOM     29  O   UNL     1     -34.640  27.864   3.826  0.00  0.00    -0.126 OA
ATOM     30  N   UNL     1     -33.896  26.895   4.149  0.00  0.00    +0.064 N 
ENDBRANCH  27  30
ENDBRANCH  22  24
ENDBRANCH   1  22
TORSDOF 9
ENDMDL
MODEL 2
REMARK VINA RESULT:      -6.0      1.401      2.171
REMARK  Name = 57394020
REMARK  9 active torsions:
REMARK  status: ('A' for Active; 'I' for Inactive)
REMARK    1  A    between atoms: N_1  and  C_3
REMARK    2  A    between atoms: N_1  and  C_14
REMARK    3  A    between atoms: N_1  and  C_22
REMARK    4  A    between atoms: C_3  and  C_6
REMARK    5  A    between atoms: C_10  and  O_11
REMARK    6  A    between atoms: O_11  and  C_12
REMARK    7  A    between atoms: C_14  and  C_16
REMARK    8  A    between atoms: C_22  and  C_24
REMARK    9  A    between atoms: C_27  and  N_30
REMARK                            x       y       z     vdW  Elec       q    Type
REMARK                         _______ _______ _______ _____ _____    ______ ____
ROOT
ATOM      1  N   UNL     1     -36.176  21.827   2.495  0.00  0.00    +0.393 N 
ATOM      2  H   UNL     1     -35.738  22.560   1.939  0.00  0.00    -0.079 HD
ENDROOT
BRANCH   1   3
ATOM      3  C   UNL     1     -37.597  22.132   2.614  0.00  0.00    -0.075 C 
BRANCH   3   6
ATOM      4  O   UNL     1     -39.564  27.418   0.573  0.00  0.00    -0.226 OA
ATOM      5  N   UNL     1     -38.707  25.391   1.275  0.00  0.00    -0.246 N 
ATOM      6  C   UNL     1     -38.029  23.151   1.575  0.00  0.00    +0.001 C 
ATOM      7  C   UNL     1     -39.545  23.197   1.364  0.00  0.00    +0.021 C 
ATOM      8  C   UNL     1     -37.701  24.591   1.965  0.00  0.00    +0.095 C 
ATOM      9  C   UNL     1     -39.753  24.555   0.709  0.00  0.00    +0.097 C 
ATOM     10  C   UNL     1     -38.699  26.770   1.159  0.00  0.00    +0.405 C 
BRANCH  10  11
ATOM     11  O   UNL     1     -37.614  27.331   1.777  0.00  0.00    -0.435 OA
BRANCH  11  12
ATOM     12  C   UNL     1     -36.791  28.171   0.960  0.00  0.00    +0.210 C 
ATOM     13  C   UNL     1     -35.571  27.390   0.523  0.00  0.00    +0.051 C 
ENDBRANCH  11  12
ENDBRANCH  10  11
ENDBRANCH   3   6
ENDBRANCH   1   3
BRANCH   1  14
ATOM     14  C   UNL     1     -35.980  20.546   1.813  0.00  0.00    -0.049 C 
BRANCH  14  16
ATOM     15 CL   UNL     1     -30.437  20.047  -0.472  0.00  0.00    -0.082 Cl
ATOM     16  C   UNL     1     -34.592  20.422   1.242  0.00  0.00    -0.043 C 
ATOM     17  C   UNL     1     -33.837  19.276   1.489  0.00  0.00    -0.005 C 
ATOM     18  C   UNL     1     -34.064  21.453   0.465  0.00  0.00    -0.005 C 
ATOM     19  C   UNL     1     -32.552  19.161   0.960  0.00  0.00    +0.011 C 
ATOM     20  C   UNL     1     -32.777  21.338  -0.064  0.00  0.00    +0.011 C 
ATOM     21  C   UNL     1     -32.022  20.191   0.183  0.00  0.00    +0.058 C 
ENDBRANCH  14  16
ENDBRANCH   1  14
BRANCH   1  22
ATOM     22  C   UNL     1     -35.542  21.801   3.814  0.00  0.00    -0.043 C 
BRANCH  22  24
ATOM     23  S   UNL     1     -34.436  24.304   3.315  0.00  0.00    -0.070 S 
ATOM     24  C   UNL     1     -35.254  23.188   4.325  0.00  0.00    -0.012 C 
ATOM     25  C   UNL     1     -35.561  23.731   5.552  0.00  0.00    +0.002 C 
ATOM     26  C   UNL     1     -35.121  25.081   5.666  0.00  0.00    +0.031 C 
ATOM     27  C   UNL     1     -34.491  25.518   4.520  0.00  0.00    +0.172 C 
BRANCH  27  30
ATOM     28  O   UNL     1     -32.679  26.933   4.349  0.00  0.00    -0.126 OA
ATOM     29  O   UNL     1     -34.676  27.735   3.917  0.00  0.00    -0.126 OA
ATOM     30  N   UNL     1     -33.929  26.774   4.253  0.00  0.00    +0.064 N 
ENDBRANCH  27  30
ENDBRANCH  22  24
ENDBRANCH   1  22
TORSDOF 9
ENDMDL
MODEL 3
REMARK VINA RESULT:      -6.0      4.526      6.918
REMARK  Name = 57394020
REMARK  9 active torsions:
REMARK  status: ('A' for Active; 'I' for Inactive)
REMARK    1  A    between atoms: N_1  and  C_3
REMARK    2  A    between atoms: N_1  and  C_14
REMARK    3  A    between atoms: N_1  and  C_22
REMARK    4  A    between atoms: C_3  and  C_6
REMARK    5  A    between atoms: C_10  and  O_11
REMARK    6  A    between atoms: O_11  and  C_12
REMARK    7  A    between atoms: C_14  and  C_16
REMARK    8  A    between atoms: C_22  and  C_24
REMARK    9  A    between atoms: C_27  and  N_30
REMARK                            x       y       z     vdW  Elec       q    Type
REMARK                         _______ _______ _______ _____ _____    ______ ____
ROOT
ATOM      1  N   UNL     1     -35.385  19.646   1.041  0.00  0.00    +0.393 N 
ATOM      2  H   UNL     1     -35.100  18.765   1.467  0.00  0.00    -0.079 HD
ENDROOT
BRANCH   1   3
ATOM      3  C   UNL     1     -36.418  20.244   1.879  0.00  0.00    -0.075 C 
BRANCH   3   6
ATOM      4  O   UNL     1     -37.844  25.878   3.359  0.00  0.00    -0.226 OA
ATOM      5  N   UNL     1     -37.169  23.742   2.794  0.00  0.00    -0.246 N 
ATOM      6  C   UNL     1     -36.404  21.758   1.773  0.00  0.00    +0.001 C 
ATOM      7  C   UNL     1     -37.580  22.320   0.969  0.00  0.00    +0.021 C 
ATOM      8  C   UNL     1     -36.553  22.461   3.121  0.00  0.00    +0.095 C 
ATOM      9  C   UNL     1     -37.629  23.774   1.415  0.00  0.00    +0.097 C 
ATOM     10  C   UNL     1     -37.317  24.810   3.662  0.00  0.00    +0.405 C 
BRANCH  10  11
ATOM     11  O   UNL     1     -36.809  24.536   4.903  0.00  0.00    -0.435 OA
BRANCH  11  12
ATOM     12  C   UNL     1     -35.971  25.547   5.475  0.00  0.00    +0.210 C 
ATOM     13  C   UNL     1     -34.523  25.145   5.298  0.00  0.00    +0.051 C 
ENDBRANCH  11  12
ENDBRANCH  10  11
ENDBRANCH   3   6
ENDBRANCH   1   3
BRANCH   1  14
ATOM     14  C   UNL     1     -34.217  20.524   0.959  0.00  0.00    -0.049 C 
BRANCH  14  16
ATOM     15 CL   UNL     1     -29.117  17.403   0.293  0.00  0.00    -0.082 Cl
ATOM     16  C   UNL     1     -32.940  19.743   0.793  0.00  0.00    -0.043 C 
ATOM     17  C   UNL     1     -32.803  18.493   1.396  0.00  0.00    -0.005 C 
ATOM     18  C   UNL     1     -31.894  20.270   0.035  0.00  0.00    -0.005 C 
ATOM     19  C   UNL     1     -31.621  17.770   1.243  0.00  0.00    +0.011 C 
ATOM     20  C   UNL     1     -30.711  19.547  -0.118  0.00  0.00    +0.011 C 
ATOM     21  C   UNL     1     -30.574  18.296   0.485  0.00  0.00    +0.058 C 
ENDBRANCH  14  16
ENDBRANCH   1  14
BRANCH   1  22
ATOM     22  C   UNL     1     -35.906  19.368  -0.299  0.00  0.00    -0.043 C 
BRANCH  22  24
ATOM     23  S   UNL     1     -38.187  17.803  -0.595  0.00  0.00    -0.070 S 
ATOM     24  C   UNL     1     -36.495  17.986  -0.395  0.00  0.00    -0.012 C 
ATOM     25  C   UNL     1     -35.848  16.771  -0.342  0.00  0.00    +0.002 C 
ATOM     26  C   UNL     1     -36.751  15.677  -0.468  0.00  0.00    +0.031 C 
ATOM     27  C   UNL     1     -38.056  16.096  -0.611  0.00  0.00    +0.172 C 
BRANCH  27  30
ATOM     28  O   UNL     1     -39.119  14.071  -0.909  0.00  0.00    -0.126 OA
ATOM     29  O   UNL     1     -40.347  15.884  -0.746  0.00  0.00    -0.126 OA
ATOM     30  N   UNL     1     -39.215  15.323  -0.761  0.00  0.00    +0.064 N 
ENDBRANCH  27  30
ENDBRANCH  22  24
ENDBRANCH   1  22
TORSDOF 9
ENDMDL
MODEL 4
REMARK VINA RESULT:      -5.9      4.994      7.123
REMARK  Name = 57394020
REMARK  9 active torsions:
REMARK  status: ('A' for Active; 'I' for Inactive)
REMARK    1  A    between atoms: N_1  and  C_3
REMARK    2  A    between atoms: N_1  and  C_14
REMARK    3  A    between atoms: N_1  and  C_22
REMARK    4  A    between atoms: C_3  and  C_6
REMARK    5  A    between atoms: C_10  and  O_11
REMARK    6  A    between atoms: O_11  and  C_12
REMARK    7  A    between atoms: C_14  and  C_16
REMARK    8  A    between atoms: C_22  and  C_24
REMARK    9  A    between atoms: C_27  and  N_30
REMARK                            x       y       z     vdW  Elec       q    Type
REMARK                         _______ _______ _______ _____ _____    ______ ____
ROOT
ATOM      1  N   UNL     1     -35.647  19.578   1.113  0.00  0.00    +0.393 N 
ATOM      2  H   UNL     1     -35.259  18.679   1.397  0.00  0.00    -0.079 HD
ENDROOT
BRANCH   1   3
ATOM      3  C   UNL     1     -36.458  20.091   2.210  0.00  0.00    -0.075 C 
BRANCH   3   6
ATOM      4  O   UNL     1     -37.120  25.633   4.405  0.00  0.00    -0.226 OA
ATOM      5  N   UNL     1     -36.755  23.538   3.502  0.00  0.00    -0.246 N 
ATOM      6  C   UNL     1     -36.549  21.606   2.165  0.00  0.00    +0.001 C 
ATOM      7  C   UNL     1     -37.988  22.124   2.087  0.00  0.00    +0.021 C 
ATOM      8  C   UNL     1     -36.017  22.282   3.427  0.00  0.00    +0.095 C 
ATOM      9  C   UNL     1     -37.851  23.568   2.547  0.00  0.00    +0.097 C 
ATOM     10  C   UNL     1     -36.477  24.586   4.362  0.00  0.00    +0.405 C 
BRANCH  10  11
ATOM     11  O   UNL     1     -35.401  24.319   5.165  0.00  0.00    -0.435 OA
BRANCH  11  12
ATOM     12  C   UNL     1     -34.214  25.073   4.895  0.00  0.00    +0.210 C 
ATOM     13  C   UNL     1     -34.043  26.125   5.969  0.00  0.00    +0.051 C 
ENDBRANCH  11  12
ENDBRANCH  10  11
ENDBRANCH   3   6
ENDBRANCH   1   3
BRANCH   1  14
ATOM     14  C   UNL     1     -34.541  20.490   0.819  0.00  0.00    -0.049 C 
BRANCH  14  16
ATOM     15 CL   UNL     1     -29.273  17.602   0.507  0.00  0.00    -0.082 Cl
ATOM     16  C   UNL     1     -33.222  19.766   0.741  0.00  0.00    -0.043 C 
ATOM     17  C   UNL     1     -32.159  20.330   0.035  0.00  0.00    -0.005 C 
ATOM     18  C   UNL     1     -33.065  18.534   1.374  0.00  0.00    -0.005 C 
ATOM     19  C   UNL     1     -30.939  19.659  -0.038  0.00  0.00    +0.011 C 
ATOM     20  C   UNL     1     -31.843  17.863   1.301  0.00  0.00    +0.011 C 
ATOM     21  C   UNL     1     -30.780  18.426   0.595  0.00  0.00    +0.058 C 
ENDBRANCH  14  16
ENDBRANCH   1  14
BRANCH   1  22
ATOM     22  C   UNL     1     -36.467  19.373  -0.082  0.00  0.00    -0.043 C 
BRANCH  22  24
ATOM     23  S   UNL     1     -35.383  16.972  -0.976  0.00  0.00    -0.070 S 
ATOM     24  C   UNL     1     -36.682  17.912  -0.371  0.00  0.00    -0.012 C 
ATOM     25  C   UNL     1     -37.831  17.167  -0.218  0.00  0.00    +0.002 C 
ATOM     26  C   UNL     1     -37.643  15.808  -0.601  0.00  0.00    +0.031 C 
ATOM     27  C   UNL     1     -36.358  15.565  -1.034  0.00  0.00    +0.172 C 
BRANCH  27  30
ATOM     28  O   UNL     1     -36.528  13.341  -1.620  0.00  0.00    -0.126 OA
ATOM     29  O   UNL     1     -34.564  14.312  -1.759  0.00  0.00    -0.126 OA
ATOM     30  N   UNL     1     -35.796  14.363  -1.487  0.00  0.00    +0.064 N 
ENDBRANCH  27  30
ENDBRANCH  22  24
ENDBRANCH   1  22
TORSDOF 9
ENDMDL
MODEL 5
REMARK VINA RESULT:      -5.8      1.748      2.482
REMARK  Name = 57394020
REMARK  9 active torsions:
REMARK  status: ('A' for Active; 'I' for Inactive)
REMARK    1  A    between atoms: N_1  and  C_3
REMARK    2  A    between atoms: N_1  and  C_14
REMARK    3  A    between atoms: N_1  and  C_22
REMARK    4  A    between atoms: C_3  and  C_6
REMARK    5  A    between atoms: C_10  and  O_11
REMARK    6  A    between atoms: O_11  and  C_12
REMARK    7  A    between atoms: C_14  and  C_16
REMARK    8  A    between atoms: C_22  and  C_24
REMARK    9  A    between atoms: C_27  and  N_30
REMARK                            x       y       z     vdW  Elec       q    Type
REMARK                         _______ _______ _______ _____ _____    ______ ____
ROOT
ATOM      1  N   UNL     1     -35.457  20.725   1.938  0.00  0.00    +0.393 N 
ATOM      2  H   UNL     1     -35.274  21.521   1.327  0.00  0.00    -0.079 HD
ENDROOT
BRANCH   1   3
ATOM      3  C   UNL     1     -36.798  20.230   1.653  0.00  0.00    -0.075 C 
BRANCH   3   6
ATOM      4  O   UNL     1     -41.397  24.039   1.097  0.00  0.00    -0.226 OA
ATOM      5  N   UNL     1     -39.545  22.672   1.288  0.00  0.00    -0.246 N 
ATOM      6  C   UNL     1     -37.650  21.299   0.992  0.00  0.00    +0.001 C 
ATOM      7  C   UNL     1     -38.820  20.728   0.186  0.00  0.00    +0.021 C 
ATOM      8  C   UNL     1     -38.349  22.220   1.990  0.00  0.00    +0.095 C 
ATOM      9  C   UNL     1     -39.757  21.920   0.062  0.00  0.00    +0.097 C 
ATOM     10  C   UNL     1     -40.393  23.682   1.709  0.00  0.00    +0.405 C 
BRANCH  10  11
ATOM     11  O   UNL     1     -39.983  24.236   2.892  0.00  0.00    -0.435 OA
BRANCH  11  12
ATOM     12  C   UNL     1     -39.834  25.660   2.899  0.00  0.00    +0.210 C 
ATOM     13  C   UNL     1     -38.367  26.003   2.754  0.00  0.00    +0.051 C 
ENDBRANCH  11  12
ENDBRANCH  10  11
ENDBRANCH   3   6
ENDBRANCH   1   3
BRANCH   1  14
ATOM     14  C   UNL     1     -34.458  19.691   1.668  0.00  0.00    -0.049 C 
BRANCH  14  16
ATOM     15 CL   UNL     1     -29.969  21.752  -1.768  0.00  0.00    -0.082 Cl
ATOM     16  C   UNL     1     -33.334  20.208   0.808  0.00  0.00    -0.043 C 
ATOM     17  C   UNL     1     -32.168  19.457   0.660  0.00  0.00    -0.005 C 
ATOM     18  C   UNL     1     -33.460  21.436   0.160  0.00  0.00    -0.005 C 
ATOM     19  C   UNL     1     -31.127  19.935  -0.135  0.00  0.00    +0.011 C 
ATOM     20  C   UNL     1     -32.418  21.915  -0.636  0.00  0.00    +0.011 C 
ATOM     21  C   UNL     1     -31.252  21.164  -0.784  0.00  0.00    +0.058 C 
ENDBRANCH  14  16
ENDBRANCH   1  14
BRANCH   1  22
ATOM     22  C   UNL     1     -35.358  21.175   3.328  0.00  0.00    -0.043 C 
BRANCH  22  24
ATOM     23  S   UNL     1     -35.382  23.444   4.938  0.00  0.00    -0.070 S 
ATOM     24  C   UNL     1     -35.188  22.668   3.423  0.00  0.00    -0.012 C 
ATOM     25  C   UNL     1     -34.884  23.563   2.420  0.00  0.00    +0.002 C 
ATOM     26  C   UNL     1     -34.809  24.901   2.902  0.00  0.00    +0.031 C 
ATOM     27  C   UNL     1     -35.060  24.980   4.254  0.00  0.00    +0.172 C 
BRANCH  27  30
ATOM     28  O   UNL     1     -36.098  26.362   5.781  0.00  0.00    -0.126 OA
ATOM     29  O   UNL     1     -34.070  26.875   5.116  0.00  0.00    -0.126 OA
ATOM     30  N   UNL     1     -35.077  26.113   5.080  0.00  0.00    +0.064 N 
ENDBRANCH  27  30
ENDBRANCH  22  24
ENDBRANCH   1  22
TORSDOF 9
ENDMDL
MODEL 6
REMARK VINA RESULT:      -5.8      3.933      6.794
REMARK  Name = 57394020
REMARK  9 active torsions:
REMARK  status: ('A' for Active; 'I' for Inactive)
REMARK    1  A    between atoms: N_1  and  C_3
REMARK    2  A    between atoms: N_1  and  C_14
REMARK    3  A    between atoms: N_1  and  C_22
REMARK    4  A    between atoms: C_3  and  C_6
REMARK    5  A    between atoms: C_10  and  O_11
REMARK    6  A    between atoms: O_11  and  C_12
REMARK    7  A    between atoms: C_14  and  C_16
REMARK    8  A    between atoms: C_22  and  C_24
REMARK    9  A    between atoms: C_27  and  N_30
REMARK                            x       y       z     vdW  Elec       q    Type
REMARK                         _______ _______ _______ _____ _____    ______ ____
ROOT
ATOM      1  N   UNL     1     -36.174  21.274   1.816  0.00  0.00    +0.393 N 
ATOM      2  H   UNL     1     -35.828  22.134   1.391  0.00  0.00    -0.079 HD
ENDROOT
BRANCH   1   3
ATOM      3  C   UNL     1     -35.547  21.127   3.124  0.00  0.00    -0.075 C 
BRANCH   3   6
ATOM      4  O   UNL     1     -34.304  26.324   5.847  0.00  0.00    -0.226 OA
ATOM      5  N   UNL     1     -34.891  24.377   4.750  0.00  0.00    -0.246 N 
ATOM      6  C   UNL     1     -35.810  22.339   3.999  0.00  0.00    +0.001 C 
ATOM      7  C   UNL     1     -35.309  22.169   5.436  0.00  0.00    +0.021 C 
ATOM      8  C   UNL     1     -35.074  23.594   3.533  0.00  0.00    +0.095 C 
ATOM      9  C   UNL     1     -35.225  23.604   5.935  0.00  0.00    +0.097 C 
ATOM     10  C   UNL     1     -34.452  25.689   4.805  0.00  0.00    +0.405 C 
BRANCH  10  11
ATOM     11  O   UNL     1     -34.200  26.198   3.559  0.00  0.00    -0.435 OA
BRANCH  11  12
ATOM     12  C   UNL     1     -34.942  27.369   3.198  0.00  0.00    +0.210 C 
ATOM     13  C   UNL     1     -36.086  26.967   2.292  0.00  0.00    +0.051 C 
ENDBRANCH  11  12
ENDBRANCH  10  11
ENDBRANCH   3   6
ENDBRANCH   1   3
BRANCH   1  14
ATOM     14  C   UNL     1     -37.628  21.373   1.950  0.00  0.00    -0.049 C 
BRANCH  14  16
ATOM     15 CL   UNL     1     -39.648  26.842   0.468  0.00  0.00    -0.082 Cl
ATOM     16  C   UNL     1     -38.134  22.742   1.580  0.00  0.00    -0.043 C 
ATOM     17  C   UNL     1     -37.642  23.383   0.442  0.00  0.00    -0.005 C 
ATOM     18  C   UNL     1     -39.093  23.369   2.374  0.00  0.00    -0.005 C 
ATOM     19  C   UNL     1     -38.110  24.651   0.099  0.00  0.00    +0.011 C 
ATOM     20  C   UNL     1     -39.561  24.639   2.031  0.00  0.00    +0.011 C 
ATOM     21  C   UNL     1     -39.070  25.279   0.893  0.00  0.00    +0.058 C 
ENDBRANCH  14  16
ENDBRANCH   1  14
BRANCH   1  22
ATOM     22  C   UNL     1     -35.821  20.151   0.946  0.00  0.00    -0.043 C 
BRANCH  22  24
ATOM     23  S   UNL     1     -33.452  18.705   1.144  0.00  0.00    -0.070 S 
ATOM     24  C   UNL     1     -34.340  20.094   0.677  0.00  0.00    -0.012 C 
ATOM     25  C   UNL     1     -33.539  21.043   0.081  0.00  0.00    +0.002 C 
ATOM     26  C   UNL     1     -32.180  20.625   0.005  0.00  0.00    +0.031 C 
ATOM     27  C   UNL     1     -31.992  19.372   0.548  0.00  0.00    +0.172 C 
BRANCH  27  30
ATOM     28  O   UNL     1     -29.770  19.015   0.045  0.00  0.00    -0.126 OA
ATOM     29  O   UNL     1     -30.787  17.585   1.364  0.00  0.00    -0.126 OA
ATOM     30  N   UNL     1     -30.807  18.631   0.656  0.00  0.00    +0.064 N 
ENDBRANCH  27  30
ENDBRANCH  22  24
ENDBRANCH   1  22
TORSDOF 9
ENDMDL
MODEL 7
REMARK VINA RESULT:      -5.7      2.926      6.290
REMARK  Name = 57394020
REMARK  9 active torsions:
REMARK  status: ('A' for Active; 'I' for Inactive)
REMARK    1  A    between atoms: N_1  and  C_3
REMARK    2  A    between atoms: N_1  and  C_14
REMARK    3  A    between atoms: N_1  and  C_22
REMARK    4  A    between atoms: C_3  and  C_6
REMARK    5  A    between atoms: C_10  and  O_11
REMARK    6  A    between atoms: O_11  and  C_12
REMARK    7  A    between atoms: C_14  and  C_16
REMARK    8  A    between atoms: C_22  and  C_24
REMARK    9  A    between atoms: C_27  and  N_30
REMARK                            x       y       z     vdW  Elec       q    Type
REMARK                         _______ _______ _______ _____ _____    ______ ____
ROOT
ATOM      1  N   UNL     1     -34.606  24.080   0.769  0.00  0.00    +0.393 N 
ATOM      2  H   UNL     1     -34.791  23.416   1.521  0.00  0.00    -0.079 HD
ENDROOT
BRANCH   1   3
ATOM      3  C   UNL     1     -33.773  25.151   1.301  0.00  0.00    -0.075 C 
BRANCH   3   6
ATOM      4  O   UNL     1     -33.245  26.909   7.011  0.00  0.00    -0.226 OA
ATOM      5  N   UNL     1     -33.525  26.335   4.791  0.00  0.00    -0.246 N 
ATOM      6  C   UNL     1     -34.251  25.588   2.674  0.00  0.00    +0.001 C 
ATOM      7  C   UNL     1     -34.348  24.436   3.678  0.00  0.00    +0.021 C 
ATOM      8  C   UNL     1     -33.295  26.557   3.367  0.00  0.00    +0.095 C 
ATOM      9  C   UNL     1     -34.345  25.156   5.019  0.00  0.00    +0.097 C 
ATOM     10  C   UNL     1     -33.037  27.124   5.819  0.00  0.00    +0.405 C 
BRANCH  10  11
ATOM     11  O   UNL     1     -32.291  28.172   5.351  0.00  0.00    -0.435 OA
BRANCH  11  12
ATOM     12  C   UNL     1     -31.791  29.076   6.342  0.00  0.00    +0.210 C 
ATOM     13  C   UNL     1     -32.005  30.497   5.866  0.00  0.00    +0.051 C 
ENDBRANCH  11  12
ENDBRANCH  10  11
ENDBRANCH   3   6
ENDBRANCH   1   3
BRANCH   1  14
ATOM     14  C   UNL     1     -33.914  23.378  -0.313  0.00  0.00    -0.049 C 
BRANCH  14  16
ATOM     15 CL   UNL     1     -32.197  17.853   1.340  0.00  0.00    -0.082 Cl
ATOM     16  C   UNL     1     -33.483  21.995   0.101  0.00  0.00    -0.043 C 
ATOM     17  C   UNL     1     -34.300  21.231   0.935  0.00  0.00    -0.005 C 
ATOM     18  C   UNL     1     -32.269  21.479  -0.350  0.00  0.00    -0.005 C 
ATOM     19  C   UNL     1     -33.901  19.951   1.319  0.00  0.00    +0.011 C 
ATOM     20  C   UNL     1     -31.870  20.198   0.034  0.00  0.00    +0.011 C 
ATOM     21  C   UNL     1     -32.686  19.434   0.868  0.00  0.00    +0.058 C 
ENDBRANCH  14  16
ENDBRANCH   1  14
BRANCH   1  22
ATOM     22  C   UNL     1     -35.885  24.610   0.292  0.00  0.00    -0.043 C 
BRANCH  22  24
ATOM     23  S   UNL     1     -37.713  22.517   0.156  0.00  0.00    -0.070 S 
ATOM     24  C   UNL     1     -37.055  23.901   0.922  0.00  0.00    -0.012 C 
ATOM     25  C   UNL     1     -37.721  24.213   2.087  0.00  0.00    +0.002 C 
ATOM     26  C   UNL     1     -38.784  23.304   2.355  0.00  0.00    +0.031 C 
ATOM     27  C   UNL     1     -38.892  22.332   1.384  0.00  0.00    +0.172 C 
BRANCH  27  30
ATOM     28  O   UNL     1     -39.937  20.643   0.212  0.00  0.00    -0.126 OA
ATOM     29  O   UNL     1     -40.490  20.955   2.314  0.00  0.00    -0.126 OA
ATOM     30  N   UNL     1     -39.806  21.272   1.300  0.00  0.00    +0.064 N 
ENDBRANCH  27  30
ENDBRANCH  22  24
ENDBRANCH   1  22
TORSDOF 9
ENDMDL
MODEL 8
REMARK VINA RESULT:      -5.7      4.399      6.889
REMARK  Name = 57394020
REMARK  9 active torsions:
REMARK  status: ('A' for Active; 'I' for Inactive)
REMARK    1  A    between atoms: N_1  and  C_3
REMARK    2  A    between atoms: N_1  and  C_14
REMARK    3  A    between atoms: N_1  and  C_22
REMARK    4  A    between atoms: C_3  and  C_6
REMARK    5  A    between atoms: C_10  and  O_11
REMARK    6  A    between atoms: O_11  and  C_12
REMARK    7  A    between atoms: C_14  and  C_16
REMARK    8  A    between atoms: C_22  and  C_24
REMARK    9  A    between atoms: C_27  and  N_30
REMARK                            x       y       z     vdW  Elec       q    Type
REMARK                         _______ _______ _______ _____ _____    ______ ____
ROOT
ATOM      1  N   UNL     1     -34.314  21.144  -0.039  0.00  0.00    +0.393 N 
ATOM      2  H   UNL     1     -34.372  20.464   0.720  0.00  0.00    -0.079 HD
ENDROOT
BRANCH   1   3
ATOM      3  C   UNL     1     -35.084  22.320   0.344  0.00  0.00    -0.075 C 
BRANCH   3   6
ATOM      4  O   UNL     1     -35.154  22.465   6.340  0.00  0.00    -0.226 OA
ATOM      5  N   UNL     1     -35.235  22.482   4.031  0.00  0.00    -0.246 N 
ATOM      6  C   UNL     1     -35.672  22.164   1.735  0.00  0.00    +0.001 C 
ATOM      7  C   UNL     1     -35.351  20.813   2.381  0.00  0.00    +0.021 C 
ATOM      8  C   UNL     1     -35.110  23.161   2.746  0.00  0.00    +0.095 C 
ATOM      9  C   UNL     1     -35.589  21.082   3.860  0.00  0.00    +0.097 C 
ATOM     10  C   UNL     1     -35.045  23.064   5.273  0.00  0.00    +0.405 C 
BRANCH  10  11
ATOM     11  O   UNL     1     -34.716  24.390   5.172  0.00  0.00    -0.435 OA
BRANCH  11  12
ATOM     12  C   UNL     1     -35.769  25.319   5.451  0.00  0.00    +0.210 C 
ATOM     13  C   UNL     1     -35.683  26.470   4.472  0.00  0.00    +0.051 C 
ENDBRANCH  11  12
ENDBRANCH  10  11
ENDBRANCH   3   6
ENDBRANCH   1   3
BRANCH   1  14
ATOM     14  C   UNL     1     -32.908  21.492  -0.245  0.00  0.00    -0.049 C 
BRANCH  14  16
ATOM     15 CL   UNL     1     -29.262  16.821   0.798  0.00  0.00    -0.082 Cl
ATOM     16  C   UNL     1     -31.996  20.322   0.016  0.00  0.00    -0.043 C 
ATOM     17  C   UNL     1     -30.735  20.275  -0.579  0.00  0.00    -0.005 C 
ATOM     18  C   UNL     1     -32.412  19.287   0.852  0.00  0.00    -0.005 C 
ATOM     19  C   UNL     1     -29.891  19.192  -0.338  0.00  0.00    +0.011 C 
ATOM     20  C   UNL     1     -31.567  18.203   1.093  0.00  0.00    +0.011 C 
ATOM     21  C   UNL     1     -30.306  18.156   0.498  0.00  0.00    +0.058 C 
ENDBRANCH  14  16
ENDBRANCH   1  14
BRANCH   1  22
ATOM     22  C   UNL     1     -34.869  20.536  -1.250  0.00  0.00    -0.043 C 
BRANCH  22  24
ATOM     23  S   UNL     1     -35.292  17.850  -0.663  0.00  0.00    -0.070 S 
ATOM     24  C   UNL     1     -35.856  19.446  -0.929  0.00  0.00    -0.012 C 
ATOM     25  C   UNL     1     -37.225  19.536  -0.812  0.00  0.00    +0.002 C 
ATOM     26  C   UNL     1     -37.820  18.280  -0.498  0.00  0.00    +0.031 C 
ATOM     27  C   UNL     1     -36.882  17.276  -0.389  0.00  0.00    +0.172 C 
BRANCH  27  30
ATOM     28  O   UNL     1     -38.252  15.461  -0.006  0.00  0.00    -0.126 OA
ATOM     29  O   UNL     1     -36.078  15.167   0.079  0.00  0.00    -0.126 OA
ATOM     30  N   UNL     1     -37.078  15.919  -0.095  0.00  0.00    +0.064 N 
ENDBRANCH  27  30
ENDBRANCH  22  24
ENDBRANCH   1  22
TORSDOF 9
ENDMDL
MODEL 9
REMARK VINA RESULT:      -5.7      1.571      1.904
REMARK  Name = 57394020
REMARK  9 active torsions:
REMARK  status: ('A' for Active; 'I' for Inactive)
REMARK    1  A    between atoms: N_1  and  C_3
REMARK    2  A    between atoms: N_1  and  C_14
REMARK    3  A    between atoms: N_1  and  C_22
REMARK    4  A    between atoms: C_3  and  C_6
REMARK    5  A    between atoms: C_10  and  O_11
REMARK    6  A    between atoms: O_11  and  C_12
REMARK    7  A    between atoms: C_14  and  C_16
REMARK    8  A    between atoms: C_22  and  C_24
REMARK    9  A    between atoms: C_27  and  N_30
REMARK                            x       y       z     vdW  Elec       q    Type
REMARK                         _______ _______ _______ _____ _____    ______ ____
ROOT
ATOM      1  N   UNL     1     -36.181  21.291   2.024  0.00  0.00    +0.393 N 
ATOM      2  H   UNL     1     -35.808  21.968   1.359  0.00  0.00    -0.079 HD
ENDROOT
BRANCH   1   3
ATOM      3  C   UNL     1     -37.636  21.379   1.994  0.00  0.00    -0.075 C 
BRANCH   3   6
ATOM      4  O   UNL     1     -41.433  24.767  -1.180  0.00  0.00    -0.226 OA
ATOM      5  N   UNL     1     -39.952  23.563   0.122  0.00  0.00    -0.246 N 
ATOM      6  C   UNL     1     -38.098  22.596   1.214  0.00  0.00    +0.001 C 
ATOM      7  C   UNL     1     -37.929  22.445  -0.300  0.00  0.00    +0.021 C 
ATOM      8  C   UNL     1     -39.592  22.877   1.358  0.00  0.00    +0.095 C 
ATOM      9  C   UNL     1     -38.874  23.503  -0.852  0.00  0.00    +0.097 C 
ATOM     10  C   UNL     1     -41.157  24.198  -0.126  0.00  0.00    +0.405 C 
BRANCH  10  11
ATOM     11  O   UNL     1     -42.009  24.117   0.942  0.00  0.00    -0.435 OA
BRANCH  11  12
ATOM     12  C   UNL     1     -42.586  25.352   1.380  0.00  0.00    +0.210 C 
ATOM     13  C   UNL     1     -41.573  26.098   2.222  0.00  0.00    +0.051 C 
ENDBRANCH  11  12
ENDBRANCH  10  11
ENDBRANCH   3   6
ENDBRANCH   1   3
BRANCH   1  14
ATOM     14  C   UNL     1     -35.737  19.954   1.626  0.00  0.00    -0.049 C 
BRANCH  14  16
ATOM     15 CL   UNL     1     -30.093  19.999  -0.455  0.00  0.00    -0.082 Cl
ATOM     16  C   UNL     1     -34.325  19.965   1.105  0.00  0.00    -0.043 C 
ATOM     17  C   UNL     1     -33.884  21.020   0.305  0.00  0.00    -0.005 C 
ATOM     18  C   UNL     1     -33.457  18.920   1.422  0.00  0.00    -0.005 C 
ATOM     19  C   UNL     1     -32.576  21.029  -0.178  0.00  0.00    +0.011 C 
ATOM     20  C   UNL     1     -32.148  18.929   0.938  0.00  0.00    +0.011 C 
ATOM     21  C   UNL     1     -31.707  19.984   0.139  0.00  0.00    +0.058 C 
ENDBRANCH  14  16
ENDBRANCH   1  14
BRANCH   1  22
ATOM     22  C   UNL     1     -35.672  21.618   3.357  0.00  0.00    -0.043 C 
BRANCH  22  24
ATOM     23  S   UNL     1     -35.000  23.793   4.957  0.00  0.00    -0.070 S 
ATOM     24  C   UNL     1     -35.160  23.032   3.430  0.00  0.00    -0.012 C 
ATOM     25  C   UNL     1     -34.778  23.860   2.398  0.00  0.00    +0.002 C 
ATOM     26  C   UNL     1     -34.348  25.135   2.865  0.00  0.00    +0.031 C 
ATOM     27  C   UNL     1     -34.419  25.235   4.238  0.00  0.00    +0.172 C 
BRANCH  27  30
ATOM     28  O   UNL     1     -33.892  27.459   4.543  0.00  0.00    -0.126 OA
ATOM     29  O   UNL     1     -33.981  26.154   6.306  0.00  0.00    -0.126 OA
ATOM     30  N   UNL     1     -34.085  26.321   5.058  0.00  0.00    +0.064 N 
ENDBRANCH  27  30
ENDBRANCH  22  24
ENDBRANCH   1  22
TORSDOF 9
ENDMDL
