MODEL 1
REMARK VINA RESULT:      -6.6      0.000      0.000
REMARK  Name = 191133
REMARK  3 active torsions:
REMARK  status: ('A' for Active; 'I' for Inactive)
REMARK    1  A    between atoms: P_1  and  O_25
REMARK    2  A    between atoms: C_8  and  O_23
REMARK    3  A    between atoms: C_9  and  N_11
REMARK                            x       y       z     vdW  Elec       q    Type
REMARK                         _______ _______ _______ _____ _____    ______ ____
ROOT
ATOM      1  P   UNL     1     -38.890  24.914   2.562  0.00  0.00    +0.476 P 
ATOM      2  O   UNL     1     -35.383  23.857   2.183  0.00  0.00    -0.333 OA
ATOM      3  O   UNL     1     -37.934  24.184   3.637  0.00  0.00    -0.271 OA
ATOM      4  O   UNL     1     -37.977  24.942   1.228  0.00  0.00    -0.271 OA
ATOM      5  O   UNL     1     -39.410  26.256   2.986  0.00  0.00    -0.227 OA
ATOM      6  C   UNL     1     -37.267  22.980   3.277  0.00  0.00    +0.186 C 
ATOM      7  C   UNL     1     -36.569  23.084   1.926  0.00  0.00    +0.177 C 
ATOM      8  C   UNL     1     -36.091  22.804   4.220  0.00  0.00    +0.188 C 
ATOM      9  C   UNL     1     -34.958  23.570   3.530  0.00  0.00    +0.225 C 
ATOM     10  C   UNL     1     -37.373  23.727   0.807  0.00  0.00    +0.186 C 
ENDROOT
BRANCH   9  11
ATOM     11  N   UNL     1     -34.592  24.814   4.212  0.00  0.00    -0.246 N 
ATOM     12  N   UNL     1     -34.655  26.471   5.726  0.00  0.00    -0.242 NA
ATOM     13  N   UNL     1     -32.731  25.572   2.827  0.00  0.00    -0.126 NA
ATOM     14  N   UNL     1     -31.866  27.536   3.590  0.00  0.00    -0.160 N 
ATOM     15  N   UNL     1     -31.860  26.493   2.673  0.00  0.00    -0.038 NA
ATOM     16  N   UNL     1     -32.513  28.750   5.363  0.00  0.00    -0.224 NA
ATOM     17  C   UNL     1     -33.595  25.680   3.870  0.00  0.00    +0.176 C 
ATOM     18  C   UNL     1     -35.199  25.333   5.334  0.00  0.00    +0.223 C 
ATOM     19  C   UNL     1     -33.669  26.671   4.818  0.00  0.00    +0.144 C 
ATOM     20  C   UNL     1     -32.732  27.668   4.658  0.00  0.00    +0.174 C 
ATOM     21  C   UNL     1     -31.035  28.623   3.628  0.00  0.00    +0.111 C 
ATOM     22  C   UNL     1     -31.453  29.352   4.724  0.00  0.00    +0.118 C 
ENDBRANCH   9  11
BRANCH   8  23
ATOM     23  O   UNL     1     -35.726  21.428   4.287  0.00  0.00    -0.378 OA
ATOM     24  H   UNL     1     -34.801  21.325   4.014  0.00  0.00    +0.211 HD
ENDBRANCH   8  23
BRANCH   1  25
ATOM     25  O   UNL     1     -40.038  23.821   2.238  0.00  0.00    -0.302 OA
ATOM     26  H   UNL     1     -40.553  23.646   3.041  0.00  0.00    +0.222 HD
ENDBRANCH   1  25
TORSDOF 3
ENDMDL
MODEL 2
REMARK VINA RESULT:      -6.6      1.346      2.086
REMARK  Name = 191133
REMARK  3 active torsions:
REMARK  status: ('A' for Active; 'I' for Inactive)
REMARK    1  A    between atoms: P_1  and  O_25
REMARK    2  A    between atoms: C_8  and  O_23
REMARK    3  A    between atoms: C_9  and  N_11
REMARK                            x       y       z     vdW  Elec       q    Type
REMARK                         _______ _______ _______ _____ _____    ______ ____
ROOT
ATOM      1  P   UNL     1     -38.393  25.262   2.863  0.00  0.00    +0.476 P 
ATOM      2  O   UNL     1     -34.989  23.860   2.963  0.00  0.00    -0.333 OA
ATOM      3  O   UNL     1     -37.338  25.255   4.084  0.00  0.00    -0.271 OA
ATOM      4  O   UNL     1     -37.643  24.378   1.735  0.00  0.00    -0.271 OA
ATOM      5  O   UNL     1     -38.817  26.625   2.402  0.00  0.00    -0.227 OA
ATOM      6  C   UNL     1     -36.756  24.025   4.500  0.00  0.00    +0.186 C 
ATOM      7  C   UNL     1     -36.220  23.211   3.328  0.00  0.00    +0.177 C 
ATOM      8  C   UNL     1     -35.483  24.350   5.259  0.00  0.00    +0.188 C 
ATOM      9  C   UNL     1     -34.416  24.419   4.161  0.00  0.00    +0.225 C 
ATOM     10  C   UNL     1     -37.130  23.108   2.114  0.00  0.00    +0.186 C 
ENDROOT
BRANCH   9  11
ATOM     11  N   UNL     1     -33.934  25.776   3.896  0.00  0.00    -0.246 N 
ATOM     12  N   UNL     1     -33.491  27.657   2.751  0.00  0.00    -0.242 NA
ATOM     13  N   UNL     1     -33.051  26.391   6.086  0.00  0.00    -0.126 NA
ATOM     14  N   UNL     1     -32.188  28.500   6.077  0.00  0.00    -0.160 N 
ATOM     15  N   UNL     1     -32.478  27.320   6.750  0.00  0.00    -0.038 NA
ATOM     16  N   UNL     1     -32.081  29.956   4.374  0.00  0.00    -0.224 NA
ATOM     17  C   UNL     1     -33.331  26.625   4.776  0.00  0.00    +0.176 C 
ATOM     18  C   UNL     1     -34.007  26.442   2.692  0.00  0.00    +0.223 C 
ATOM     19  C   UNL     1     -33.080  27.756   4.038  0.00  0.00    +0.144 C 
ATOM     20  C   UNL     1     -32.463  28.761   4.749  0.00  0.00    +0.174 C 
ATOM     21  C   UNL     1     -31.585  29.623   6.577  0.00  0.00    +0.111 C 
ATOM     22  C   UNL     1     -31.531  30.500   5.513  0.00  0.00    +0.118 C 
ENDBRANCH   9  11
BRANCH   8  23
ATOM     23  O   UNL     1     -35.155  23.277   6.136  0.00  0.00    -0.378 OA
ATOM     24  H   UNL     1     -35.517  22.449   5.784  0.00  0.00    +0.211 HD
ENDBRANCH   8  23
BRANCH   1  25
ATOM     25  O   UNL     1     -39.603  24.317   3.372  0.00  0.00    -0.302 OA
ATOM     26  H   UNL     1     -39.246  23.464   3.664  0.00  0.00    +0.222 HD
ENDBRANCH   1  25
TORSDOF 3
ENDMDL
MODEL 3
REMARK VINA RESULT:      -6.5      3.982      6.592
REMARK  Name = 191133
REMARK  3 active torsions:
REMARK  status: ('A' for Active; 'I' for Inactive)
REMARK    1  A    between atoms: P_1  and  O_25
REMARK    2  A    between atoms: C_8  and  O_23
REMARK    3  A    between atoms: C_9  and  N_11
REMARK                            x       y       z     vdW  Elec       q    Type
REMARK                         _______ _______ _______ _____ _____    ______ ____
ROOT
ATOM      1  P   UNL     1     -33.687  26.214   4.843  0.00  0.00    +0.476 P 
ATOM      2  O   UNL     1     -36.648  24.259   3.857  0.00  0.00    -0.333 OA
ATOM      3  O   UNL     1     -33.897  24.615   4.874  0.00  0.00    -0.271 OA
ATOM      4  O   UNL     1     -35.144  26.761   4.405  0.00  0.00    -0.271 OA
ATOM      5  O   UNL     1     -32.559  26.686   3.972  0.00  0.00    -0.227 OA
ATOM      6  C   UNL     1     -35.027  24.070   5.546  0.00  0.00    +0.186 C 
ATOM      7  C   UNL     1     -36.325  24.772   5.162  0.00  0.00    +0.177 C 
ATOM      8  C   UNL     1     -35.259  22.673   5.002  0.00  0.00    +0.188 C 
ATOM      9  C   UNL     1     -36.164  22.904   3.787  0.00  0.00    +0.225 C 
ATOM     10  C   UNL     1     -36.276  26.291   5.123  0.00  0.00    +0.186 C 
ENDROOT
BRANCH   9  11
ATOM     11  N   UNL     1     -35.492  22.681   2.505  0.00  0.00    -0.246 N 
ATOM     12  N   UNL     1     -34.219  23.105   0.704  0.00  0.00    -0.242 NA
ATOM     13  N   UNL     1     -36.203  20.402   1.999  0.00  0.00    -0.126 NA
ATOM     14  N   UNL     1     -35.336  19.675   0.022  0.00  0.00    -0.160 N 
ATOM     15  N   UNL     1     -36.115  19.452   1.150  0.00  0.00    -0.038 NA
ATOM     16  N   UNL     1     -33.990  20.773  -1.399  0.00  0.00    -0.224 NA
ATOM     17  C   UNL     1     -35.532  21.555   1.737  0.00  0.00    +0.176 C 
ATOM     18  C   UNL     1     -34.690  23.583   1.842  0.00  0.00    +0.223 C 
ATOM     19  C   UNL     1     -34.744  21.857   0.653  0.00  0.00    +0.144 C 
ATOM     20  C   UNL     1     -34.645  20.836  -0.267  0.00  0.00    +0.174 C 
ATOM     21  C   UNL     1     -35.094  18.813  -1.014  0.00  0.00    +0.111 C 
ATOM     22  C   UNL     1     -34.267  19.510  -1.872  0.00  0.00    +0.118 C 
ENDBRANCH   9  11
BRANCH   8  23
ATOM     23  O   UNL     1     -35.977  21.895   5.955  0.00  0.00    -0.378 OA
ATOM     24  H   UNL     1     -36.859  21.689   5.606  0.00  0.00    +0.211 HD
ENDBRANCH   8  23
BRANCH   1  25
ATOM     25  O   UNL     1     -33.553  26.632   6.400  0.00  0.00    -0.302 OA
ATOM     26  H   UNL     1     -34.434  26.645   6.807  0.00  0.00    +0.222 HD
ENDBRANCH   1  25
TORSDOF 3
ENDMDL
MODEL 4
REMARK VINA RESULT:      -6.2      1.870      3.122
REMARK  Name = 191133
REMARK  3 active torsions:
REMARK  status: ('A' for Active; 'I' for Inactive)
REMARK    1  A    between atoms: P_1  and  O_25
REMARK    2  A    between atoms: C_8  and  O_23
REMARK    3  A    between atoms: C_9  and  N_11
REMARK                            x       y       z     vdW  Elec       q    Type
REMARK                         _______ _______ _______ _____ _____    ______ ____
ROOT
ATOM      1  P   UNL     1     -35.502  22.716   0.864  0.00  0.00    +0.476 P 
ATOM      2  O   UNL     1     -35.598  23.859   4.363  0.00  0.00    -0.333 OA
ATOM      3  O   UNL     1     -36.341  23.936   1.505  0.00  0.00    -0.271 OA
ATOM      4  O   UNL     1     -34.820  22.028   2.158  0.00  0.00    -0.271 OA
ATOM      5  O   UNL     1     -34.533  23.112  -0.211  0.00  0.00    -0.227 OA
ATOM      6  C   UNL     1     -37.176  23.695   2.632  0.00  0.00    +0.186 C 
ATOM      7  C   UNL     1     -36.464  22.904   3.724  0.00  0.00    +0.177 C 
ATOM      8  C   UNL     1     -37.418  25.025   3.321  0.00  0.00    +0.188 C 
ATOM      9  C   UNL     1     -36.239  25.148   4.292  0.00  0.00    +0.225 C 
ATOM     10  C   UNL     1     -35.657  21.702   3.259  0.00  0.00    +0.186 C 
ENDROOT
BRANCH   9  11
ATOM     11  N   UNL     1     -35.262  26.168   3.904  0.00  0.00    -0.246 N 
ATOM     12  N   UNL     1     -34.202  27.672   2.616  0.00  0.00    -0.242 NA
ATOM     13  N   UNL     1     -33.954  26.363   5.954  0.00  0.00    -0.126 NA
ATOM     14  N   UNL     1     -32.288  27.902   5.740  0.00  0.00    -0.160 N 
ATOM     15  N   UNL     1     -32.970  26.963   6.503  0.00  0.00    -0.038 NA
ATOM     16  N   UNL     1     -31.774  29.161   3.955  0.00  0.00    -0.224 NA
ATOM     17  C   UNL     1     -34.259  26.684   4.669  0.00  0.00    +0.176 C 
ATOM     18  C   UNL     1     -35.187  26.793   2.678  0.00  0.00    +0.223 C 
ATOM     19  C   UNL     1     -33.641  27.595   3.847  0.00  0.00    +0.144 C 
ATOM     20  C   UNL     1     -32.579  28.246   4.433  0.00  0.00    +0.174 C 
ATOM     21  C   UNL     1     -31.213  28.663   6.111  0.00  0.00    +0.111 C 
ATOM     22  C   UNL     1     -30.917  29.427   5.000  0.00  0.00    +0.118 C 
ENDBRANCH   9  11
BRANCH   8  23
ATOM     23  O   UNL     1     -38.621  24.965   4.081  0.00  0.00    -0.378 OA
ATOM     24  H   UNL     1     -39.360  25.288   3.542  0.00  0.00    +0.211 HD
ENDBRANCH   8  23
BRANCH   1  25
ATOM     25  O   UNL     1     -36.630  21.656   0.394  0.00  0.00    -0.302 OA
ATOM     26  H   UNL     1     -36.332  21.204  -0.411  0.00  0.00    +0.222 HD
ENDBRANCH   1  25
TORSDOF 3
ENDMDL
MODEL 5
REMARK VINA RESULT:      -6.2      4.673      7.164
REMARK  Name = 191133
REMARK  3 active torsions:
REMARK  status: ('A' for Active; 'I' for Inactive)
REMARK    1  A    between atoms: P_1  and  O_25
REMARK    2  A    between atoms: C_8  and  O_23
REMARK    3  A    between atoms: C_9  and  N_11
REMARK                            x       y       z     vdW  Elec       q    Type
REMARK                         _______ _______ _______ _____ _____    ______ ____
ROOT
ATOM      1  P   UNL     1     -34.881  25.278   4.713  0.00  0.00    +0.476 P 
ATOM      2  O   UNL     1     -37.403  22.832   3.610  0.00  0.00    -0.333 OA
ATOM      3  O   UNL     1     -35.467  25.030   3.230  0.00  0.00    -0.271 OA
ATOM      4  O   UNL     1     -35.569  24.095   5.575  0.00  0.00    -0.271 OA
ATOM      5  O   UNL     1     -35.108  26.656   5.260  0.00  0.00    -0.227 OA
ATOM      6  C   UNL     1     -35.439  23.720   2.677  0.00  0.00    +0.186 C 
ATOM      7  C   UNL     1     -35.974  22.669   3.644  0.00  0.00    +0.177 C 
ATOM      8  C   UNL     1     -36.469  23.667   1.564  0.00  0.00    +0.188 C 
ATOM      9  C   UNL     1     -37.762  23.274   2.286  0.00  0.00    +0.225 C 
ATOM     10  C   UNL     1     -35.476  22.767   5.077  0.00  0.00    +0.186 C 
ENDROOT
BRANCH   9  11
ATOM     11  N   UNL     1     -38.740  24.361   2.372  0.00  0.00    -0.246 N 
ATOM     12  N   UNL     1     -39.614  26.354   2.926  0.00  0.00    -0.242 NA
ATOM     13  N   UNL     1     -40.605  23.409   1.121  0.00  0.00    -0.126 NA
ATOM     14  N   UNL     1     -42.371  24.846   1.028  0.00  0.00    -0.160 N 
ATOM     15  N   UNL     1     -41.794  23.623   0.707  0.00  0.00    -0.038 NA
ATOM     16  N   UNL     1     -42.544  26.901   1.913  0.00  0.00    -0.224 NA
ATOM     17  C   UNL     1     -39.995  24.387   1.842  0.00  0.00    +0.176 C 
ATOM     18  C   UNL     1     -38.557  25.567   3.014  0.00  0.00    +0.223 C 
ATOM     19  C   UNL     1     -40.490  25.616   2.202  0.00  0.00    +0.144 C 
ATOM     20  C   UNL     1     -41.772  25.854   1.759  0.00  0.00    +0.174 C 
ATOM     21  C   UNL     1     -43.620  25.296   0.696  0.00  0.00    +0.111 C 
ATOM     22  C   UNL     1     -43.702  26.558   1.251  0.00  0.00    +0.118 C 
ENDBRANCH   9  11
BRANCH   8  23
ATOM     23  O   UNL     1     -36.136  22.631   0.644  0.00  0.00    -0.378 OA
ATOM     24  H   UNL     1     -36.950  22.227   0.304  0.00  0.00    +0.211 HD
ENDBRANCH   8  23
BRANCH   1  25
ATOM     25  O   UNL     1     -33.326  24.844   4.608  0.00  0.00    -0.302 OA
ATOM     26  H   UNL     1     -33.258  23.996   4.142  0.00  0.00    +0.222 HD
ENDBRANCH   1  25
TORSDOF 3
ENDMDL
MODEL 6
REMARK VINA RESULT:      -6.2      4.722      6.515
REMARK  Name = 191133
REMARK  3 active torsions:
REMARK  status: ('A' for Active; 'I' for Inactive)
REMARK    1  A    between atoms: P_1  and  O_25
REMARK    2  A    between atoms: C_8  and  O_23
REMARK    3  A    between atoms: C_9  and  N_11
REMARK                            x       y       z     vdW  Elec       q    Type
REMARK                         _______ _______ _______ _____ _____    ______ ____
ROOT
ATOM      1  P   UNL     1     -35.022  24.083   4.273  0.00  0.00    +0.476 P 
ATOM      2  O   UNL     1     -36.383  22.540   1.218  0.00  0.00    -0.333 OA
ATOM      3  O   UNL     1     -35.015  22.530   3.837  0.00  0.00    -0.271 OA
ATOM      4  O   UNL     1     -35.897  24.781   3.106  0.00  0.00    -0.271 OA
ATOM      5  O   UNL     1     -33.664  24.688   4.476  0.00  0.00    -0.227 OA
ATOM      6  C   UNL     1     -36.238  21.899   3.473  0.00  0.00    +0.186 C 
ATOM      7  C   UNL     1     -37.046  22.729   2.481  0.00  0.00    +0.177 C 
ATOM      8  C   UNL     1     -35.898  20.674   2.646  0.00  0.00    +0.188 C 
ATOM      9  C   UNL     1     -35.817  21.215   1.215  0.00  0.00    +0.225 C 
ATOM     10  C   UNL     1     -37.161  24.213   2.789  0.00  0.00    +0.186 C 
ENDROOT
BRANCH   9  11
ATOM     11  N   UNL     1     -34.454  21.258   0.680  0.00  0.00    -0.246 N 
ATOM     12  N   UNL     1     -32.632  22.069  -0.353  0.00  0.00    -0.242 NA
ATOM     13  N   UNL     1     -33.638  19.046   1.311  0.00  0.00    -0.126 NA
ATOM     14  N   UNL     1     -31.486  18.724   0.634  0.00  0.00    -0.160 N 
ATOM     15  N   UNL     1     -32.633  18.259   1.265  0.00  0.00    -0.038 NA
ATOM     16  N   UNL     1     -30.146  20.142  -0.474  0.00  0.00    -0.224 NA
ATOM     17  C   UNL     1     -33.512  20.274   0.741  0.00  0.00    +0.176 C 
ATOM     18  C   UNL     1     -33.877  22.316   0.013  0.00  0.00    +0.223 C 
ATOM     19  C   UNL     1     -32.421  20.810   0.101  0.00  0.00    +0.144 C 
ATOM     20  C   UNL     1     -31.334  19.967   0.049  0.00  0.00    +0.174 C 
ATOM     21  C   UNL     1     -30.297  18.067   0.466  0.00  0.00    +0.111 C 
ATOM     22  C   UNL     1     -29.493  18.957  -0.217  0.00  0.00    +0.118 C 
ENDBRANCH   9  11
BRANCH   8  23
ATOM     23  O   UNL     1     -36.966  19.734   2.711  0.00  0.00    -0.378 OA
ATOM     24  H   UNL     1     -37.756  20.113   2.293  0.00  0.00    +0.211 HD
ENDBRANCH   8  23
BRANCH   1  25
ATOM     25  O   UNL     1     -35.981  24.131   5.575  0.00  0.00    -0.302 OA
ATOM     26  H   UNL     1     -36.617  24.857   5.481  0.00  0.00    +0.222 HD
ENDBRANCH   1  25
TORSDOF 3
ENDMDL
MODEL 7
REMARK VINA RESULT:      -6.2      2.100      3.497
REMARK  Name = 191133
REMARK  3 active torsions:
REMARK  status: ('A' for Active; 'I' for Inactive)
REMARK    1  A    between atoms: P_1  and  O_25
REMARK    2  A    between atoms: C_8  and  O_23
REMARK    3  A    between atoms: C_9  and  N_11
REMARK                            x       y       z     vdW  Elec       q    Type
REMARK                         _______ _______ _______ _____ _____    ______ ____
ROOT
ATOM      1  P   UNL     1     -36.128  22.703   2.647  0.00  0.00    +0.476 P 
ATOM      2  O   UNL     1     -34.335  24.452   5.347  0.00  0.00    -0.333 OA
ATOM      3  O   UNL     1     -36.202  24.260   3.066  0.00  0.00    -0.271 OA
ATOM      4  O   UNL     1     -35.179  22.067   3.791  0.00  0.00    -0.271 OA
ATOM      5  O   UNL     1     -35.663  22.448   1.243  0.00  0.00    -0.227 OA
ATOM      6  C   UNL     1     -36.485  24.608   4.416  0.00  0.00    +0.186 C 
ATOM      7  C   UNL     1     -35.630  23.828   5.409  0.00  0.00    +0.177 C 
ATOM      8  C   UNL     1     -35.999  26.028   4.638  0.00  0.00    +0.188 C 
ATOM      9  C   UNL     1     -34.534  25.848   5.051  0.00  0.00    +0.225 C 
ATOM     10  C   UNL     1     -35.500  22.336   5.149  0.00  0.00    +0.186 C 
ENDROOT
BRANCH   9  11
ATOM     11  N   UNL     1     -33.579  26.282   4.029  0.00  0.00    -0.246 N 
ATOM     12  N   UNL     1     -32.286  26.189   2.196  0.00  0.00    -0.242 NA
ATOM     13  N   UNL     1     -33.059  28.535   4.806  0.00  0.00    -0.126 NA
ATOM     14  N   UNL     1     -31.562  29.568   3.435  0.00  0.00    -0.160 N 
ATOM     15  N   UNL     1     -32.375  29.585   4.561  0.00  0.00    -0.038 NA
ATOM     16  N   UNL     1     -30.592  28.769   1.576  0.00  0.00    -0.224 NA
ATOM     17  C   UNL     1     -32.942  27.484   3.952  0.00  0.00    +0.176 C 
ATOM     18  C   UNL     1     -33.151  25.538   2.952  0.00  0.00    +0.223 C 
ATOM     19  C   UNL     1     -32.167  27.385   2.823  0.00  0.00    +0.144 C 
ATOM     20  C   UNL     1     -31.426  28.514   2.552  0.00  0.00    +0.174 C 
ATOM     21  C   UNL     1     -30.747  30.567   2.974  0.00  0.00    +0.111 C 
ATOM     22  C   UNL     1     -30.163  30.052   1.834  0.00  0.00    +0.118 C 
ENDBRANCH   9  11
BRANCH   8  23
ATOM     23  O   UNL     1     -36.703  26.617   5.728  0.00  0.00    -0.378 OA
ATOM     24  H   UNL     1     -36.072  27.048   6.326  0.00  0.00    +0.211 HD
ENDBRANCH   8  23
BRANCH   1  25
ATOM     25  O   UNL     1     -37.601  22.126   2.982  0.00  0.00    -0.302 OA
ATOM     26  H   UNL     1     -38.272  22.758   2.679  0.00  0.00    +0.222 HD
ENDBRANCH   1  25
TORSDOF 3
ENDMDL
MODEL 8
REMARK VINA RESULT:      -6.2      2.325      3.409
REMARK  Name = 191133
REMARK  3 active torsions:
REMARK  status: ('A' for Active; 'I' for Inactive)
REMARK    1  A    between atoms: P_1  and  O_25
REMARK    2  A    between atoms: C_8  and  O_23
REMARK    3  A    between atoms: C_9  and  N_11
REMARK                            x       y       z     vdW  Elec       q    Type
REMARK                         _______ _______ _______ _____ _____    ______ ____
ROOT
ATOM      1  P   UNL     1     -35.711  23.093   4.726  0.00  0.00    +0.476 P 
ATOM      2  O   UNL     1     -35.842  26.572   3.526  0.00  0.00    -0.333 OA
ATOM      3  O   UNL     1     -34.646  23.886   3.809  0.00  0.00    -0.271 OA
ATOM      4  O   UNL     1     -36.920  24.156   4.875  0.00  0.00    -0.271 OA
ATOM      5  O   UNL     1     -35.168  22.585   6.029  0.00  0.00    -0.227 OA
ATOM      6  C   UNL     1     -35.091  24.538   2.625  0.00  0.00    +0.186 C 
ATOM      7  C   UNL     1     -36.331  25.392   2.863  0.00  0.00    +0.177 C 
ATOM      8  C   UNL     1     -34.058  25.587   2.260  0.00  0.00    +0.188 C 
ATOM      9  C   UNL     1     -34.508  26.825   3.043  0.00  0.00    +0.225 C 
ATOM     10  C   UNL     1     -37.434  24.752   3.692  0.00  0.00    +0.186 C 
ENDROOT
BRANCH   9  11
ATOM     11  N   UNL     1     -33.628  27.162   4.164  0.00  0.00    -0.246 N 
ATOM     12  N   UNL     1     -32.765  27.119   6.236  0.00  0.00    -0.242 NA
ATOM     13  N   UNL     1     -32.172  28.824   3.128  0.00  0.00    -0.126 NA
ATOM     14  N   UNL     1     -30.620  29.609   4.599  0.00  0.00    -0.160 N 
ATOM     15  N   UNL     1     -31.183  29.606   3.329  0.00  0.00    -0.038 NA
ATOM     16  N   UNL     1     -30.325  29.042   6.750  0.00  0.00    -0.224 NA
ATOM     17  C   UNL     1     -32.599  28.056   4.166  0.00  0.00    +0.176 C 
ATOM     18  C   UNL     1     -33.687  26.625   5.431  0.00  0.00    +0.223 C 
ATOM     19  C   UNL     1     -32.103  27.998   5.445  0.00  0.00    +0.144 C 
ATOM     20  C   UNL     1     -31.035  28.839   5.669  0.00  0.00    +0.174 C 
ATOM     21  C   UNL     1     -29.563  30.355   5.045  0.00  0.00    +0.111 C 
ATOM     22  C   UNL     1     -29.402  29.989   6.367  0.00  0.00    +0.118 C 
ENDBRANCH   9  11
BRANCH   8  23
ATOM     23  O   UNL     1     -34.139  25.883   0.868  0.00  0.00    -0.378 OA
ATOM     24  H   UNL     1     -33.582  25.261   0.373  0.00  0.00    +0.211 HD
ENDBRANCH   8  23
BRANCH   1  25
ATOM     25  O   UNL     1     -36.304  21.946   3.752  0.00  0.00    -0.302 OA
ATOM     26  H   UNL     1     -35.636  21.705   3.092  0.00  0.00    +0.222 HD
ENDBRANCH   1  25
TORSDOF 3
ENDMDL
MODEL 9
REMARK VINA RESULT:      -6.0      3.683      5.526
REMARK  Name = 191133
REMARK  3 active torsions:
REMARK  status: ('A' for Active; 'I' for Inactive)
REMARK    1  A    between atoms: P_1  and  O_25
REMARK    2  A    between atoms: C_8  and  O_23
REMARK    3  A    between atoms: C_9  and  N_11
REMARK                            x       y       z     vdW  Elec       q    Type
REMARK                         _______ _______ _______ _____ _____    ______ ____
ROOT
ATOM      1  P   UNL     1     -33.780  25.942   4.318  0.00  0.00    +0.476 P 
ATOM      2  O   UNL     1     -36.691  23.780   3.674  0.00  0.00    -0.333 OA
ATOM      3  O   UNL     1     -33.993  24.391   4.710  0.00  0.00    -0.271 OA
ATOM      4  O   UNL     1     -35.214  26.357   3.696  0.00  0.00    -0.271 OA
ATOM      5  O   UNL     1     -32.611  26.211   3.416  0.00  0.00    -0.227 OA
ATOM      6  C   UNL     1     -35.155  24.006   5.436  0.00  0.00    +0.186 C 
ATOM      7  C   UNL     1     -36.432  24.586   4.838  0.00  0.00    +0.177 C 
ATOM      8  C   UNL     1     -35.361  22.518   5.221  0.00  0.00    +0.188 C 
ATOM      9  C   UNL     1     -36.205  22.451   3.945  0.00  0.00    +0.225 C 
ATOM     10  C   UNL     1     -36.380  26.055   4.449  0.00  0.00    +0.186 C 
ENDROOT
BRANCH   9  11
ATOM     11  N   UNL     1     -35.472  21.943   2.783  0.00  0.00    -0.246 N 
ATOM     12  N   UNL     1     -34.465  20.469   1.421  0.00  0.00    -0.242 NA
ATOM     13  N   UNL     1     -35.118  24.001   1.521  0.00  0.00    -0.126 NA
ATOM     14  N   UNL     1     -33.978  23.612  -0.412  0.00  0.00    -0.160 N 
ATOM     15  N   UNL     1     -34.610  24.492   0.457  0.00  0.00    -0.038 NA
ATOM     16  N   UNL     1     -33.206  21.660  -1.207  0.00  0.00    -0.224 NA
ATOM     17  C   UNL     1     -35.004  22.662   1.723  0.00  0.00    +0.176 C 
ATOM     18  C   UNL     1     -35.123  20.630   2.554  0.00  0.00    +0.223 C 
ATOM     19  C   UNL     1     -34.399  21.726   0.920  0.00  0.00    +0.144 C 
ATOM     20  C   UNL     1     -33.849  22.248  -0.229  0.00  0.00    +0.174 C 
ATOM     21  C   UNL     1     -33.367  23.903  -1.602  0.00  0.00    +0.111 C 
ATOM     22  C   UNL     1     -32.902  22.690  -2.070  0.00  0.00    +0.118 C 
ENDBRANCH   9  11
BRANCH   8  23
ATOM     23  O   UNL     1     -36.126  21.976   6.294  0.00  0.00    -0.378 OA
ATOM     24  H   UNL     1     -35.559  21.872   7.075  0.00  0.00    +0.211 HD
ENDBRANCH   8  23
BRANCH   1  25
ATOM     25  O   UNL     1     -33.722  26.711   5.740  0.00  0.00    -0.302 OA
ATOM     26  H   UNL     1     -33.560  27.656   5.589  0.00  0.00    +0.222 HD
ENDBRANCH   1  25
TORSDOF 3
ENDMDL
