MODEL 1
REMARK VINA RESULT:      -6.1      0.000      0.000
REMARK  Name = 5315
REMARK  7 active torsions:
REMARK  status: ('A' for Active; 'I' for Inactive)
REMARK    1  A    between atoms: C_1  and  S_17
REMARK    2  A    between atoms: C_2  and  N_8
REMARK    3  A    between atoms: C_9  and  C_11
REMARK    4  A    between atoms: C_11  and  C_12
REMARK    5  A    between atoms: C_12  and  C_14
REMARK    6  A    between atoms: C_14  and  O_15
REMARK    7  A    between atoms: S_17  and  N_21
REMARK                            x       y       z     vdW  Elec       q    Type
REMARK                         _______ _______ _______ _____ _____    ______ ____
ROOT
ATOM      1  C   UNL     1     -34.960  25.283   4.523  0.00  0.00    +0.125 C 
ATOM      2  C   UNL     1     -33.013  27.136   5.198  0.00  0.00    +0.050 C 
ATOM      3  C   UNL     1     -34.660  25.522   5.864  0.00  0.00    +0.021 C 
ATOM      4  C   UNL     1     -34.280  25.976   3.522  0.00  0.00    +0.021 C 
ATOM      5  C   UNL     1     -33.679  26.455   6.204  0.00  0.00    +0.016 C 
ATOM      6  C   UNL     1     -33.300  26.909   3.861  0.00  0.00    +0.016 C 
ENDROOT
BRANCH   2   8
ATOM      7  O   UNL     1     -32.979  30.128   4.899  0.00  0.00    -0.275 OA
ATOM      8  N   UNL     1     -32.019  28.081   5.542  0.00  0.00    -0.284 N 
ATOM      9  C   UNL     1     -32.064  29.459   5.369  0.00  0.00    +0.227 C 
ATOM     10  H   UNL     1     -31.200  27.720   5.953  0.00  0.00    +0.155 HD
BRANCH   9  11
ATOM     11  C   UNL     1     -30.795  30.131   5.868  0.00  0.00    +0.097 C 
BRANCH  11  12
ATOM     12  C   UNL     1     -29.570  29.279   5.569  0.00  0.00    +0.119 C 
BRANCH  12  14
ATOM     13  O   UNL     1     -28.355  29.252   7.657  0.00  0.00    -0.250 OA
ATOM     14  C   UNL     1     -29.007  28.645   6.818  0.00  0.00    +0.314 C 
BRANCH  14  15
ATOM     15  O   UNL     1     -29.312  27.327   6.918  0.00  0.00    -0.480 OA
ATOM     16  H   UNL     1     -28.667  26.719   7.222  0.00  0.00    +0.295 HD
ENDBRANCH  14  15
ENDBRANCH  12  14
ENDBRANCH  11  12
ENDBRANCH   9  11
ENDBRANCH   2   8
BRANCH   1  17
ATOM     17  S   UNL     1     -36.186  24.115   4.098  0.00  0.00    +0.075 S 
ATOM     18  O   UNL     1     -35.984  23.719   2.710  0.00  0.00    -0.150 OA
ATOM     19  O   UNL     1     -36.207  23.095   5.139  0.00  0.00    -0.150 OA
BRANCH  17  21
ATOM     20  S   UNL     1     -39.612  25.937   2.481  0.00  0.00    -0.050 S 
ATOM     21  N   UNL     1     -37.608  25.075   4.197  0.00  0.00    -0.194 N 
ATOM     22  N   UNL     1     -38.972  23.482   2.981  0.00  0.00    -0.221 NA
ATOM     23  C   UNL     1     -38.691  24.726   3.251  0.00  0.00    +0.179 C 
ATOM     24  C   UNL     1     -40.495  24.698   1.688  0.00  0.00    +0.059 C 
ATOM     25  C   UNL     1     -40.016  23.466   2.076  0.00  0.00    +0.108 C 
ATOM     26  H   UNL     1     -37.698  25.811   4.844  0.00  0.00    +0.176 HD
ENDBRANCH  17  21
ENDBRANCH   1  17
TORSDOF 7
ENDMDL
MODEL 2
REMARK VINA RESULT:      -6.1      1.164      1.631
REMARK  Name = 5315
REMARK  7 active torsions:
REMARK  status: ('A' for Active; 'I' for Inactive)
REMARK    1  A    between atoms: C_1  and  S_17
REMARK    2  A    between atoms: C_2  and  N_8
REMARK    3  A    between atoms: C_9  and  C_11
REMARK    4  A    between atoms: C_11  and  C_12
REMARK    5  A    between atoms: C_12  and  C_14
REMARK    6  A    between atoms: C_14  and  O_15
REMARK    7  A    between atoms: S_17  and  N_21
REMARK                            x       y       z     vdW  Elec       q    Type
REMARK                         _______ _______ _______ _____ _____    ______ ____
ROOT
ATOM      1  C   UNL     1     -34.757  25.622   4.727  0.00  0.00    +0.125 C 
ATOM      2  C   UNL     1     -32.958  27.602   5.447  0.00  0.00    +0.050 C 
ATOM      3  C   UNL     1     -34.264  26.501   3.763  0.00  0.00    +0.021 C 
ATOM      4  C   UNL     1     -34.343  25.739   6.054  0.00  0.00    +0.021 C 
ATOM      5  C   UNL     1     -33.359  27.498   4.126  0.00  0.00    +0.016 C 
ATOM      6  C   UNL     1     -33.438  26.736   6.417  0.00  0.00    +0.016 C 
ENDROOT
BRANCH   2   8
ATOM      7  O   UNL     1     -30.097  27.405   6.354  0.00  0.00    -0.275 OA
ATOM      8  N   UNL     1     -32.040  28.613   5.816  0.00  0.00    -0.284 N 
ATOM      9  C   UNL     1     -30.726  28.453   6.235  0.00  0.00    +0.227 C 
ATOM     10  H   UNL     1     -32.372  29.539   5.769  0.00  0.00    +0.155 HD
BRANCH   9  11
ATOM     11  C   UNL     1     -30.064  29.787   6.541  0.00  0.00    +0.097 C 
BRANCH  11  12
ATOM     12  C   UNL     1     -28.547  29.667   6.507  0.00  0.00    +0.119 C 
BRANCH  12  14
ATOM     13  O   UNL     1     -27.579  30.433   8.584  0.00  0.00    -0.250 OA
ATOM     14  C   UNL     1     -27.965  29.502   7.889  0.00  0.00    +0.314 C 
BRANCH  14  15
ATOM     15  O   UNL     1     -27.925  28.206   8.288  0.00  0.00    -0.480 OA
ATOM     16  H   UNL     1     -28.338  27.949   9.089  0.00  0.00    +0.295 HD
ENDBRANCH  14  15
ENDBRANCH  12  14
ENDBRANCH  11  12
ENDBRANCH   9  11
ENDBRANCH   2   8
BRANCH   1  17
ATOM     17  S   UNL     1     -35.891  24.374   4.273  0.00  0.00    +0.075 S 
ATOM     18  O   UNL     1     -35.624  23.987   2.893  0.00  0.00    -0.150 OA
ATOM     19  O   UNL     1     -35.874  23.359   5.319  0.00  0.00    -0.150 OA
BRANCH  17  21
ATOM     20  S   UNL     1     -39.412  25.907   2.565  0.00  0.00    -0.050 S 
ATOM     21  N   UNL     1     -37.376  25.238   4.327  0.00  0.00    -0.194 N 
ATOM     22  N   UNL     1     -38.614  23.519   3.151  0.00  0.00    -0.221 NA
ATOM     23  C   UNL     1     -38.421  24.787   3.383  0.00  0.00    +0.179 C 
ATOM     24  C   UNL     1     -40.201  24.587   1.804  0.00  0.00    +0.059 C 
ATOM     25  C   UNL     1     -39.645  23.403   2.238  0.00  0.00    +0.108 C 
ATOM     26  H   UNL     1     -37.522  25.987   4.949  0.00  0.00    +0.176 HD
ENDBRANCH  17  21
ENDBRANCH   1  17
TORSDOF 7
ENDMDL
MODEL 3
REMARK VINA RESULT:      -6.0      3.416      8.470
REMARK  Name = 5315
REMARK  7 active torsions:
REMARK  status: ('A' for Active; 'I' for Inactive)
REMARK    1  A    between atoms: C_1  and  S_17
REMARK    2  A    between atoms: C_2  and  N_8
REMARK    3  A    between atoms: C_9  and  C_11
REMARK    4  A    between atoms: C_11  and  C_12
REMARK    5  A    between atoms: C_12  and  C_14
REMARK    6  A    between atoms: C_14  and  O_15
REMARK    7  A    between atoms: S_17  and  N_21
REMARK                            x       y       z     vdW  Elec       q    Type
REMARK                         _______ _______ _______ _____ _____    ______ ____
ROOT
ATOM      1  C   UNL     1     -32.425  28.138   5.444  0.00  0.00    +0.125 C 
ATOM      2  C   UNL     1     -33.901  25.948   4.606  0.00  0.00    +0.050 C 
ATOM      3  C   UNL     1     -32.929  27.237   6.381  0.00  0.00    +0.021 C 
ATOM      4  C   UNL     1     -32.664  27.937   4.084  0.00  0.00    +0.021 C 
ATOM      5  C   UNL     1     -33.672  26.134   5.959  0.00  0.00    +0.016 C 
ATOM      6  C   UNL     1     -33.406  26.835   3.662  0.00  0.00    +0.016 C 
ENDROOT
BRANCH   2   8
ATOM      7  O   UNL     1     -36.876  25.526   4.501  0.00  0.00    -0.275 OA
ATOM      8  N   UNL     1     -34.654  24.831   4.177  0.00  0.00    -0.284 N 
ATOM      9  C   UNL     1     -36.037  24.697   4.161  0.00  0.00    +0.227 C 
ATOM     10  H   UNL     1     -34.138  24.058   3.851  0.00  0.00    +0.155 HD
BRANCH   9  11
ATOM     11  C   UNL     1     -36.466  23.340   3.626  0.00  0.00    +0.097 C 
BRANCH  11  12
ATOM     12  C   UNL     1     -35.437  22.269   3.960  0.00  0.00    +0.119 C 
BRANCH  12  14
ATOM     13  O   UNL     1     -35.994  22.517   6.298  0.00  0.00    -0.250 OA
ATOM     14  C   UNL     1     -35.534  21.825   5.399  0.00  0.00    +0.314 C 
BRANCH  14  15
ATOM     15  O   UNL     1     -35.067  20.566   5.590  0.00  0.00    -0.480 OA
ATOM     16  H   UNL     1     -34.671  20.100   4.880  0.00  0.00    +0.295 HD
ENDBRANCH  14  15
ENDBRANCH  12  14
ENDBRANCH  11  12
ENDBRANCH   9  11
ENDBRANCH   2   8
BRANCH   1  17
ATOM     17  S   UNL     1     -31.496  29.519   5.972  0.00  0.00    +0.075 S 
ATOM     18  O   UNL     1     -32.150  30.728   5.488  0.00  0.00    -0.150 OA
ATOM     19  O   UNL     1     -31.241  29.363   7.399  0.00  0.00    -0.150 OA
BRANCH  17  21
ATOM     20  S   UNL     1     -27.337  28.987   5.667  0.00  0.00    -0.050 S 
ATOM     21  N   UNL     1     -30.035  29.292   5.094  0.00  0.00    -0.194 N 
ATOM     22  N   UNL     1     -29.264  27.485   6.513  0.00  0.00    -0.221 NA
ATOM     23  C   UNL     1     -28.975  28.530   5.789  0.00  0.00    +0.179 C 
ATOM     24  C   UNL     1     -26.938  27.665   6.685  0.00  0.00    +0.059 C 
ATOM     25  C   UNL     1     -28.085  26.985   7.032  0.00  0.00    +0.108 C 
ATOM     26  H   UNL     1     -29.912  29.648   4.185  0.00  0.00    +0.176 HD
ENDBRANCH  17  21
ENDBRANCH   1  17
TORSDOF 7
ENDMDL
MODEL 4
REMARK VINA RESULT:      -6.0      6.219      8.491
REMARK  Name = 5315
REMARK  7 active torsions:
REMARK  status: ('A' for Active; 'I' for Inactive)
REMARK    1  A    between atoms: C_1  and  S_17
REMARK    2  A    between atoms: C_2  and  N_8
REMARK    3  A    between atoms: C_9  and  C_11
REMARK    4  A    between atoms: C_11  and  C_12
REMARK    5  A    between atoms: C_12  and  C_14
REMARK    6  A    between atoms: C_14  and  O_15
REMARK    7  A    between atoms: S_17  and  N_21
REMARK                            x       y       z     vdW  Elec       q    Type
REMARK                         _______ _______ _______ _____ _____    ______ ____
ROOT
ATOM      1  C   UNL     1     -36.156  19.435   0.655  0.00  0.00    +0.125 C 
ATOM      2  C   UNL     1     -35.846  21.305   2.677  0.00  0.00    +0.050 C 
ATOM      3  C   UNL     1     -34.929  19.561   1.307  0.00  0.00    +0.021 C 
ATOM      4  C   UNL     1     -37.227  20.251   1.022  0.00  0.00    +0.021 C 
ATOM      5  C   UNL     1     -34.773  20.503   2.324  0.00  0.00    +0.016 C 
ATOM      6  C   UNL     1     -37.071  21.192   2.040  0.00  0.00    +0.016 C 
ENDROOT
BRANCH   2   8
ATOM      7  O   UNL     1     -35.134  20.945   5.577  0.00  0.00    -0.275 OA
ATOM      8  N   UNL     1     -35.688  22.260   3.709  0.00  0.00    -0.284 N 
ATOM      9  C   UNL     1     -35.363  22.024   5.038  0.00  0.00    +0.227 C 
ATOM     10  H   UNL     1     -35.823  23.201   3.453  0.00  0.00    +0.155 HD
BRANCH   9  11
ATOM     11  C   UNL     1     -35.285  23.316   5.837  0.00  0.00    +0.097 C 
BRANCH  11  12
ATOM     12  C   UNL     1     -35.192  24.524   4.916  0.00  0.00    +0.119 C 
BRANCH  12  14
ATOM     13  O   UNL     1     -37.521  24.778   4.322  0.00  0.00    -0.250 OA
ATOM     14  C   UNL     1     -36.508  25.257   4.815  0.00  0.00    +0.314 C 
BRANCH  14  15
ATOM     15  O   UNL     1     -36.452  26.506   5.342  0.00  0.00    -0.480 OA
ATOM     16  H   UNL     1     -36.253  26.623   6.250  0.00  0.00    +0.295 HD
ENDBRANCH  14  15
ENDBRANCH  12  14
ENDBRANCH  11  12
ENDBRANCH   9  11
ENDBRANCH   2   8
BRANCH   1  17
ATOM     17  S   UNL     1     -36.351  18.258  -0.619  0.00  0.00    +0.075 S 
ATOM     18  O   UNL     1     -37.089  18.879  -1.712  0.00  0.00    -0.150 OA
ATOM     19  O   UNL     1     -35.045  17.667  -0.880  0.00  0.00    -0.150 OA
BRANCH  17  21
ATOM     20  S   UNL     1     -39.374  15.337  -0.598  0.00  0.00    -0.050 S 
ATOM     21  N   UNL     1     -37.368  17.103   0.148  0.00  0.00    -0.194 N 
ATOM     22  N   UNL     1     -36.956  15.387  -1.513  0.00  0.00    -0.221 NA
ATOM     23  C   UNL     1     -37.788  15.956  -0.686  0.00  0.00    +0.179 C 
ATOM     24  C   UNL     1     -38.940  14.176  -1.783  0.00  0.00    +0.059 C 
ATOM     25  C   UNL     1     -37.623  14.356  -2.148  0.00  0.00    +0.108 C 
ATOM     26  H   UNL     1     -37.652  17.199   1.085  0.00  0.00    +0.176 HD
ENDBRANCH  17  21
ENDBRANCH   1  17
TORSDOF 7
ENDMDL
MODEL 5
REMARK VINA RESULT:      -5.9      2.644      3.235
REMARK  Name = 5315
REMARK  7 active torsions:
REMARK  status: ('A' for Active; 'I' for Inactive)
REMARK    1  A    between atoms: C_1  and  S_17
REMARK    2  A    between atoms: C_2  and  N_8
REMARK    3  A    between atoms: C_9  and  C_11
REMARK    4  A    between atoms: C_11  and  C_12
REMARK    5  A    between atoms: C_12  and  C_14
REMARK    6  A    between atoms: C_14  and  O_15
REMARK    7  A    between atoms: S_17  and  N_21
REMARK                            x       y       z     vdW  Elec       q    Type
REMARK                         _______ _______ _______ _____ _____    ______ ____
ROOT
ATOM      1  C   UNL     1     -34.828  24.567   4.284  0.00  0.00    +0.125 C 
ATOM      2  C   UNL     1     -33.352  26.798   5.008  0.00  0.00    +0.050 C 
ATOM      3  C   UNL     1     -34.041  25.221   3.336  0.00  0.00    +0.021 C 
ATOM      4  C   UNL     1     -34.871  25.036   5.597  0.00  0.00    +0.021 C 
ATOM      5  C   UNL     1     -33.299  26.345   3.701  0.00  0.00    +0.016 C 
ATOM      6  C   UNL     1     -34.128  26.159   5.963  0.00  0.00    +0.016 C 
ENDROOT
BRANCH   2   8
ATOM      7  O   UNL     1     -33.398  29.603   3.925  0.00  0.00    -0.275 OA
ATOM      8  N   UNL     1     -32.600  27.937   5.379  0.00  0.00    -0.284 N 
ATOM      9  C   UNL     1     -32.666  29.211   4.829  0.00  0.00    +0.227 C 
ATOM     10  H   UNL     1     -31.956  27.812   6.113  0.00  0.00    +0.155 HD
BRANCH   9  11
ATOM     11  C   UNL     1     -31.695  30.166   5.503  0.00  0.00    +0.097 C 
BRANCH  11  12
ATOM     12  C   UNL     1     -31.200  29.601   6.827  0.00  0.00    +0.119 C 
BRANCH  12  14
ATOM     13  O   UNL     1     -28.793  29.726   6.649  0.00  0.00    -0.250 OA
ATOM     14  C   UNL     1     -29.804  29.039   6.711  0.00  0.00    +0.314 C 
BRANCH  14  15
ATOM     15  O   UNL     1     -29.787  27.682   6.695  0.00  0.00    -0.480 OA
ATOM     16  H   UNL     1     -30.184  27.200   7.394  0.00  0.00    +0.295 HD
ENDBRANCH  14  15
ENDBRANCH  12  14
ENDBRANCH  11  12
ENDBRANCH   9  11
ENDBRANCH   2   8
BRANCH   1  17
ATOM     17  S   UNL     1     -35.758  23.161   3.828  0.00  0.00    +0.075 S 
ATOM     18  O   UNL     1     -35.342  22.042   4.664  0.00  0.00    -0.150 OA
ATOM     19  O   UNL     1     -37.162  23.550   3.796  0.00  0.00    -0.150 OA
BRANCH  17  21
ATOM     20  S   UNL     1     -34.241  20.761   0.728  0.00  0.00    -0.050 S 
ATOM     21  N   UNL     1     -35.193  22.894   2.226  0.00  0.00    -0.194 N 
ATOM     22  N   UNL     1     -36.540  20.905   1.902  0.00  0.00    -0.221 NA
ATOM     23  C   UNL     1     -35.424  21.541   1.677  0.00  0.00    +0.179 C 
ATOM     24  C   UNL     1     -35.302  19.421   0.584  0.00  0.00    +0.059 C 
ATOM     25  C   UNL     1     -36.469  19.679   1.270  0.00  0.00    +0.108 C 
ATOM     26  H   UNL     1     -34.744  23.599   1.706  0.00  0.00    +0.176 HD
ENDBRANCH  17  21
ENDBRANCH   1  17
TORSDOF 7
ENDMDL
MODEL 6
REMARK VINA RESULT:      -5.9      2.947      4.010
REMARK  Name = 5315
REMARK  7 active torsions:
REMARK  status: ('A' for Active; 'I' for Inactive)
REMARK    1  A    between atoms: C_1  and  S_17
REMARK    2  A    between atoms: C_2  and  N_8
REMARK    3  A    between atoms: C_9  and  C_11
REMARK    4  A    between atoms: C_11  and  C_12
REMARK    5  A    between atoms: C_12  and  C_14
REMARK    6  A    between atoms: C_14  and  O_15
REMARK    7  A    between atoms: S_17  and  N_21
REMARK                            x       y       z     vdW  Elec       q    Type
REMARK                         _______ _______ _______ _____ _____    ______ ____
ROOT
ATOM      1  C   UNL     1     -34.975  24.187   4.205  0.00  0.00    +0.125 C 
ATOM      2  C   UNL     1     -33.786  26.573   4.960  0.00  0.00    +0.050 C 
ATOM      3  C   UNL     1     -34.265  24.938   3.269  0.00  0.00    +0.021 C 
ATOM      4  C   UNL     1     -35.087  24.636   5.521  0.00  0.00    +0.021 C 
ATOM      5  C   UNL     1     -33.667  26.140   3.649  0.00  0.00    +0.016 C 
ATOM      6  C   UNL     1     -34.488  25.838   5.902  0.00  0.00    +0.016 C 
ENDROOT
BRANCH   2   8
ATOM      7  O   UNL     1     -31.453  27.100   6.782  0.00  0.00    -0.275 OA
ATOM      8  N   UNL     1     -33.180  27.791   5.345  0.00  0.00    -0.284 N 
ATOM      9  C   UNL     1     -32.101  27.966   6.203  0.00  0.00    +0.227 C 
ATOM     10  H   UNL     1     -33.567  28.611   4.960  0.00  0.00    +0.155 HD
BRANCH   9  11
ATOM     11  C   UNL     1     -31.743  29.435   6.365  0.00  0.00    +0.097 C 
BRANCH  11  12
ATOM     12  C   UNL     1     -31.073  29.978   5.110  0.00  0.00    +0.119 C 
BRANCH  12  14
ATOM     13  O   UNL     1     -31.529  31.886   3.700  0.00  0.00    -0.250 OA
ATOM     14  C   UNL     1     -31.954  30.965   4.385  0.00  0.00    +0.314 C 
BRANCH  14  15
ATOM     15  O   UNL     1     -33.276  30.716   4.564  0.00  0.00    -0.480 OA
ATOM     16  H   UNL     1     -33.587  29.833   4.591  0.00  0.00    +0.295 HD
ENDBRANCH  14  15
ENDBRANCH  12  14
ENDBRANCH  11  12
ENDBRANCH   9  11
ENDBRANCH   2   8
BRANCH   1  17
ATOM     17  S   UNL     1     -35.726  22.684   3.730  0.00  0.00    +0.075 S 
ATOM     18  O   UNL     1     -35.253  21.630   4.619  0.00  0.00    -0.150 OA
ATOM     19  O   UNL     1     -37.157  22.924   3.599  0.00  0.00    -0.150 OA
BRANCH  17  21
ATOM     20  S   UNL     1     -34.128  20.308   0.651  0.00  0.00    -0.050 S 
ATOM     21  N   UNL     1     -35.034  22.444   2.174  0.00  0.00    -0.194 N 
ATOM     22  N   UNL     1     -36.508  20.603   1.616  0.00  0.00    -0.221 NA
ATOM     23  C   UNL     1     -35.326  21.145   1.530  0.00  0.00    +0.179 C 
ATOM     24  C   UNL     1     -35.281  19.078   0.335  0.00  0.00    +0.059 C 
ATOM     25  C   UNL     1     -36.483  19.407   0.924  0.00  0.00    +0.108 C 
ATOM     26  H   UNL     1     -34.478  23.130   1.738  0.00  0.00    +0.176 HD
ENDBRANCH  17  21
ENDBRANCH   1  17
TORSDOF 7
ENDMDL
MODEL 7
REMARK VINA RESULT:      -5.8      1.832      2.881
REMARK  Name = 5315
REMARK  7 active torsions:
REMARK  status: ('A' for Active; 'I' for Inactive)
REMARK    1  A    between atoms: C_1  and  S_17
REMARK    2  A    between atoms: C_2  and  N_8
REMARK    3  A    between atoms: C_9  and  C_11
REMARK    4  A    between atoms: C_11  and  C_12
REMARK    5  A    between atoms: C_12  and  C_14
REMARK    6  A    between atoms: C_14  and  O_15
REMARK    7  A    between atoms: S_17  and  N_21
REMARK                            x       y       z     vdW  Elec       q    Type
REMARK                         _______ _______ _______ _____ _____    ______ ____
ROOT
ATOM      1  C   UNL     1     -34.878  24.035   4.199  0.00  0.00    +0.125 C 
ATOM      2  C   UNL     1     -33.780  26.510   4.790  0.00  0.00    +0.050 C 
ATOM      3  C   UNL     1     -34.126  24.712   3.239  0.00  0.00    +0.021 C 
ATOM      4  C   UNL     1     -35.077  24.604   5.457  0.00  0.00    +0.021 C 
ATOM      5  C   UNL     1     -33.574  25.958   3.536  0.00  0.00    +0.016 C 
ATOM      6  C   UNL     1     -34.524  25.850   5.756  0.00  0.00    +0.016 C 
ENDROOT
BRANCH   2   8
ATOM      7  O   UNL     1     -31.459  27.243   6.557  0.00  0.00    -0.275 OA
ATOM      8  N   UNL     1     -33.220  27.773   5.092  0.00  0.00    -0.284 N 
ATOM      9  C   UNL     1     -32.145  28.045   5.928  0.00  0.00    +0.227 C 
ATOM     10  H   UNL     1     -33.642  28.550   4.658  0.00  0.00    +0.155 HD
BRANCH   9  11
ATOM     11  C   UNL     1     -31.844  29.534   5.994  0.00  0.00    +0.097 C 
BRANCH  11  12
ATOM     12  C   UNL     1     -31.356  30.054   4.649  0.00  0.00    +0.119 C 
BRANCH  12  14
ATOM     13  O   UNL     1     -31.963  32.069   3.461  0.00  0.00    -0.250 OA
ATOM     14  C   UNL     1     -32.314  31.055   4.052  0.00  0.00    +0.314 C 
BRANCH  14  15
ATOM     15  O   UNL     1     -33.613  30.707   4.229  0.00  0.00    -0.480 OA
ATOM     16  H   UNL     1     -34.173  30.594   3.487  0.00  0.00    +0.295 HD
ENDBRANCH  14  15
ENDBRANCH  12  14
ENDBRANCH  11  12
ENDBRANCH   9  11
ENDBRANCH   2   8
BRANCH   1  17
ATOM     17  S   UNL     1     -35.571  22.477   3.826  0.00  0.00    +0.075 S 
ATOM     18  O   UNL     1     -35.157  22.097   2.481  0.00  0.00    -0.150 OA
ATOM     19  O   UNL     1     -35.284  21.586   4.944  0.00  0.00    -0.150 OA
BRANCH  17  21
ATOM     20  S   UNL     1     -38.840  25.025   3.128  0.00  0.00    -0.050 S 
ATOM     21  N   UNL     1     -37.247  22.855   3.802  0.00  0.00    -0.194 N 
ATOM     22  N   UNL     1     -37.173  23.804   1.573  0.00  0.00    -0.221 NA
ATOM     23  C   UNL     1     -37.675  23.831   2.776  0.00  0.00    +0.179 C 
ATOM     24  C   UNL     1     -38.682  25.592   1.516  0.00  0.00    +0.059 C 
ATOM     25  C   UNL     1     -37.756  24.823   0.844  0.00  0.00    +0.108 C 
ATOM     26  H   UNL     1     -37.884  22.446   4.431  0.00  0.00    +0.176 HD
ENDBRANCH  17  21
ENDBRANCH   1  17
TORSDOF 7
ENDMDL
MODEL 8
REMARK VINA RESULT:      -5.8      6.222      8.382
REMARK  Name = 5315
REMARK  7 active torsions:
REMARK  status: ('A' for Active; 'I' for Inactive)
REMARK    1  A    between atoms: C_1  and  S_17
REMARK    2  A    between atoms: C_2  and  N_8
REMARK    3  A    between atoms: C_9  and  C_11
REMARK    4  A    between atoms: C_11  and  C_12
REMARK    5  A    between atoms: C_12  and  C_14
REMARK    6  A    between atoms: C_14  and  O_15
REMARK    7  A    between atoms: S_17  and  N_21
REMARK                            x       y       z     vdW  Elec       q    Type
REMARK                         _______ _______ _______ _____ _____    ______ ____
ROOT
ATOM      1  C   UNL     1     -36.116  19.433   0.663  0.00  0.00    +0.125 C 
ATOM      2  C   UNL     1     -35.809  21.274   2.710  0.00  0.00    +0.050 C 
ATOM      3  C   UNL     1     -37.197  20.219   1.061  0.00  0.00    +0.021 C 
ATOM      4  C   UNL     1     -34.880  19.573   1.295  0.00  0.00    +0.021 C 
ATOM      5  C   UNL     1     -37.042  21.146   2.093  0.00  0.00    +0.016 C 
ATOM      6  C   UNL     1     -34.725  20.501   2.325  0.00  0.00    +0.016 C 
ENDROOT
BRANCH   2   8
ATOM      7  O   UNL     1     -35.131  20.868   5.612  0.00  0.00    -0.275 OA
ATOM      8  N   UNL     1     -35.652  22.213   3.756  0.00  0.00    -0.284 N 
ATOM      9  C   UNL     1     -35.343  21.956   5.086  0.00  0.00    +0.227 C 
ATOM     10  H   UNL     1     -35.774  23.160   3.512  0.00  0.00    +0.155 HD
BRANCH   9  11
ATOM     11  C   UNL     1     -35.260  23.236   5.902  0.00  0.00    +0.097 C 
BRANCH  11  12
ATOM     12  C   UNL     1     -34.874  24.421   5.027  0.00  0.00    +0.119 C 
BRANCH  12  14
ATOM     13  O   UNL     1     -35.742  26.670   5.180  0.00  0.00    -0.250 OA
ATOM     14  C   UNL     1     -35.951  25.477   5.004  0.00  0.00    +0.314 C 
BRANCH  14  15
ATOM     15  O   UNL     1     -37.181  24.964   4.754  0.00  0.00    -0.480 OA
ATOM     16  H   UNL     1     -37.858  25.514   4.410  0.00  0.00    +0.295 HD
ENDBRANCH  14  15
ENDBRANCH  12  14
ENDBRANCH  11  12
ENDBRANCH   9  11
ENDBRANCH   2   8
BRANCH   1  17
ATOM     17  S   UNL     1     -36.309  18.272  -0.627  0.00  0.00    +0.075 S 
ATOM     18  O   UNL     1     -37.011  18.918  -1.729  0.00  0.00    -0.150 OA
ATOM     19  O   UNL     1     -35.011  17.655  -0.867  0.00  0.00    -0.150 OA
BRANCH  17  21
ATOM     20  S   UNL     1     -39.382  15.403  -0.700  0.00  0.00    -0.050 S 
ATOM     21  N   UNL     1     -37.366  17.132   0.107  0.00  0.00    -0.194 N 
ATOM     22  N   UNL     1     -36.940  15.415  -1.551  0.00  0.00    -0.221 NA
ATOM     23  C   UNL     1     -37.783  15.996  -0.743  0.00  0.00    +0.179 C 
ATOM     24  C   UNL     1     -38.936  14.240  -1.880  0.00  0.00    +0.059 C 
ATOM     25  C   UNL     1     -37.607  14.399  -2.208  0.00  0.00    +0.108 C 
ATOM     26  H   UNL     1     -37.673  17.228   1.037  0.00  0.00    +0.176 HD
ENDBRANCH  17  21
ENDBRANCH   1  17
TORSDOF 7
ENDMDL
MODEL 9
REMARK VINA RESULT:      -5.7      5.405      6.891
REMARK  Name = 5315
REMARK  7 active torsions:
REMARK  status: ('A' for Active; 'I' for Inactive)
REMARK    1  A    between atoms: C_1  and  S_17
REMARK    2  A    between atoms: C_2  and  N_8
REMARK    3  A    between atoms: C_9  and  C_11
REMARK    4  A    between atoms: C_11  and  C_12
REMARK    5  A    between atoms: C_12  and  C_14
REMARK    6  A    between atoms: C_14  and  O_15
REMARK    7  A    between atoms: S_17  and  N_21
REMARK                            x       y       z     vdW  Elec       q    Type
REMARK                         _______ _______ _______ _____ _____    ______ ____
ROOT
ATOM      1  C   UNL     1     -35.206  20.623   1.293  0.00  0.00    +0.125 C 
ATOM      2  C   UNL     1     -35.300  22.846   2.945  0.00  0.00    +0.050 C 
ATOM      3  C   UNL     1     -34.929  21.889   0.776  0.00  0.00    +0.021 C 
ATOM      4  C   UNL     1     -35.529  20.476   2.642  0.00  0.00    +0.021 C 
ATOM      5  C   UNL     1     -34.978  23.008   1.608  0.00  0.00    +0.016 C 
ATOM      6  C   UNL     1     -35.577  21.595   3.474  0.00  0.00    +0.016 C 
ENDROOT
BRANCH   2   8
ATOM      7  O   UNL     1     -37.654  24.400   3.989  0.00  0.00    -0.275 OA
ATOM      8  N   UNL     1     -35.350  23.980   3.789  0.00  0.00    -0.284 N 
ATOM      9  C   UNL     1     -36.478  24.658   4.231  0.00  0.00    +0.227 C 
ATOM     10  H   UNL     1     -34.482  24.327   4.101  0.00  0.00    +0.155 HD
BRANCH   9  11
ATOM     11  C   UNL     1     -36.116  25.831   5.128  0.00  0.00    +0.097 C 
BRANCH  11  12
ATOM     12  C   UNL     1     -34.889  25.516   5.972  0.00  0.00    +0.119 C 
BRANCH  12  14
ATOM     13  O   UNL     1     -33.209  27.231   6.246  0.00  0.00    -0.250 OA
ATOM     14  C   UNL     1     -33.695  26.342   5.559  0.00  0.00    +0.314 C 
BRANCH  14  15
ATOM     15  O   UNL     1     -33.207  25.985   4.345  0.00  0.00    -0.480 OA
ATOM     16  H   UNL     1     -33.202  26.604   3.642  0.00  0.00    +0.295 HD
ENDBRANCH  14  15
ENDBRANCH  12  14
ENDBRANCH  11  12
ENDBRANCH   9  11
ENDBRANCH   2   8
BRANCH   1  17
ATOM     17  S   UNL     1     -35.146  19.223   0.252  0.00  0.00    +0.075 S 
ATOM     18  O   UNL     1     -35.083  19.678  -1.131  0.00  0.00    -0.150 OA
ATOM     19  O   UNL     1     -34.110  18.335   0.763  0.00  0.00    -0.150 OA
BRANCH  17  21
ATOM     20  S   UNL     1     -38.610  17.149  -0.921  0.00  0.00    -0.050 S 
ATOM     21  N   UNL     1     -36.695  18.532   0.536  0.00  0.00    -0.194 N 
ATOM     22  N   UNL     1     -36.149  16.441  -0.561  0.00  0.00    -0.221 NA
ATOM     23  C   UNL     1     -37.039  17.355  -0.291  0.00  0.00    +0.179 C 
ATOM     24  C   UNL     1     -38.082  15.685  -1.642  0.00  0.00    +0.059 C 
ATOM     25  C   UNL     1     -36.753  15.474  -1.343  0.00  0.00    +0.108 C 
ATOM     26  H   UNL     1     -37.314  18.897   1.208  0.00  0.00    +0.176 HD
ENDBRANCH  17  21
ENDBRANCH   1  17
TORSDOF 7
ENDMDL
