MODEL 1
REMARK VINA RESULT:      -5.9      0.000      0.000
REMARK  Name = 57523941
REMARK  7 active torsions:
REMARK  status: ('A' for Active; 'I' for Inactive)
REMARK    1  A    between atoms: C_3  and  C_14
REMARK    2  A    between atoms: C_11  and  O_12
REMARK    3  A    between atoms: C_14  and  C_15
REMARK    4  A    between atoms: C_15  and  CA_16
REMARK    5  A    between atoms: CA_16  and  N_17
REMARK    6  A    between atoms: CA_16  and  C_22
REMARK    7  A    between atoms: C_22  and  O_23
REMARK                            x       y       z     vdW  Elec       q    Type
REMARK                         _______ _______ _______ _____ _____    ______ ____
ROOT
ATOM      1  O   UNL     1     -33.278  27.907   4.461  0.00  0.00    -0.421 OA
ATOM      2  O   UNL     1     -32.078  27.463   6.356  0.00  0.00    -0.244 OA
ATOM      3  C   UNL     1     -35.034  25.815   5.200  0.00  0.00    -0.013 C 
ATOM      4  C   UNL     1     -35.266  26.577   3.967  0.00  0.00    +0.031 C 
ATOM      5  C   UNL     1     -34.378  27.602   3.635  0.00  0.00    +0.151 C 
ATOM      6  C   UNL     1     -33.978  26.128   5.966  0.00  0.00    +0.078 C 
ATOM      7  C   UNL     1     -36.335  26.336   3.093  0.00  0.00    +0.006 C 
ATOM      8  C   UNL     1     -34.527  28.374   2.482  0.00  0.00    +0.074 C 
ATOM      9  C   UNL     1     -33.033  27.206   5.631  0.00  0.00    +0.346 C 
ATOM     10  C   UNL     1     -36.498  27.103   1.933  0.00  0.00    +0.037 C 
ATOM     11  C   UNL     1     -35.595  28.120   1.628  0.00  0.00    +0.137 C 
ENDROOT
BRANCH  11  12
ATOM     12  O   UNL     1     -35.758  28.860   0.499  0.00  0.00    -0.505 OA
ATOM     13  H   UNL     1     -36.620  29.086   0.207  0.00  0.00    +0.292 HD
ENDBRANCH  11  12
BRANCH   3  14
ATOM     14  C   UNL     1     -35.970  24.707   5.583  0.00  0.00    +0.025 C 
BRANCH  14  15
ATOM     15  C   UNL     1     -35.363  23.316   5.396  0.00  0.00    -0.006 C 
BRANCH  15  16
ATOM     16  CA  UNL     1     -35.666  22.639   4.050  0.00  0.00    +0.036 C 
BRANCH  16  17
ATOM     17  N   UNL     1     -37.083  22.746   3.700  0.00  0.00    +0.389 N 
ATOM     18  H1  UNL     1     -37.354  21.943   3.132  0.00  0.00    -0.088 HD
ATOM     19  H2  UNL     1     -37.238  23.605   3.172  0.00  0.00    -0.088 HD
ATOM     20  H3  UNL     1     -37.643  22.764   4.552  0.00  0.00    -0.088 HD
ENDBRANCH  16  17
BRANCH  16  22
ATOM     21  OXT UNL     1     -35.195  20.406   3.179  0.00  0.00    -0.253 OA
ATOM     22  C   UNL     1     -35.328  21.161   4.133  0.00  0.00    +0.293 C 
BRANCH  22  23
ATOM     23  O   UNL     1     -35.172  20.749   5.420  0.00  0.00    -0.482 OA
ATOM     24  H   UNL     1     -35.154  19.835   5.621  0.00  0.00    +0.295 HD
ENDBRANCH  22  23
ENDBRANCH  16  22
ENDBRANCH  15  16
ENDBRANCH  14  15
ENDBRANCH   3  14
TORSDOF 7
ENDMDL
MODEL 2
REMARK VINA RESULT:      -5.8      2.136      3.943
REMARK  Name = 57523941
REMARK  7 active torsions:
REMARK  status: ('A' for Active; 'I' for Inactive)
REMARK    1  A    between atoms: C_3  and  C_14
REMARK    2  A    between atoms: C_11  and  O_12
REMARK    3  A    between atoms: C_14  and  C_15
REMARK    4  A    between atoms: C_15  and  CA_16
REMARK    5  A    between atoms: CA_16  and  N_17
REMARK    6  A    between atoms: CA_16  and  C_22
REMARK    7  A    between atoms: C_22  and  O_23
REMARK                            x       y       z     vdW  Elec       q    Type
REMARK                         _______ _______ _______ _____ _____    ______ ____
ROOT
ATOM      1  O   UNL     1     -35.053  23.950   5.960  0.00  0.00    -0.421 OA
ATOM      2  O   UNL     1     -35.964  21.967   6.642  0.00  0.00    -0.244 OA
ATOM      3  C   UNL     1     -35.215  22.998   3.301  0.00  0.00    -0.013 C 
ATOM      4  C   UNL     1     -34.669  24.332   3.579  0.00  0.00    +0.031 C 
ATOM      5  C   UNL     1     -34.605  24.767   4.904  0.00  0.00    +0.151 C 
ATOM      6  C   UNL     1     -35.633  22.242   4.327  0.00  0.00    +0.078 C 
ATOM      7  C   UNL     1     -34.203  25.205   2.586  0.00  0.00    +0.006 C 
ATOM      8  C   UNL     1     -34.100  26.020   5.254  0.00  0.00    +0.074 C 
ATOM      9  C   UNL     1     -35.573  22.686   5.730  0.00  0.00    +0.346 C 
ATOM     10  C   UNL     1     -33.695  26.465   2.922  0.00  0.00    +0.037 C 
ATOM     11  C   UNL     1     -33.643  26.872   4.254  0.00  0.00    +0.137 C 
ENDROOT
BRANCH  11  12
ATOM     12  O   UNL     1     -33.147  28.098   4.573  0.00  0.00    -0.505 OA
ATOM     13  H   UNL     1     -33.604  28.643   5.183  0.00  0.00    +0.292 HD
ENDBRANCH  11  12
BRANCH   3  14
ATOM     14  C   UNL     1     -35.296  22.501   1.888  0.00  0.00    +0.025 C 
BRANCH  14  15
ATOM     15  C   UNL     1     -36.682  22.678   1.266  0.00  0.00    -0.006 C 
BRANCH  15  16
ATOM     16  CA  UNL     1     -37.536  21.403   1.182  0.00  0.00    +0.036 C 
BRANCH  16  17
ATOM     17  N   UNL     1     -38.490  21.320   2.290  0.00  0.00    +0.389 N 
ATOM     18  H1  UNL     1     -39.146  20.560   2.116  0.00  0.00    -0.088 HD
ATOM     19  H2  UNL     1     -39.000  22.200   2.365  0.00  0.00    -0.088 HD
ATOM     20  H3  UNL     1     -37.987  21.143   3.159  0.00  0.00    -0.088 HD
ENDBRANCH  16  17
BRANCH  16  22
ATOM     21  OXT UNL     1     -35.910  19.773   0.367  0.00  0.00    -0.253 OA
ATOM     22  C   UNL     1     -36.639  20.180   1.262  0.00  0.00    +0.293 C 
BRANCH  22  23
ATOM     23  O   UNL     1     -36.725  19.568   2.474  0.00  0.00    -0.482 OA
ATOM     24  H   UNL     1     -37.267  18.812   2.579  0.00  0.00    +0.295 HD
ENDBRANCH  22  23
ENDBRANCH  16  22
ENDBRANCH  15  16
ENDBRANCH  14  15
ENDBRANCH   3  14
TORSDOF 7
ENDMDL
MODEL 3
REMARK VINA RESULT:      -5.8      1.182      3.532
REMARK  Name = 57523941
REMARK  7 active torsions:
REMARK  status: ('A' for Active; 'I' for Inactive)
REMARK    1  A    between atoms: C_3  and  C_14
REMARK    2  A    between atoms: C_11  and  O_12
REMARK    3  A    between atoms: C_14  and  C_15
REMARK    4  A    between atoms: C_15  and  CA_16
REMARK    5  A    between atoms: CA_16  and  N_17
REMARK    6  A    between atoms: CA_16  and  C_22
REMARK    7  A    between atoms: C_22  and  O_23
REMARK                            x       y       z     vdW  Elec       q    Type
REMARK                         _______ _______ _______ _____ _____    ______ ____
ROOT
ATOM      1  O   UNL     1     -33.417  27.759   3.005  0.00  0.00    -0.421 OA
ATOM      2  O   UNL     1     -34.612  27.241   1.126  0.00  0.00    -0.244 OA
ATOM      3  C   UNL     1     -34.954  25.831   4.394  0.00  0.00    -0.013 C 
ATOM      4  C   UNL     1     -33.913  26.594   5.094  0.00  0.00    +0.031 C 
ATOM      5  C   UNL     1     -33.175  27.537   4.375  0.00  0.00    +0.151 C 
ATOM      6  C   UNL     1     -35.163  26.065   3.089  0.00  0.00    +0.078 C 
ATOM      7  C   UNL     1     -33.611  26.433   6.453  0.00  0.00    +0.006 C 
ATOM      8  C   UNL     1     -32.169  28.303   4.964  0.00  0.00    +0.074 C 
ATOM      9  C   UNL     1     -34.393  27.055   2.317  0.00  0.00    +0.346 C 
ATOM     10  C   UNL     1     -32.603  27.194   7.057  0.00  0.00    +0.037 C 
ATOM     11  C   UNL     1     -31.883  28.128   6.314  0.00  0.00    +0.137 C 
ENDROOT
BRANCH  11  12
ATOM     12  O   UNL     1     -30.906  28.864   6.908  0.00  0.00    -0.505 OA
ATOM     13  H   UNL     1     -30.026  28.544   6.930  0.00  0.00    +0.292 HD
ENDBRANCH  11  12
BRANCH   3  14
ATOM     14  C   UNL     1     -35.764  24.812   5.139  0.00  0.00    +0.025 C 
BRANCH  14  15
ATOM     15  C   UNL     1     -35.197  23.396   5.031  0.00  0.00    -0.006 C 
BRANCH  15  16
ATOM     16  CA  UNL     1     -35.669  22.587   3.813  0.00  0.00    +0.036 C 
BRANCH  16  17
ATOM     17  N   UNL     1     -37.120  22.675   3.637  0.00  0.00    +0.389 N 
ATOM     18  H1  UNL     1     -37.510  21.736   3.564  0.00  0.00    -0.088 HD
ATOM     19  H2  UNL     1     -37.327  23.197   2.786  0.00  0.00    -0.088 HD
ATOM     20  H3  UNL     1     -37.530  23.153   4.439  0.00  0.00    -0.088 HD
ENDBRANCH  16  17
BRANCH  16  22
ATOM     21  OXT UNL     1     -35.155  20.304   3.111  0.00  0.00    -0.253 OA
ATOM     22  C   UNL     1     -35.323  21.121   4.007  0.00  0.00    +0.293 C 
BRANCH  22  23
ATOM     23  O   UNL     1     -35.204  20.800   5.324  0.00  0.00    -0.482 OA
ATOM     24  H   UNL     1     -35.959  20.535   5.811  0.00  0.00    +0.295 HD
ENDBRANCH  22  23
ENDBRANCH  16  22
ENDBRANCH  15  16
ENDBRANCH  14  15
ENDBRANCH   3  14
TORSDOF 7
ENDMDL
MODEL 4
REMARK VINA RESULT:      -5.8      2.753      6.116
REMARK  Name = 57523941
REMARK  7 active torsions:
REMARK  status: ('A' for Active; 'I' for Inactive)
REMARK    1  A    between atoms: C_3  and  C_14
REMARK    2  A    between atoms: C_11  and  O_12
REMARK    3  A    between atoms: C_14  and  C_15
REMARK    4  A    between atoms: C_15  and  CA_16
REMARK    5  A    between atoms: CA_16  and  N_17
REMARK    6  A    between atoms: CA_16  and  C_22
REMARK    7  A    between atoms: C_22  and  O_23
REMARK                            x       y       z     vdW  Elec       q    Type
REMARK                         _______ _______ _______ _____ _____    ______ ____
ROOT
ATOM      1  O   UNL     1     -38.389  23.652   2.494  0.00  0.00    -0.421 OA
ATOM      2  O   UNL     1     -39.213  25.718   3.024  0.00  0.00    -0.244 OA
ATOM      3  C   UNL     1     -36.292  24.124   4.333  0.00  0.00    -0.013 C 
ATOM      4  C   UNL     1     -36.352  22.862   3.585  0.00  0.00    +0.031 C 
ATOM      5  C   UNL     1     -37.402  22.665   2.687  0.00  0.00    +0.151 C 
ATOM      6  C   UNL     1     -37.245  25.045   4.129  0.00  0.00    +0.078 C 
ATOM      7  C   UNL     1     -35.411  21.832   3.720  0.00  0.00    +0.006 C 
ATOM      8  C   UNL     1     -37.533  21.495   1.937  0.00  0.00    +0.074 C 
ATOM      9  C   UNL     1     -38.359  24.853   3.185  0.00  0.00    +0.346 C 
ATOM     10  C   UNL     1     -35.530  20.653   2.975  0.00  0.00    +0.037 C 
ATOM     11  C   UNL     1     -36.589  20.485   2.085  0.00  0.00    +0.137 C 
ENDROOT
BRANCH  11  12
ATOM     12  O   UNL     1     -36.698  19.337   1.364  0.00  0.00    -0.505 OA
ATOM     13  H   UNL     1     -35.962  19.015   0.881  0.00  0.00    +0.292 HD
ENDBRANCH  11  12
BRANCH   3  14
ATOM     14  C   UNL     1     -35.175  24.366   5.306  0.00  0.00    +0.025 C 
BRANCH  14  15
ATOM     15  C   UNL     1     -34.948  25.848   5.606  0.00  0.00    -0.006 C 
BRANCH  15  16
ATOM     16  CA  UNL     1     -33.670  26.455   5.006  0.00  0.00    +0.036 C 
BRANCH  16  17
ATOM     17  N   UNL     1     -33.012  27.363   5.947  0.00  0.00    +0.389 N 
ATOM     18  H1  UNL     1     -33.555  27.410   6.809  0.00  0.00    -0.088 HD
ATOM     19  H2  UNL     1     -32.949  28.293   5.534  0.00  0.00    -0.088 HD
ATOM     20  H3  UNL     1     -32.076  27.017   6.154  0.00  0.00    -0.088 HD
ENDBRANCH  16  17
BRANCH  16  22
ATOM     21  OXT UNL     1     -33.315  27.376   2.772  0.00  0.00    -0.253 OA
ATOM     22  C   UNL     1     -34.019  27.260   3.766  0.00  0.00    +0.293 C 
BRANCH  22  23
ATOM     23  O   UNL     1     -35.239  27.852   3.875  0.00  0.00    -0.482 OA
ATOM     24  H   UNL     1     -35.761  27.992   3.110  0.00  0.00    +0.295 HD
ENDBRANCH  22  23
ENDBRANCH  16  22
ENDBRANCH  15  16
ENDBRANCH  14  15
ENDBRANCH   3  14
TORSDOF 7
ENDMDL
MODEL 5
REMARK VINA RESULT:      -5.8      2.538      5.019
REMARK  Name = 57523941
REMARK  7 active torsions:
REMARK  status: ('A' for Active; 'I' for Inactive)
REMARK    1  A    between atoms: C_3  and  C_14
REMARK    2  A    between atoms: C_11  and  O_12
REMARK    3  A    between atoms: C_14  and  C_15
REMARK    4  A    between atoms: C_15  and  CA_16
REMARK    5  A    between atoms: CA_16  and  N_17
REMARK    6  A    between atoms: CA_16  and  C_22
REMARK    7  A    between atoms: C_22  and  O_23
REMARK                            x       y       z     vdW  Elec       q    Type
REMARK                         _______ _______ _______ _____ _____    ______ ____
ROOT
ATOM      1  O   UNL     1     -33.924  25.222   5.632  0.00  0.00    -0.421 OA
ATOM      2  O   UNL     1     -33.247  27.406   5.607  0.00  0.00    -0.244 OA
ATOM      3  C   UNL     1     -35.070  25.651   3.081  0.00  0.00    -0.013 C 
ATOM      4  C   UNL     1     -35.163  24.334   3.725  0.00  0.00    +0.031 C 
ATOM      5  C   UNL     1     -34.586  24.161   4.983  0.00  0.00    +0.151 C 
ATOM      6  C   UNL     1     -34.434  26.642   3.723  0.00  0.00    +0.078 C 
ATOM      7  C   UNL     1     -35.803  23.229   3.146  0.00  0.00    +0.006 C 
ATOM      8  C   UNL     1     -34.629  22.943   5.663  0.00  0.00    +0.074 C 
ATOM      9  C   UNL     1     -33.820  26.476   5.051  0.00  0.00    +0.346 C 
ATOM     10  C   UNL     1     -35.854  22.000   3.816  0.00  0.00    +0.037 C 
ATOM     11  C   UNL     1     -35.268  21.858   5.073  0.00  0.00    +0.137 C 
ENDROOT
BRANCH  11  12
ATOM     12  O   UNL     1     -35.322  20.662   5.718  0.00  0.00    -0.505 OA
ATOM     13  H   UNL     1     -34.534  20.260   6.027  0.00  0.00    +0.292 HD
ENDBRANCH  11  12
BRANCH   3  14
ATOM     14  C   UNL     1     -35.681  25.868   1.728  0.00  0.00    +0.025 C 
BRANCH  14  15
ATOM     15  C   UNL     1     -37.024  26.599   1.785  0.00  0.00    -0.006 C 
BRANCH  15  16
ATOM     16  CA  UNL     1     -38.267  25.706   1.653  0.00  0.00    +0.036 C 
BRANCH  16  17
ATOM     17  N   UNL     1     -39.275  26.312   0.781  0.00  0.00    +0.389 N 
ATOM     18  H1  UNL     1     -38.829  26.648  -0.071  0.00  0.00    -0.088 HD
ATOM     19  H2  UNL     1     -39.716  27.095   1.266  0.00  0.00    -0.088 HD
ATOM     20  H3  UNL     1     -39.982  25.617   0.544  0.00  0.00    -0.088 HD
ENDBRANCH  16  17
BRANCH  16  22
ATOM     21  OXT UNL     1     -38.815  24.502   3.706  0.00  0.00    -0.253 OA
ATOM     22  C   UNL     1     -38.904  25.510   3.017  0.00  0.00    +0.293 C 
BRANCH  22  23
ATOM     23  O   UNL     1     -39.600  26.610   3.413  0.00  0.00    -0.482 OA
ATOM     24  H   UNL     1     -40.455  26.772   3.067  0.00  0.00    +0.295 HD
ENDBRANCH  22  23
ENDBRANCH  16  22
ENDBRANCH  15  16
ENDBRANCH  14  15
ENDBRANCH   3  14
TORSDOF 7
ENDMDL
MODEL 6
REMARK VINA RESULT:      -5.7      3.275      6.225
REMARK  Name = 57523941
REMARK  7 active torsions:
REMARK  status: ('A' for Active; 'I' for Inactive)
REMARK    1  A    between atoms: C_3  and  C_14
REMARK    2  A    between atoms: C_11  and  O_12
REMARK    3  A    between atoms: C_14  and  C_15
REMARK    4  A    between atoms: C_15  and  CA_16
REMARK    5  A    between atoms: CA_16  and  N_17
REMARK    6  A    between atoms: CA_16  and  C_22
REMARK    7  A    between atoms: C_22  and  O_23
REMARK                            x       y       z     vdW  Elec       q    Type
REMARK                         _______ _______ _______ _____ _____    ______ ____
ROOT
ATOM      1  O   UNL     1     -36.829  20.518   1.834  0.00  0.00    -0.421 OA
ATOM      2  O   UNL     1     -34.777  20.034   2.718  0.00  0.00    -0.244 OA
ATOM      3  C   UNL     1     -36.781  22.937   3.301  0.00  0.00    -0.013 C 
ATOM      4  C   UNL     1     -37.932  22.609   2.449  0.00  0.00    +0.031 C 
ATOM      5  C   UNL     1     -37.919  21.406   1.741  0.00  0.00    +0.151 C 
ATOM      6  C   UNL     1     -35.758  22.072   3.370  0.00  0.00    +0.078 C 
ATOM      7  C   UNL     1     -39.053  23.437   2.302  0.00  0.00    +0.006 C 
ATOM      8  C   UNL     1     -38.972  21.019   0.909  0.00  0.00    +0.074 C 
ATOM      9  C   UNL     1     -35.730  20.800   2.629  0.00  0.00    +0.346 C 
ATOM     10  C   UNL     1     -40.115  23.063   1.472  0.00  0.00    +0.037 C 
ATOM     11  C   UNL     1     -40.075  21.856   0.777  0.00  0.00    +0.137 C 
ENDROOT
BRANCH  11  12
ATOM     12  O   UNL     1     -41.111  21.498  -0.028  0.00  0.00    -0.505 OA
ATOM     13  H   UNL     1     -40.974  20.886  -0.725  0.00  0.00    +0.292 HD
ENDBRANCH  11  12
BRANCH   3  14
ATOM     14  C   UNL     1     -36.765  24.222   4.076  0.00  0.00    +0.025 C 
BRANCH  14  15
ATOM     15  C   UNL     1     -35.665  24.271   5.137  0.00  0.00    -0.006 C 
BRANCH  15  16
ATOM     16  CA  UNL     1     -35.437  25.644   5.788  0.00  0.00    +0.036 C 
BRANCH  16  17
ATOM     17  N   UNL     1     -36.284  26.674   5.185  0.00  0.00    +0.389 N 
ATOM     18  H1  UNL     1     -37.064  26.230   4.700  0.00  0.00    -0.088 HD
ATOM     19  H2  UNL     1     -35.735  27.218   4.519  0.00  0.00    -0.088 HD
ATOM     20  H3  UNL     1     -36.643  27.289   5.914  0.00  0.00    -0.088 HD
ENDBRANCH  16  17
BRANCH  16  22
ATOM     21  OXT UNL     1     -33.429  26.976   6.190  0.00  0.00    -0.253 OA
ATOM     22  C   UNL     1     -33.992  26.070   5.590  0.00  0.00    +0.293 C 
BRANCH  22  23
ATOM     23  O   UNL     1     -33.365  25.310   4.653  0.00  0.00    -0.482 OA
ATOM     24  H   UNL     1     -33.844  24.659   4.180  0.00  0.00    +0.295 HD
ENDBRANCH  22  23
ENDBRANCH  16  22
ENDBRANCH  15  16
ENDBRANCH  14  15
ENDBRANCH   3  14
TORSDOF 7
ENDMDL
MODEL 7
REMARK VINA RESULT:      -5.5      2.601      4.115
REMARK  Name = 57523941
REMARK  7 active torsions:
REMARK  status: ('A' for Active; 'I' for Inactive)
REMARK    1  A    between atoms: C_3  and  C_14
REMARK    2  A    between atoms: C_11  and  O_12
REMARK    3  A    between atoms: C_14  and  C_15
REMARK    4  A    between atoms: C_15  and  CA_16
REMARK    5  A    between atoms: CA_16  and  N_17
REMARK    6  A    between atoms: CA_16  and  C_22
REMARK    7  A    between atoms: C_22  and  O_23
REMARK                            x       y       z     vdW  Elec       q    Type
REMARK                         _______ _______ _______ _____ _____    ______ ____
ROOT
ATOM      1  O   UNL     1     -35.642  24.145   5.697  0.00  0.00    -0.421 OA
ATOM      2  O   UNL     1     -35.863  22.146   6.783  0.00  0.00    -0.244 OA
ATOM      3  C   UNL     1     -35.343  22.692   3.289  0.00  0.00    -0.013 C 
ATOM      4  C   UNL     1     -35.293  24.159   3.280  0.00  0.00    +0.031 C 
ATOM      5  C   UNL     1     -35.444  24.841   4.488  0.00  0.00    +0.151 C 
ATOM      6  C   UNL     1     -35.531  22.056   4.455  0.00  0.00    +0.078 C 
ATOM      7  C   UNL     1     -35.100  24.925   2.122  0.00  0.00    +0.006 C 
ATOM      8  C   UNL     1     -35.410  26.235   4.567  0.00  0.00    +0.074 C 
ATOM      9  C   UNL     1     -35.693  22.761   5.737  0.00  0.00    +0.346 C 
ATOM     10  C   UNL     1     -35.064  26.323   2.186  0.00  0.00    +0.037 C 
ATOM     11  C   UNL     1     -35.218  26.977   3.407  0.00  0.00    +0.137 C 
ENDROOT
BRANCH  11  12
ATOM     12  O   UNL     1     -35.182  28.335   3.462  0.00  0.00    -0.505 OA
ATOM     13  H   UNL     1     -35.977  28.828   3.410  0.00  0.00    +0.292 HD
ENDBRANCH  11  12
BRANCH   3  14
ATOM     14  C   UNL     1     -35.182  21.929   2.006  0.00  0.00    +0.025 C 
BRANCH  14  15
ATOM     15  C   UNL     1     -35.419  20.427   2.165  0.00  0.00    -0.006 C 
BRANCH  15  16
ATOM     16  CA  UNL     1     -35.436  19.619   0.858  0.00  0.00    +0.036 C 
BRANCH  16  17
ATOM     17  N   UNL     1     -36.577  18.704   0.805  0.00  0.00    +0.389 N 
ATOM     18  H1  UNL     1     -36.626  18.172   1.673  0.00  0.00    -0.088 HD
ATOM     19  H2  UNL     1     -36.463  18.064   0.019  0.00  0.00    -0.088 HD
ATOM     20  H3  UNL     1     -37.437  19.239   0.686  0.00  0.00    -0.088 HD
ENDBRANCH  16  17
BRANCH  16  22
ATOM     21  OXT UNL     1     -33.031  19.194   0.896  0.00  0.00    -0.253 OA
ATOM     22  C   UNL     1     -34.175  18.780   0.759  0.00  0.00    +0.293 C 
BRANCH  22  23
ATOM     23  O   UNL     1     -34.456  17.473   0.502  0.00  0.00    -0.482 OA
ATOM     24  H   UNL     1     -34.309  17.122  -0.354  0.00  0.00    +0.295 HD
ENDBRANCH  22  23
ENDBRANCH  16  22
ENDBRANCH  15  16
ENDBRANCH  14  15
ENDBRANCH   3  14
TORSDOF 7
ENDMDL
MODEL 8
REMARK VINA RESULT:      -5.5      2.966      5.897
REMARK  Name = 57523941
REMARK  7 active torsions:
REMARK  status: ('A' for Active; 'I' for Inactive)
REMARK    1  A    between atoms: C_3  and  C_14
REMARK    2  A    between atoms: C_11  and  O_12
REMARK    3  A    between atoms: C_14  and  C_15
REMARK    4  A    between atoms: C_15  and  CA_16
REMARK    5  A    between atoms: CA_16  and  N_17
REMARK    6  A    between atoms: CA_16  and  C_22
REMARK    7  A    between atoms: C_22  and  O_23
REMARK                            x       y       z     vdW  Elec       q    Type
REMARK                         _______ _______ _______ _____ _____    ______ ____
ROOT
ATOM      1  O   UNL     1     -36.860  20.964   1.911  0.00  0.00    -0.421 OA
ATOM      2  O   UNL     1     -34.924  19.839   2.373  0.00  0.00    -0.244 OA
ATOM      3  C   UNL     1     -36.128  22.839   3.899  0.00  0.00    -0.013 C 
ATOM      4  C   UNL     1     -37.383  23.001   3.154  0.00  0.00    +0.031 C 
ATOM      5  C   UNL     1     -37.710  22.055   2.180  0.00  0.00    +0.151 C 
ATOM      6  C   UNL     1     -35.339  21.790   3.622  0.00  0.00    +0.078 C 
ATOM      7  C   UNL     1     -38.281  24.057   3.361  0.00  0.00    +0.006 C 
ATOM      8  C   UNL     1     -38.882  22.135   1.427  0.00  0.00    +0.074 C 
ATOM      9  C   UNL     1     -35.670  20.785   2.598  0.00  0.00    +0.346 C 
ATOM     10  C   UNL     1     -39.460  24.150   2.613  0.00  0.00    +0.037 C 
ATOM     11  C   UNL     1     -39.761  23.190   1.648  0.00  0.00    +0.137 C 
ENDROOT
BRANCH  11  12
ATOM     12  O   UNL     1     -40.909  23.287   0.925  0.00  0.00    -0.505 OA
ATOM     13  H   UNL     1     -41.740  23.241   1.356  0.00  0.00    +0.292 HD
ENDBRANCH  11  12
BRANCH   3  14
ATOM     14  C   UNL     1     -35.749  23.839   4.952  0.00  0.00    +0.025 C 
BRANCH  14  15
ATOM     15  C   UNL     1     -34.724  24.864   4.467  0.00  0.00    -0.006 C 
BRANCH  15  16
ATOM     16  CA  UNL     1     -35.137  26.336   4.624  0.00  0.00    +0.036 C 
BRANCH  16  17
ATOM     17  N   UNL     1     -36.378  26.468   5.389  0.00  0.00    +0.389 N 
ATOM     18  H1  UNL     1     -36.532  27.449   5.621  0.00  0.00    -0.088 HD
ATOM     19  H2  UNL     1     -36.307  25.923   6.248  0.00  0.00    -0.088 HD
ATOM     20  H3  UNL     1     -37.159  26.124   4.832  0.00  0.00    -0.088 HD
ENDBRANCH  16  17
BRANCH  16  22
ATOM     21  OXT UNL     1     -35.587  26.325   2.223  0.00  0.00    -0.253 OA
ATOM     22  C   UNL     1     -35.379  26.948   3.256  0.00  0.00    +0.293 C 
BRANCH  22  23
ATOM     23  O   UNL     1     -35.350  28.308   3.298  0.00  0.00    -0.482 OA
ATOM     24  H   UNL     1     -36.136  28.788   3.468  0.00  0.00    +0.295 HD
ENDBRANCH  22  23
ENDBRANCH  16  22
ENDBRANCH  15  16
ENDBRANCH  14  15
ENDBRANCH   3  14
TORSDOF 7
ENDMDL
MODEL 9
REMARK VINA RESULT:      -5.5      3.517      5.845
REMARK  Name = 57523941
REMARK  7 active torsions:
REMARK  status: ('A' for Active; 'I' for Inactive)
REMARK    1  A    between atoms: C_3  and  C_14
REMARK    2  A    between atoms: C_11  and  O_12
REMARK    3  A    between atoms: C_14  and  C_15
REMARK    4  A    between atoms: C_15  and  CA_16
REMARK    5  A    between atoms: CA_16  and  N_17
REMARK    6  A    between atoms: CA_16  and  C_22
REMARK    7  A    between atoms: C_22  and  O_23
REMARK                            x       y       z     vdW  Elec       q    Type
REMARK                         _______ _______ _______ _____ _____    ______ ____
ROOT
ATOM      1  O   UNL     1     -38.534  23.284   2.529  0.00  0.00    -0.421 OA
ATOM      2  O   UNL     1     -39.546  21.748   1.171  0.00  0.00    -0.244 OA
ATOM      3  C   UNL     1     -36.293  21.560   2.642  0.00  0.00    -0.013 C 
ATOM      4  C   UNL     1     -36.284  22.836   3.368  0.00  0.00    +0.031 C 
ATOM      5  C   UNL     1     -37.408  23.660   3.287  0.00  0.00    +0.151 C 
ATOM      6  C   UNL     1     -37.379  21.227   1.928  0.00  0.00    +0.078 C 
ATOM      7  C   UNL     1     -35.205  23.283   4.143  0.00  0.00    +0.006 C 
ATOM      8  C   UNL     1     -37.480  24.889   3.946  0.00  0.00    +0.074 C 
ATOM      9  C   UNL     1     -38.572  22.085   1.834  0.00  0.00    +0.346 C 
ATOM     10  C   UNL     1     -35.263  24.513   4.808  0.00  0.00    +0.037 C 
ATOM     11  C   UNL     1     -36.399  25.315   4.710  0.00  0.00    +0.137 C 
ENDROOT
BRANCH  11  12
ATOM     12  O   UNL     1     -36.449  26.508   5.360  0.00  0.00    -0.505 OA
ATOM     13  H   UNL     1     -35.810  27.169   5.176  0.00  0.00    +0.292 HD
ENDBRANCH  11  12
BRANCH   3  14
ATOM     14  C   UNL     1     -35.101  20.651   2.709  0.00  0.00    +0.025 C 
BRANCH  14  15
ATOM     15  C   UNL     1     -34.842  19.901   1.402  0.00  0.00    -0.006 C 
BRANCH  15  16
ATOM     16  CA  UNL     1     -33.362  19.667   1.057  0.00  0.00    +0.036 C 
BRANCH  16  17
ATOM     17  N   UNL     1     -33.070  20.031  -0.330  0.00  0.00    +0.389 N 
ATOM     18  H1  UNL     1     -32.063  20.139  -0.448  0.00  0.00    -0.088 HD
ATOM     19  H2  UNL     1     -33.535  20.911  -0.556  0.00  0.00    -0.088 HD
ATOM     20  H3  UNL     1     -33.408  19.298  -0.953  0.00  0.00    -0.088 HD
ENDBRANCH  16  17
BRANCH  16  22
ATOM     21  OXT UNL     1     -31.996  17.753   1.716  0.00  0.00    -0.253 OA
ATOM     22  C   UNL     1     -33.024  18.196   1.222  0.00  0.00    +0.293 C 
BRANCH  22  23
ATOM     23  O   UNL     1     -34.020  17.393   0.758  0.00  0.00    -0.482 OA
ATOM     24  H   UNL     1     -34.698  17.751   0.220  0.00  0.00    +0.295 HD
ENDBRANCH  22  23
ENDBRANCH  16  22
ENDBRANCH  15  16
ENDBRANCH  14  15
ENDBRANCH   3  14
TORSDOF 7
ENDMDL
