MODEL 1
REMARK VINA RESULT:      -5.4      0.000      0.000
REMARK  Name = 5858790
REMARK  5 active torsions:
REMARK  status: ('A' for Active; 'I' for Inactive)
REMARK    1  A    between atoms: C_5  and  C_13
REMARK    2  A    between atoms: C_8  and  C_11
REMARK    3  A    between atoms: N_12  and  O_14
REMARK    4  A    between atoms: C_13  and  C_17
REMARK    5  A    between atoms: C_17  and  O_18
REMARK                            x       y       z     vdW  Elec       q    Type
REMARK                         _______ _______ _______ _____ _____    ______ ____
ROOT
ATOM      1  S   UNL     1     -34.447  28.038   2.919  0.00  0.00    -0.059 S 
ATOM      2  O   UNL     1     -32.120  27.250   6.877  0.00  0.00    -0.273 OA
ATOM      3  N   UNL     1     -34.195  26.431   4.928  0.00  0.00    -0.382 NA
ATOM      4  N   UNL     1     -32.746  28.355   4.888  0.00  0.00    -0.253 N 
ATOM      5  C   UNL     1     -35.173  25.951   4.104  0.00  0.00    +0.150 C 
ATOM      6  C   UNL     1     -33.733  27.542   4.399  0.00  0.00    +0.213 C 
ATOM      7  C   UNL     1     -35.464  26.658   2.976  0.00  0.00    +0.127 C 
ATOM      8  C   UNL     1     -32.010  28.170   6.071  0.00  0.00    +0.245 C 
ATOM      9  H   UNL     1     -32.528  29.153   4.355  0.00  0.00    +0.158 HD
ENDROOT
BRANCH   8  11
ATOM     10 CL   UNL     1     -31.810  30.815   5.931  0.00  0.00    -0.103 Cl
ATOM     11  C   UNL     1     -31.014  29.281   6.317  0.00  0.00    +0.180 C 
ENDBRANCH   8  11
BRANCH   5  13
ATOM     12  N   UNL     1     -35.429  24.027   5.479  0.00  0.00    -0.074 NA
ATOM     13  C   UNL     1     -35.861  24.707   4.460  0.00  0.00    +0.220 C 
BRANCH  12  14
ATOM     14  O   UNL     1     -36.186  22.865   5.686  0.00  0.00    -0.373 OA
ATOM     15  C   UNL     1     -35.299  21.820   6.052  0.00  0.00    +0.288 C 
ENDBRANCH  12  14
BRANCH  13  17
ATOM     16  O   UNL     1     -36.916  23.482   2.701  0.00  0.00    -0.243 OA
ATOM     17  C   UNL     1     -37.039  24.210   3.664  0.00  0.00    +0.361 C 
BRANCH  17  18
ATOM     18  O   UNL     1     -38.167  24.699   4.199  0.00  0.00    -0.476 OA
ATOM     19  H   UNL     1     -39.000  24.411   3.881  0.00  0.00    +0.295 HD
ENDBRANCH  17  18
ENDBRANCH  13  17
ENDBRANCH   5  13
TORSDOF 5
ENDMDL
MODEL 2
REMARK VINA RESULT:      -5.1      1.319      1.450
REMARK  Name = 5858790
REMARK  5 active torsions:
REMARK  status: ('A' for Active; 'I' for Inactive)
REMARK    1  A    between atoms: C_5  and  C_13
REMARK    2  A    between atoms: C_8  and  C_11
REMARK    3  A    between atoms: N_12  and  O_14
REMARK    4  A    between atoms: C_13  and  C_17
REMARK    5  A    between atoms: C_17  and  O_18
REMARK                            x       y       z     vdW  Elec       q    Type
REMARK                         _______ _______ _______ _____ _____    ______ ____
ROOT
ATOM      1  S   UNL     1     -32.504  26.919   2.577  0.00  0.00    -0.059 S 
ATOM      2  O   UNL     1     -32.200  28.732   6.858  0.00  0.00    -0.273 OA
ATOM      3  N   UNL     1     -33.432  26.794   4.987  0.00  0.00    -0.382 NA
ATOM      4  N   UNL     1     -31.720  28.436   4.566  0.00  0.00    -0.253 N 
ATOM      5  C   UNL     1     -34.070  25.858   4.223  0.00  0.00    +0.150 C 
ATOM      6  C   UNL     1     -32.573  27.423   4.216  0.00  0.00    +0.213 C 
ATOM      7  C   UNL     1     -33.724  25.760   2.908  0.00  0.00    +0.127 C 
ATOM      8  C   UNL     1     -31.583  29.021   5.836  0.00  0.00    +0.245 C 
ATOM      9  H   UNL     1     -31.143  28.791   3.853  0.00  0.00    +0.158 HD
ENDROOT
BRANCH   8  11
ATOM     10 CL   UNL     1     -31.220  31.488   4.922  0.00  0.00    -0.103 Cl
ATOM     11  C   UNL     1     -30.562  30.136   5.856  0.00  0.00    +0.180 C 
ENDBRANCH   8  11
BRANCH   5  13
ATOM     12  N   UNL     1     -34.713  23.897   5.404  0.00  0.00    -0.074 NA
ATOM     13  C   UNL     1     -35.089  25.004   4.841  0.00  0.00    +0.220 C 
BRANCH  12  14
ATOM     14  O   UNL     1     -35.800  23.193   5.942  0.00  0.00    -0.373 OA
ATOM     15  C   UNL     1     -35.386  21.856   6.180  0.00  0.00    +0.288 C 
ENDBRANCH  12  14
BRANCH  13  17
ATOM     16  O   UNL     1     -37.394  24.696   4.294  0.00  0.00    -0.243 OA
ATOM     17  C   UNL     1     -36.546  25.386   4.820  0.00  0.00    +0.361 C 
BRANCH  17  18
ATOM     18  O   UNL     1     -36.702  26.555   5.457  0.00  0.00    -0.476 OA
ATOM     19  H   UNL     1     -36.231  27.312   5.170  0.00  0.00    +0.295 HD
ENDBRANCH  17  18
ENDBRANCH  13  17
ENDBRANCH   5  13
TORSDOF 5
ENDMDL
MODEL 3
REMARK VINA RESULT:      -5.0      4.920      6.768
REMARK  Name = 5858790
REMARK  5 active torsions:
REMARK  status: ('A' for Active; 'I' for Inactive)
REMARK    1  A    between atoms: C_5  and  C_13
REMARK    2  A    between atoms: C_8  and  C_11
REMARK    3  A    between atoms: N_12  and  O_14
REMARK    4  A    between atoms: C_13  and  C_17
REMARK    5  A    between atoms: C_17  and  O_18
REMARK                            x       y       z     vdW  Elec       q    Type
REMARK                         _______ _______ _______ _____ _____    ______ ____
ROOT
ATOM      1  S   UNL     1     -38.207  21.673   1.876  0.00  0.00    -0.059 S 
ATOM      2  O   UNL     1     -36.656  24.711   5.049  0.00  0.00    -0.273 OA
ATOM      3  N   UNL     1     -38.659  23.956   3.000  0.00  0.00    -0.382 NA
ATOM      4  N   UNL     1     -36.708  22.750   3.737  0.00  0.00    -0.253 N 
ATOM      5  C   UNL     1     -39.643  23.718   2.083  0.00  0.00    +0.150 C 
ATOM      6  C   UNL     1     -37.834  22.933   2.980  0.00  0.00    +0.213 C 
ATOM      7  C   UNL     1     -39.589  22.555   1.373  0.00  0.00    +0.127 C 
ATOM      8  C   UNL     1     -36.193  23.627   4.707  0.00  0.00    +0.245 C 
ATOM      9  H   UNL     1     -36.207  21.917   3.587  0.00  0.00    +0.158 HD
ENDROOT
BRANCH   8  11
ATOM     10 CL   UNL     1     -35.330  21.743   6.368  0.00  0.00    -0.103 Cl
ATOM     11  C   UNL     1     -34.914  23.117   5.332  0.00  0.00    +0.180 C 
ENDBRANCH   8  11
BRANCH   5  13
ATOM     12  N   UNL     1     -41.789  24.352   1.279  0.00  0.00    -0.074 NA
ATOM     13  C   UNL     1     -40.707  24.709   1.901  0.00  0.00    +0.220 C 
BRANCH  12  14
ATOM     14  O   UNL     1     -42.705  25.410   1.182  0.00  0.00    -0.373 OA
ATOM     15  C   UNL     1     -43.995  24.858   0.969  0.00  0.00    +0.288 C 
ENDBRANCH  12  14
BRANCH  13  17
ATOM     16  O   UNL     1     -40.121  27.018   1.724  0.00  0.00    -0.243 OA
ATOM     17  C   UNL     1     -40.558  26.119   2.411  0.00  0.00    +0.361 C 
BRANCH  17  18
ATOM     18  O   UNL     1     -40.978  26.171   3.683  0.00  0.00    -0.476 OA
ATOM     19  H   UNL     1     -40.715  25.509   4.291  0.00  0.00    +0.295 HD
ENDBRANCH  17  18
ENDBRANCH  13  17
ENDBRANCH   5  13
TORSDOF 5
ENDMDL
MODEL 4
REMARK VINA RESULT:      -4.9      1.262      2.051
REMARK  Name = 5858790
REMARK  5 active torsions:
REMARK  status: ('A' for Active; 'I' for Inactive)
REMARK    1  A    between atoms: C_5  and  C_13
REMARK    2  A    between atoms: C_8  and  C_11
REMARK    3  A    between atoms: N_12  and  O_14
REMARK    4  A    between atoms: C_13  and  C_17
REMARK    5  A    between atoms: C_17  and  O_18
REMARK                            x       y       z     vdW  Elec       q    Type
REMARK                         _______ _______ _______ _____ _____    ______ ____
ROOT
ATOM      1  S   UNL     1     -34.431  28.417   2.611  0.00  0.00    -0.059 S 
ATOM      2  O   UNL     1     -32.621  26.932   6.639  0.00  0.00    -0.273 OA
ATOM      3  N   UNL     1     -34.630  26.643   4.481  0.00  0.00    -0.382 NA
ATOM      4  N   UNL     1     -32.876  28.278   4.718  0.00  0.00    -0.253 N 
ATOM      5  C   UNL     1     -35.600  26.407   3.550  0.00  0.00    +0.150 C 
ATOM      6  C   UNL     1     -33.942  27.692   4.088  0.00  0.00    +0.213 C 
ATOM      7  C   UNL     1     -35.669  27.238   2.471  0.00  0.00    +0.127 C 
ATOM      8  C   UNL     1     -32.288  27.877   5.929  0.00  0.00    +0.245 C 
ATOM      9  H   UNL     1     -32.481  29.063   4.275  0.00  0.00    +0.158 HD
ENDROOT
BRANCH   8  11
ATOM     10 CL   UNL     1     -31.699  30.449   6.229  0.00  0.00    -0.103 Cl
ATOM     11  C   UNL     1     -31.142  28.772   6.344  0.00  0.00    +0.180 C 
ENDBRANCH   8  11
BRANCH   5  13
ATOM     12  N   UNL     1     -37.784  25.466   3.521  0.00  0.00    -0.074 NA
ATOM     13  C   UNL     1     -36.518  25.281   3.742  0.00  0.00    +0.220 C 
BRANCH  12  14
ATOM     14  O   UNL     1     -38.528  24.300   3.753  0.00  0.00    -0.373 OA
ATOM     15  C   UNL     1     -39.421  24.122   2.664  0.00  0.00    +0.288 C 
ENDBRANCH  12  14
BRANCH  13  17
ATOM     16  O   UNL     1     -35.568  23.112   3.428  0.00  0.00    -0.243 OA
ATOM     17  C   UNL     1     -36.020  23.934   4.197  0.00  0.00    +0.361 C 
BRANCH  17  18
ATOM     18  O   UNL     1     -36.166  23.839   5.526  0.00  0.00    -0.476 OA
ATOM     19  H   UNL     1     -35.523  24.212   6.097  0.00  0.00    +0.295 HD
ENDBRANCH  17  18
ENDBRANCH  13  17
ENDBRANCH   5  13
TORSDOF 5
ENDMDL
MODEL 5
REMARK VINA RESULT:      -4.9      5.367      7.230
REMARK  Name = 5858790
REMARK  5 active torsions:
REMARK  status: ('A' for Active; 'I' for Inactive)
REMARK    1  A    between atoms: C_5  and  C_13
REMARK    2  A    between atoms: C_8  and  C_11
REMARK    3  A    between atoms: N_12  and  O_14
REMARK    4  A    between atoms: C_13  and  C_17
REMARK    5  A    between atoms: C_17  and  O_18
REMARK                            x       y       z     vdW  Elec       q    Type
REMARK                         _______ _______ _______ _____ _____    ______ ____
ROOT
ATOM      1  S   UNL     1     -39.283  24.372   2.798  0.00  0.00    -0.059 S 
ATOM      2  O   UNL     1     -35.707  21.461   3.459  0.00  0.00    -0.273 OA
ATOM      3  N   UNL     1     -38.251  22.111   2.088  0.00  0.00    -0.382 NA
ATOM      4  N   UNL     1     -37.046  23.383   3.742  0.00  0.00    -0.253 N 
ATOM      5  C   UNL     1     -39.411  22.300   1.392  0.00  0.00    +0.150 C 
ATOM      6  C   UNL     1     -38.078  23.152   2.871  0.00  0.00    +0.213 C 
ATOM      7  C   UNL     1     -40.117  23.444   1.622  0.00  0.00    +0.127 C 
ATOM      8  C   UNL     1     -35.944  22.546   3.982  0.00  0.00    +0.245 C 
ATOM      9  H   UNL     1     -37.081  24.223   4.252  0.00  0.00    +0.158 HD
ENDROOT
BRANCH   8  11
ATOM     10 CL   UNL     1     -35.257  22.183   6.522  0.00  0.00    -0.103 Cl
ATOM     11  C   UNL     1     -35.008  23.104   5.031  0.00  0.00    +0.180 C 
ENDBRANCH   8  11
BRANCH   5  13
ATOM     12  N   UNL     1     -41.112  21.000   0.356  0.00  0.00    -0.074 NA
ATOM     13  C   UNL     1     -39.846  21.279   0.435  0.00  0.00    +0.220 C 
BRANCH  12  14
ATOM     14  O   UNL     1     -41.365  20.003  -0.598  0.00  0.00    -0.373 OA
ATOM     15  C   UNL     1     -42.516  20.383  -1.336  0.00  0.00    +0.288 C 
ENDBRANCH  12  14
BRANCH  13  17
ATOM     16  O   UNL     1     -38.442  21.019  -1.480  0.00  0.00    -0.243 OA
ATOM     17  C   UNL     1     -38.856  20.554  -0.439  0.00  0.00    +0.361 C 
BRANCH  17  18
ATOM     18  O   UNL     1     -38.550  19.378   0.129  0.00  0.00    -0.476 OA
ATOM     19  H   UNL     1     -38.304  18.649  -0.406  0.00  0.00    +0.295 HD
ENDBRANCH  17  18
ENDBRANCH  13  17
ENDBRANCH   5  13
TORSDOF 5
ENDMDL
MODEL 6
REMARK VINA RESULT:      -4.9      3.159      6.490
REMARK  Name = 5858790
REMARK  5 active torsions:
REMARK  status: ('A' for Active; 'I' for Inactive)
REMARK    1  A    between atoms: C_5  and  C_13
REMARK    2  A    between atoms: C_8  and  C_11
REMARK    3  A    between atoms: N_12  and  O_14
REMARK    4  A    between atoms: C_13  and  C_17
REMARK    5  A    between atoms: C_17  and  O_18
REMARK                            x       y       z     vdW  Elec       q    Type
REMARK                         _______ _______ _______ _____ _____    ______ ____
ROOT
ATOM      1  S   UNL     1     -33.109  25.973   2.098  0.00  0.00    -0.059 S 
ATOM      2  O   UNL     1     -34.949  24.217   6.001  0.00  0.00    -0.273 OA
ATOM      3  N   UNL     1     -33.400  26.343   4.640  0.00  0.00    -0.382 NA
ATOM      4  N   UNL     1     -34.399  24.358   3.710  0.00  0.00    -0.253 N 
ATOM      5  C   UNL     1     -32.677  27.382   4.126  0.00  0.00    +0.150 C 
ATOM      6  C   UNL     1     -33.688  25.527   3.651  0.00  0.00    +0.213 C 
ATOM      7  C   UNL     1     -32.410  27.378   2.789  0.00  0.00    +0.127 C 
ATOM      8  C   UNL     1     -34.977  23.780   4.854  0.00  0.00    +0.245 C 
ATOM      9  H   UNL     1     -34.518  23.872   2.863  0.00  0.00    +0.158 HD
ENDROOT
BRANCH   8  11
ATOM     10 CL   UNL     1     -35.360  21.375   5.913  0.00  0.00    -0.103 Cl
ATOM     11  C   UNL     1     -35.668  22.469   4.556  0.00  0.00    +0.180 C 
ENDBRANCH   8  11
BRANCH   5  13
ATOM     12  N   UNL     1     -32.545  29.676   4.740  0.00  0.00    -0.074 NA
ATOM     13  C   UNL     1     -32.223  28.450   5.022  0.00  0.00    +0.220 C 
BRANCH  12  14
ATOM     14  O   UNL     1     -32.034  30.578   5.685  0.00  0.00    -0.373 OA
ATOM     15  C   UNL     1     -31.195  31.500   5.007  0.00  0.00    +0.288 C 
ENDBRANCH  12  14
BRANCH  13  17
ATOM     16  O   UNL     1     -30.192  27.983   6.189  0.00  0.00    -0.243 OA
ATOM     17  C   UNL     1     -31.393  28.148   6.242  0.00  0.00    +0.361 C 
BRANCH  17  18
ATOM     18  O   UNL     1     -32.193  28.104   7.316  0.00  0.00    -0.476 OA
ATOM     19  H   UNL     1     -31.872  28.378   8.153  0.00  0.00    +0.295 HD
ENDBRANCH  17  18
ENDBRANCH  13  17
ENDBRANCH   5  13
TORSDOF 5
ENDMDL
MODEL 7
REMARK VINA RESULT:      -4.8      5.125      7.006
REMARK  Name = 5858790
REMARK  5 active torsions:
REMARK  status: ('A' for Active; 'I' for Inactive)
REMARK    1  A    between atoms: C_5  and  C_13
REMARK    2  A    between atoms: C_8  and  C_11
REMARK    3  A    between atoms: N_12  and  O_14
REMARK    4  A    between atoms: C_13  and  C_17
REMARK    5  A    between atoms: C_17  and  O_18
REMARK                            x       y       z     vdW  Elec       q    Type
REMARK                         _______ _______ _______ _____ _____    ______ ____
ROOT
ATOM      1  S   UNL     1     -39.931  23.902   1.313  0.00  0.00    -0.059 S 
ATOM      2  O   UNL     1     -41.376  27.387   4.046  0.00  0.00    -0.273 OA
ATOM      3  N   UNL     1     -39.313  25.382   3.339  0.00  0.00    -0.382 NA
ATOM      4  N   UNL     1     -41.444  25.803   2.299  0.00  0.00    -0.253 N 
ATOM      5  C   UNL     1     -38.291  24.505   3.110  0.00  0.00    +0.150 C 
ATOM      6  C   UNL     1     -40.246  25.155   2.442  0.00  0.00    +0.213 C 
ATOM      7  C   UNL     1     -38.420  23.627   2.075  0.00  0.00    +0.127 C 
ATOM      8  C   UNL     1     -41.932  26.857   3.088  0.00  0.00    +0.245 C 
ATOM      9  H   UNL     1     -42.024  25.497   1.565  0.00  0.00    +0.158 HD
ENDROOT
BRANCH   8  11
ATOM     10 CL   UNL     1     -44.497  26.432   3.631  0.00  0.00    -0.103 Cl
ATOM     11  C   UNL     1     -43.308  27.315   2.661  0.00  0.00    +0.180 C 
ENDBRANCH   8  11
BRANCH   5  13
ATOM     12  N   UNL     1     -36.722  23.445   4.550  0.00  0.00    -0.074 NA
ATOM     13  C   UNL     1     -37.107  24.543   3.975  0.00  0.00    +0.220 C 
BRANCH  12  14
ATOM     14  O   UNL     1     -35.585  23.646   5.344  0.00  0.00    -0.373 OA
ATOM     15  C   UNL     1     -35.372  22.473   6.115  0.00  0.00    +0.288 C 
ENDBRANCH  12  14
BRANCH  13  17
ATOM     16  O   UNL     1     -35.495  26.225   3.446  0.00  0.00    -0.243 OA
ATOM     17  C   UNL     1     -36.350  25.824   4.208  0.00  0.00    +0.361 C 
BRANCH  17  18
ATOM     18  O   UNL     1     -36.783  26.388   5.345  0.00  0.00    -0.476 OA
ATOM     19  H   UNL     1     -37.685  26.320   5.588  0.00  0.00    +0.295 HD
ENDBRANCH  17  18
ENDBRANCH  13  17
ENDBRANCH   5  13
TORSDOF 5
ENDMDL
MODEL 8
REMARK VINA RESULT:      -4.8      5.833      7.446
REMARK  Name = 5858790
REMARK  5 active torsions:
REMARK  status: ('A' for Active; 'I' for Inactive)
REMARK    1  A    between atoms: C_5  and  C_13
REMARK    2  A    between atoms: C_8  and  C_11
REMARK    3  A    between atoms: N_12  and  O_14
REMARK    4  A    between atoms: C_13  and  C_17
REMARK    5  A    between atoms: C_17  and  O_18
REMARK                            x       y       z     vdW  Elec       q    Type
REMARK                         _______ _______ _______ _____ _____    ______ ____
ROOT
ATOM      1  S   UNL     1     -42.122  25.522   1.365  0.00  0.00    -0.059 S 
ATOM      2  O   UNL     1     -41.836  28.698   4.762  0.00  0.00    -0.273 OA
ATOM      3  N   UNL     1     -40.622  26.457   3.251  0.00  0.00    -0.382 NA
ATOM      4  N   UNL     1     -42.776  27.497   2.961  0.00  0.00    -0.253 N 
ATOM      5  C   UNL     1     -39.959  25.437   2.630  0.00  0.00    +0.150 C 
ATOM      6  C   UNL     1     -41.789  26.595   2.663  0.00  0.00    +0.213 C 
ATOM      7  C   UNL     1     -40.583  24.803   1.597  0.00  0.00    +0.127 C 
ATOM      8  C   UNL     1     -42.747  28.476   3.969  0.00  0.00    +0.245 C 
ATOM      9  H   UNL     1     -43.590  27.456   2.411  0.00  0.00    +0.158 HD
ENDROOT
BRANCH   8  11
ATOM     10 CL   UNL     1     -44.031  30.161   5.569  0.00  0.00    -0.103 Cl
ATOM     11  C   UNL     1     -44.023  29.283   4.032  0.00  0.00    +0.180 C 
ENDBRANCH   8  11
BRANCH   5  13
ATOM     12  N   UNL     1     -38.402  23.847   3.468  0.00  0.00    -0.074 NA
ATOM     13  C   UNL     1     -38.617  25.070   3.091  0.00  0.00    +0.220 C 
BRANCH  12  14
ATOM     14  O   UNL     1     -37.077  23.656   3.885  0.00  0.00    -0.373 OA
ATOM     15  C   UNL     1     -36.559  22.523   3.204  0.00  0.00    +0.288 C 
ENDBRANCH  12  14
BRANCH  13  17
ATOM     16  O   UNL     1     -37.023  26.576   2.144  0.00  0.00    -0.243 OA
ATOM     17  C   UNL     1     -37.503  26.083   3.143  0.00  0.00    +0.361 C 
BRANCH  17  18
ATOM     18  O   UNL     1     -37.178  26.312   4.423  0.00  0.00    -0.476 OA
ATOM     19  H   UNL     1     -37.482  25.734   5.095  0.00  0.00    +0.295 HD
ENDBRANCH  17  18
ENDBRANCH  13  17
ENDBRANCH   5  13
TORSDOF 5
ENDMDL
MODEL 9
REMARK VINA RESULT:      -4.8      1.449      1.769
REMARK  Name = 5858790
REMARK  5 active torsions:
REMARK  status: ('A' for Active; 'I' for Inactive)
REMARK    1  A    between atoms: C_5  and  C_13
REMARK    2  A    between atoms: C_8  and  C_11
REMARK    3  A    between atoms: N_12  and  O_14
REMARK    4  A    between atoms: C_13  and  C_17
REMARK    5  A    between atoms: C_17  and  O_18
REMARK                            x       y       z     vdW  Elec       q    Type
REMARK                         _______ _______ _______ _____ _____    ______ ____
ROOT
ATOM      1  S   UNL     1     -33.084  27.249   2.361  0.00  0.00    -0.059 S 
ATOM      2  O   UNL     1     -32.807  27.115   7.010  0.00  0.00    -0.273 OA
ATOM      3  N   UNL     1     -33.857  25.986   4.480  0.00  0.00    -0.382 NA
ATOM      4  N   UNL     1     -32.413  27.885   4.815  0.00  0.00    -0.253 N 
ATOM      5  C   UNL     1     -34.399  25.376   3.385  0.00  0.00    +0.150 C 
ATOM      6  C   UNL     1     -33.134  27.000   4.059  0.00  0.00    +0.213 C 
ATOM      7  C   UNL     1     -34.112  25.892   2.156  0.00  0.00    +0.127 C 
ATOM      8  C   UNL     1     -32.291  27.895   6.215  0.00  0.00    +0.245 C 
ATOM      9  H   UNL     1     -31.928  28.588   4.326  0.00  0.00    +0.158 HD
ENDROOT
BRANCH   8  11
ATOM     10 CL   UNL     1     -32.052  30.531   5.999  0.00  0.00    -0.103 Cl
ATOM     11  C   UNL     1     -31.434  29.035   6.716  0.00  0.00    +0.180 C 
ENDBRANCH   8  11
BRANCH   5  13
ATOM     12  N   UNL     1     -35.070  23.168   2.807  0.00  0.00    -0.074 NA
ATOM     13  C   UNL     1     -35.256  24.201   3.571  0.00  0.00    +0.220 C 
BRANCH  12  14
ATOM     14  O   UNL     1     -35.968  22.134   3.104  0.00  0.00    -0.373 OA
ATOM     15  C   UNL     1     -35.342  20.900   2.786  0.00  0.00    +0.288 C 
ENDBRANCH  12  14
BRANCH  13  17
ATOM     16  O   UNL     1     -37.437  24.669   4.427  0.00  0.00    -0.243 OA
ATOM     17  C   UNL     1     -36.341  24.183   4.616  0.00  0.00    +0.361 C 
BRANCH  17  18
ATOM     18  O   UNL     1     -35.883  23.564   5.713  0.00  0.00    -0.476 OA
ATOM     19  H   UNL     1     -34.970  23.371   5.796  0.00  0.00    +0.295 HD
ENDBRANCH  17  18
ENDBRANCH  13  17
ENDBRANCH   5  13
TORSDOF 5
ENDMDL
