MODEL 1
REMARK VINA RESULT:      -7.1      0.000      0.000
REMARK  Name = 191743
REMARK  13 active torsions:
REMARK  status: ('A' for Active; 'I' for Inactive)
REMARK    1  A    between atoms: CA_1  and  C_4
REMARK    2  A    between atoms: CA_1  and  N_12
REMARK    3  A    between atoms: CA_1  and  CB_31
REMARK    4  A    between atoms: N_3  and  CA_6
REMARK    5  A    between atoms: CA_6  and  C_8
REMARK    6  A    between atoms: C_8  and  O_9
REMARK    7  A    between atoms: C_13  and  C_15
REMARK    8  A    between atoms: C_15  and  N_17
REMARK    9  A    between atoms: C_18  and  O_20
REMARK   10  A    between atoms: O_20  and  C_21
REMARK   11  A    between atoms: C_21  and  C_22
REMARK   12  A    between atoms: C_25  and  N_30
REMARK   13  A    between atoms: CB_31  and  CG_33
REMARK                            x       y       z     vdW  Elec       q    Type
REMARK                         _______ _______ _______ _____ _____    ______ ____
ROOT
ATOM      1  CA  TRP A   1     -37.566  20.788   1.540  0.00  0.00    +0.153 C 
ENDROOT
BRANCH   1   4
ATOM      2  O   TRP A   1     -35.452  20.001   2.430  0.00  0.00    -0.273 OA
ATOM      3  N   GLY A   2     -36.309  22.018   3.197  0.00  0.00    -0.294 N 
ATOM      4  C   TRP A   1     -36.332  20.860   2.433  0.00  0.00    +0.241 C 
ATOM      5  H   GLY A   2     -37.068  22.642   3.124  0.00  0.00    +0.150 HD
BRANCH   3   6
ATOM      6  CA  GLY A   2     -35.227  22.355   4.095  0.00  0.00    +0.200 C 
BRANCH   6   8
ATOM      7  OXT GLY A   2     -35.907  22.543   6.396  0.00  0.00    -0.248 OA
ATOM      8  C   GLY A   2     -35.449  21.848   5.496  0.00  0.00    +0.334 C 
BRANCH   8   9
ATOM      9  O   GLY A   2     -35.093  20.555   5.667  0.00  0.00    -0.479 OA
ATOM     10  H   GLY A   2     -35.440  19.894   5.099  0.00  0.00    +0.295 HD
ENDBRANCH   8   9
ENDBRANCH   6   8
ENDBRANCH   3   6
ENDBRANCH   1   4
BRANCH   1  12
ATOM     11  O   UNK A   0     -40.408  21.218   1.901  0.00  0.00    -0.273 OA
ATOM     12  N   TRP A   1     -38.252  22.051   1.647  0.00  0.00    -0.297 N 
ATOM     13  C   UNK A   0     -39.626  22.163   1.820  0.00  0.00    +0.243 C 
ATOM     14  H   TRP A   1     -37.719  22.877   1.595  0.00  0.00    +0.150 HD
BRANCH  13  15
ATOM     15  C   UNK A   0     -40.056  23.608   1.955  0.00  0.00    +0.178 C 
BRANCH  15  17
ATOM     16  O   UNK A   0     -40.089  26.339   2.947  0.00  0.00    -0.226 OA
ATOM     17  N   UNK A   0     -38.941  24.403   2.377  0.00  0.00    -0.262 N 
ATOM     18  C   UNK A   0     -39.044  25.705   2.839  0.00  0.00    +0.402 C 
ATOM     19  H   UNK A   0     -38.044  23.998   2.335  0.00  0.00    +0.153 HD
BRANCH  18  20
ATOM     20  O   UNK A   0     -37.807  26.189   3.161  0.00  0.00    -0.430 OA
BRANCH  20  21
ATOM     21  C   UNK A   0     -37.063  25.417   4.109  0.00  0.00    +0.237 C 
BRANCH  21  22
ATOM     22  C   UNK A   0     -35.753  26.100   4.376  0.00  0.00    +0.021 C 
ATOM     23  C   UNK A   0     -35.223  26.983   3.436  0.00  0.00    +0.001 C 
ATOM     24  C   UNK A   0     -35.067  25.852   5.565  0.00  0.00    +0.001 C 
ATOM     25  C   UNK A   0     -33.320  27.370   4.873  0.00  0.00    +0.143 C 
ATOM     26  C   UNK A   0     -34.006  27.617   3.685  0.00  0.00    +0.024 C 
ATOM     27  C   UNK A   0     -33.851  26.486   5.814  0.00  0.00    +0.024 C 
BRANCH  25  30
ATOM     28  O   UNK A   0     -31.053  27.615   4.532  0.00  0.00    -0.126 OA
ATOM     29  O   UNK A   0     -32.051  28.974   5.938  0.00  0.00    -0.126 OA
ATOM     30  N   UNK A   0     -32.081  28.017   5.127  0.00  0.00    +0.058 N 
ENDBRANCH  25  30
ENDBRANCH  21  22
ENDBRANCH  20  21
ENDBRANCH  18  20
ENDBRANCH  15  17
ENDBRANCH  13  15
ENDBRANCH   1  12
BRANCH   1  31
ATOM     31  CB  TRP A   1     -37.164  20.473   0.093  0.00  0.00    +0.057 C 
BRANCH  31  33
ATOM     32  NE1 TRP A   1     -39.909  19.032  -1.882  0.00  0.00    -0.312 N 
ATOM     33  CG  TRP A   1     -38.176  19.632  -0.630  0.00  0.00    -0.004 C 
ATOM     34  CD2 TRP A   1     -38.239  18.211  -0.651  0.00  0.00    +0.011 C 
ATOM     35  CE2 TRP A   1     -39.334  17.861  -1.442  0.00  0.00    +0.048 C 
ATOM     36  CD1 TRP A   1     -39.216  20.109  -1.395  0.00  0.00    +0.058 C 
ATOM     37  CE3 TRP A   1     -37.465  17.186  -0.071  0.00  0.00    +0.001 C 
ATOM     38  CZ2 TRP A   1     -39.696  16.531  -1.684  0.00  0.00    +0.015 C 
ATOM     39  CZ3 TRP A   1     -37.816  15.851  -0.303  0.00  0.00    +0.000 C 
ATOM     40  CH2 TRP A   1     -38.915  15.531  -1.097  0.00  0.00    +0.001 C 
ATOM     41  HE1 TRP A   1     -40.703  19.088  -2.460  0.00  0.00    +0.152 HD
ENDBRANCH  31  33
ENDBRANCH   1  31
TORSDOF 13
ENDMDL
MODEL 2
REMARK VINA RESULT:      -6.9      3.441      7.382
REMARK  Name = 191743
REMARK  13 active torsions:
REMARK  status: ('A' for Active; 'I' for Inactive)
REMARK    1  A    between atoms: CA_1  and  C_4
REMARK    2  A    between atoms: CA_1  and  N_12
REMARK    3  A    between atoms: CA_1  and  CB_31
REMARK    4  A    between atoms: N_3  and  CA_6
REMARK    5  A    between atoms: CA_6  and  C_8
REMARK    6  A    between atoms: C_8  and  O_9
REMARK    7  A    between atoms: C_13  and  C_15
REMARK    8  A    between atoms: C_15  and  N_17
REMARK    9  A    between atoms: C_18  and  O_20
REMARK   10  A    between atoms: O_20  and  C_21
REMARK   11  A    between atoms: C_21  and  C_22
REMARK   12  A    between atoms: C_25  and  N_30
REMARK   13  A    between atoms: CB_31  and  CG_33
REMARK                            x       y       z     vdW  Elec       q    Type
REMARK                         _______ _______ _______ _____ _____    ______ ____
ROOT
ATOM      1  CA  TRP A   1     -35.524  26.220   3.911  0.00  0.00    +0.153 C 
ENDROOT
BRANCH   1   4
ATOM      2  O   TRP A   1     -33.316  25.357   4.416  0.00  0.00    -0.273 OA
ATOM      3  N   GLY A   2     -33.662  27.653   4.475  0.00  0.00    -0.294 N 
ATOM      4  C   TRP A   1     -34.056  26.333   4.307  0.00  0.00    +0.241 C 
ATOM      5  H   GLY A   2     -34.336  28.361   4.363  0.00  0.00    +0.150 HD
BRANCH   3   6
ATOM      6  CA  GLY A   2     -32.309  28.039   4.807  0.00  0.00    +0.200 C 
BRANCH   6   8
ATOM      7  OXT GLY A   2     -31.837  29.244   6.837  0.00  0.00    -0.248 OA
ATOM      8  C   GLY A   2     -32.085  28.175   6.290  0.00  0.00    +0.334 C 
BRANCH   8   9
ATOM      9  O   GLY A   2     -32.182  27.005   6.962  0.00  0.00    -0.479 OA
ATOM     10  H   GLY A   2     -31.698  26.878   7.755  0.00  0.00    +0.295 HD
ENDBRANCH   8   9
ENDBRANCH   6   8
ENDBRANCH   3   6
ENDBRANCH   1   4
BRANCH   1  12
ATOM     11  O   UNK A   0     -36.847  27.708   1.805  0.00  0.00    -0.273 OA
ATOM     12  N   TRP A   1     -35.570  25.896   2.506  0.00  0.00    -0.297 N 
ATOM     13  C   UNK A   0     -36.232  26.671   1.563  0.00  0.00    +0.243 C 
ATOM     14  H   TRP A   1     -35.108  25.082   2.201  0.00  0.00    +0.150 HD
BRANCH  13  15
ATOM     15  C   UNK A   0     -36.063  26.115   0.165  0.00  0.00    +0.178 C 
BRANCH  15  17
ATOM     16  O   UNK A   0     -37.390  23.717  -0.797  0.00  0.00    -0.226 OA
ATOM     17  N   UNK A   0     -35.596  24.763   0.240  0.00  0.00    -0.262 N 
ATOM     18  C   UNK A   0     -36.295  23.670  -0.246  0.00  0.00    +0.402 C 
ATOM     19  H   UNK A   0     -34.722  24.600   0.664  0.00  0.00    +0.153 HD
BRANCH  18  20
ATOM     20  O   UNK A   0     -35.587  22.522  -0.024  0.00  0.00    -0.430 OA
BRANCH  20  21
ATOM     21  C   UNK A   0     -34.240  22.698   0.428  0.00  0.00    +0.237 C 
BRANCH  21  22
ATOM     22  C   UNK A   0     -33.587  21.353   0.558  0.00  0.00    +0.021 C 
ATOM     23  C   UNK A   0     -34.224  20.335   1.267  0.00  0.00    +0.001 C 
ATOM     24  C   UNK A   0     -32.345  21.121  -0.032  0.00  0.00    +0.001 C 
ATOM     25  C   UNK A   0     -32.375  18.852   0.797  0.00  0.00    +0.143 C 
ATOM     26  C   UNK A   0     -33.617  19.085   1.387  0.00  0.00    +0.024 C 
ATOM     27  C   UNK A   0     -31.738  19.871   0.088  0.00  0.00    +0.024 C 
BRANCH  25  30
ATOM     28  O   UNK A   0     -32.385  16.561   0.538  0.00  0.00    -0.126 OA
ATOM     29  O   UNK A   0     -30.601  17.507   1.400  0.00  0.00    -0.126 OA
ATOM     30  N   UNK A   0     -31.758  17.579   0.918  0.00  0.00    +0.058 N 
ENDBRANCH  25  30
ENDBRANCH  21  22
ENDBRANCH  20  21
ENDBRANCH  18  20
ENDBRANCH  15  17
ENDBRANCH  13  15
ENDBRANCH   1  12
BRANCH   1  31
ATOM     31  CB  TRP A   1     -36.232  25.164   4.768  0.00  0.00    +0.057 C 
BRANCH  31  33
ATOM     32  NE1 TRP A   1     -36.686  21.943   3.055  0.00  0.00    -0.312 N 
ATOM     33  CG  TRP A   1     -36.667  23.961   3.980  0.00  0.00    -0.004 C 
ATOM     34  CD2 TRP A   1     -37.875  23.821   3.243  0.00  0.00    +0.011 C 
ATOM     35  CE2 TRP A   1     -37.862  22.547   2.672  0.00  0.00    +0.048 C 
ATOM     36  CD1 TRP A   1     -35.956  22.791   3.846  0.00  0.00    +0.058 C 
ATOM     37  CE3 TRP A   1     -38.982  24.659   3.005  0.00  0.00    +0.001 C 
ATOM     38  CZ2 TRP A   1     -38.905  22.067   1.873  0.00  0.00    +0.015 C 
ATOM     39  CZ3 TRP A   1     -40.033  24.193   2.207  0.00  0.00    +0.000 C 
ATOM     40  CH2 TRP A   1     -39.993  22.916   1.650  0.00  0.00    +0.001 C 
ATOM     41  HE1 TRP A   1     -36.409  21.034   2.798  0.00  0.00    +0.152 HD
ENDBRANCH  31  33
ENDBRANCH   1  31
TORSDOF 13
ENDMDL
MODEL 3
REMARK VINA RESULT:      -6.9      2.451      3.509
REMARK  Name = 191743
REMARK  13 active torsions:
REMARK  status: ('A' for Active; 'I' for Inactive)
REMARK    1  A    between atoms: CA_1  and  C_4
REMARK    2  A    between atoms: CA_1  and  N_12
REMARK    3  A    between atoms: CA_1  and  CB_31
REMARK    4  A    between atoms: N_3  and  CA_6
REMARK    5  A    between atoms: CA_6  and  C_8
REMARK    6  A    between atoms: C_8  and  O_9
REMARK    7  A    between atoms: C_13  and  C_15
REMARK    8  A    between atoms: C_15  and  N_17
REMARK    9  A    between atoms: C_18  and  O_20
REMARK   10  A    between atoms: O_20  and  C_21
REMARK   11  A    between atoms: C_21  and  C_22
REMARK   12  A    between atoms: C_25  and  N_30
REMARK   13  A    between atoms: CB_31  and  CG_33
REMARK                            x       y       z     vdW  Elec       q    Type
REMARK                         _______ _______ _______ _____ _____    ______ ____
ROOT
ATOM      1  CA  TRP A   1     -37.148  21.850   2.154  0.00  0.00    +0.153 C 
ENDROOT
BRANCH   1   4
ATOM      2  O   TRP A   1     -35.405  21.478   3.797  0.00  0.00    -0.273 OA
ATOM      3  N   GLY A   2     -36.569  23.487   3.834  0.00  0.00    -0.294 N 
ATOM      4  C   TRP A   1     -36.280  22.218   3.353  0.00  0.00    +0.241 C 
ATOM      5  H   GLY A   2     -37.293  23.997   3.405  0.00  0.00    +0.150 HD
BRANCH   3   6
ATOM      6  CA  GLY A   2     -35.860  24.096   4.937  0.00  0.00    +0.200 C 
BRANCH   6   8
ATOM      7  OXT GLY A   2     -35.423  26.351   5.659  0.00  0.00    -0.248 OA
ATOM      8  C   GLY A   2     -36.176  25.560   5.101  0.00  0.00    +0.334 C 
BRANCH   8   9
ATOM      9  O   GLY A   2     -37.369  25.918   4.574  0.00  0.00    -0.479 OA
ATOM     10  H   GLY A   2     -38.146  25.866   5.095  0.00  0.00    +0.295 HD
ENDBRANCH   8   9
ENDBRANCH   6   8
ENDBRANCH   3   6
ENDBRANCH   1   4
BRANCH   1  12
ATOM     11  O   UNK A   0     -40.027  21.537   2.058  0.00  0.00    -0.273 OA
ATOM     12  N   TRP A   1     -38.136  22.889   2.000  0.00  0.00    -0.297 N 
ATOM     13  C   UNK A   0     -39.503  22.646   1.964  0.00  0.00    +0.243 C 
ATOM     14  H   TRP A   1     -37.825  23.819   1.915  0.00  0.00    +0.150 HD
BRANCH  13  15
ATOM     15  C   UNK A   0     -40.297  23.929   1.849  0.00  0.00    +0.178 C 
BRANCH  15  17
ATOM     16  O   UNK A   0     -39.993  26.546   3.075  0.00  0.00    -0.226 OA
ATOM     17  N   UNK A   0     -39.429  24.995   1.442  0.00  0.00    -0.262 N 
ATOM     18  C   UNK A   0     -39.345  26.219   2.086  0.00  0.00    +0.402 C 
ATOM     19  H   UNK A   0     -38.857  24.848   0.654  0.00  0.00    +0.153 HD
BRANCH  18  20
ATOM     20  O   UNK A   0     -38.431  27.018   1.458  0.00  0.00    -0.430 OA
BRANCH  20  21
ATOM     21  C   UNK A   0     -37.503  26.348   0.599  0.00  0.00    +0.237 C 
BRANCH  21  22
ATOM     22  C   UNK A   0     -36.138  26.392   1.221  0.00  0.00    +0.021 C 
ATOM     23  C   UNK A   0     -35.727  27.526   1.920  0.00  0.00    +0.001 C 
ATOM     24  C   UNK A   0     -35.282  25.297   1.103  0.00  0.00    +0.001 C 
ATOM     25  C   UNK A   0     -33.603  26.473   2.381  0.00  0.00    +0.143 C 
ATOM     26  C   UNK A   0     -34.460  27.567   2.500  0.00  0.00    +0.024 C 
ATOM     27  C   UNK A   0     -34.014  25.338   1.682  0.00  0.00    +0.024 C 
BRANCH  25  30
ATOM     28  O   UNK A   0     -31.370  25.899   2.417  0.00  0.00    -0.126 OA
ATOM     29  O   UNK A   0     -32.149  27.166   4.033  0.00  0.00    -0.126 OA
ATOM     30  N   UNK A   0     -32.312  26.514   2.973  0.00  0.00    +0.058 N 
ENDBRANCH  25  30
ENDBRANCH  21  22
ENDBRANCH  20  21
ENDBRANCH  18  20
ENDBRANCH  15  17
ENDBRANCH  13  15
ENDBRANCH   1  12
BRANCH   1  31
ATOM     31  CB  TRP A   1     -36.285  21.687   0.896  0.00  0.00    +0.057 C 
BRANCH  31  33
ATOM     32  NE1 TRP A   1     -35.929  18.082   0.272  0.00  0.00    -0.312 N 
ATOM     33  CG  TRP A   1     -35.858  20.268   0.655  0.00  0.00    -0.004 C 
ATOM     34  CD2 TRP A   1     -34.522  19.784   0.590  0.00  0.00    +0.011 C 
ATOM     35  CE2 TRP A   1     -34.594  18.410   0.350  0.00  0.00    +0.048 C 
ATOM     36  CD1 TRP A   1     -36.701  19.199   0.456  0.00  0.00    +0.058 C 
ATOM     37  CE3 TRP A   1     -33.253  20.385   0.714  0.00  0.00    +0.001 C 
ATOM     38  CZ2 TRP A   1     -33.457  17.604   0.226  0.00  0.00    +0.015 C 
ATOM     39  CZ3 TRP A   1     -32.107  19.592   0.592  0.00  0.00    +0.000 C 
ATOM     40  CH2 TRP A   1     -32.209  18.223   0.353  0.00  0.00    +0.001 C 
ATOM     41  HE1 TRP A   1     -36.278  17.176   0.110  0.00  0.00    +0.152 HD
ENDBRANCH  31  33
ENDBRANCH   1  31
TORSDOF 13
ENDMDL
MODEL 4
REMARK VINA RESULT:      -6.8      2.168      3.471
REMARK  Name = 191743
REMARK  13 active torsions:
REMARK  status: ('A' for Active; 'I' for Inactive)
REMARK    1  A    between atoms: CA_1  and  C_4
REMARK    2  A    between atoms: CA_1  and  N_12
REMARK    3  A    between atoms: CA_1  and  CB_31
REMARK    4  A    between atoms: N_3  and  CA_6
REMARK    5  A    between atoms: CA_6  and  C_8
REMARK    6  A    between atoms: C_8  and  O_9
REMARK    7  A    between atoms: C_13  and  C_15
REMARK    8  A    between atoms: C_15  and  N_17
REMARK    9  A    between atoms: C_18  and  O_20
REMARK   10  A    between atoms: O_20  and  C_21
REMARK   11  A    between atoms: C_21  and  C_22
REMARK   12  A    between atoms: C_25  and  N_30
REMARK   13  A    between atoms: CB_31  and  CG_33
REMARK                            x       y       z     vdW  Elec       q    Type
REMARK                         _______ _______ _______ _____ _____    ______ ____
ROOT
ATOM      1  CA  TRP A   1     -37.381  20.914   1.546  0.00  0.00    +0.153 C 
ENDROOT
BRANCH   1   4
ATOM      2  O   TRP A   1     -35.436  19.992   2.661  0.00  0.00    -0.273 OA
ATOM      3  N   GLY A   2     -36.187  22.100   3.280  0.00  0.00    -0.294 N 
ATOM      4  C   TRP A   1     -36.236  20.919   2.554  0.00  0.00    +0.241 C 
ATOM      5  H   GLY A   2     -36.879  22.781   3.115  0.00  0.00    +0.150 HD
BRANCH   3   6
ATOM      6  CA  GLY A   2     -35.170  22.380   4.269  0.00  0.00    +0.200 C 
BRANCH   6   8
ATOM      7  OXT GLY A   2     -36.062  22.444   6.504  0.00  0.00    -0.248 OA
ATOM      8  C   GLY A   2     -35.495  21.807   5.624  0.00  0.00    +0.334 C 
BRANCH   8   9
ATOM      9  O   GLY A   2     -35.101  20.522   5.776  0.00  0.00    -0.479 OA
ATOM     10  H   GLY A   2     -35.660  19.909   6.213  0.00  0.00    +0.295 HD
ENDBRANCH   8   9
ENDBRANCH   6   8
ENDBRANCH   3   6
ENDBRANCH   1   4
BRANCH   1  12
ATOM     11  O   UNK A   0     -40.244  21.147   1.922  0.00  0.00    -0.273 OA
ATOM     12  N   TRP A   1     -38.140  22.123   1.749  0.00  0.00    -0.297 N 
ATOM     13  C   UNK A   0     -39.519  22.140   1.921  0.00  0.00    +0.243 C 
ATOM     14  H   TRP A   1     -37.657  22.980   1.766  0.00  0.00    +0.150 HD
BRANCH  13  15
ATOM     15  C   UNK A   0     -40.034  23.542   2.167  0.00  0.00    +0.178 C 
BRANCH  15  17
ATOM     16  O   UNK A   0     -39.928  26.445   2.209  0.00  0.00    -0.226 OA
ATOM     17  N   UNK A   0     -38.958  24.376   2.616  0.00  0.00    -0.262 N 
ATOM     18  C   UNK A   0     -38.989  25.761   2.602  0.00  0.00    +0.402 C 
ATOM     19  H   UNK A   0     -38.145  23.936   2.956  0.00  0.00    +0.153 HD
BRANCH  18  20
ATOM     20  O   UNK A   0     -37.815  26.262   3.091  0.00  0.00    -0.430 OA
BRANCH  20  21
ATOM     21  C   UNK A   0     -37.089  25.401   3.973  0.00  0.00    +0.237 C 
BRANCH  21  22
ATOM     22  C   UNK A   0     -35.786  26.053   4.333  0.00  0.00    +0.021 C 
ATOM     23  C   UNK A   0     -35.168  26.920   3.431  0.00  0.00    +0.001 C 
ATOM     24  C   UNK A   0     -35.194  25.795   5.569  0.00  0.00    +0.001 C 
ATOM     25  C   UNK A   0     -33.367  27.269   5.002  0.00  0.00    +0.143 C 
ATOM     26  C   UNK A   0     -33.959  27.527   3.766  0.00  0.00    +0.024 C 
ATOM     27  C   UNK A   0     -33.984  26.402   5.904  0.00  0.00    +0.024 C 
BRANCH  25  30
ATOM     28  O   UNK A   0     -31.124  27.663   4.634  0.00  0.00    -0.126 OA
ATOM     29  O   UNK A   0     -32.091  28.645   6.343  0.00  0.00    -0.126 OA
ATOM     30  N   UNK A   0     -32.135  27.888   5.343  0.00  0.00    +0.058 N 
ENDBRANCH  25  30
ENDBRANCH  21  22
ENDBRANCH  20  21
ENDBRANCH  18  20
ENDBRANCH  15  17
ENDBRANCH  13  15
ENDBRANCH   1  12
BRANCH   1  31
ATOM     31  CB  TRP A   1     -36.837  20.810   0.116  0.00  0.00    +0.057 C 
BRANCH  31  33
ATOM     32  NE1 TRP A   1     -34.760  23.748  -0.640  0.00  0.00    -0.312 N 
ATOM     33  CG  TRP A   1     -35.770  21.824  -0.184  0.00  0.00    -0.004 C 
ATOM     34  CD2 TRP A   1     -34.374  21.578  -0.295  0.00  0.00    +0.011 C 
ATOM     35  CE2 TRP A   1     -33.763  22.800  -0.582  0.00  0.00    +0.048 C 
ATOM     36  CD1 TRP A   1     -35.977  23.167  -0.402  0.00  0.00    +0.058 C 
ATOM     37  CE3 TRP A   1     -33.567  20.428  -0.178  0.00  0.00    +0.001 C 
ATOM     38  CZ2 TRP A   1     -32.381  22.931  -0.758  0.00  0.00    +0.015 C 
ATOM     39  CZ3 TRP A   1     -32.183  20.543  -0.352  0.00  0.00    +0.000 C 
ATOM     40  CH2 TRP A   1     -31.601  21.776  -0.638  0.00  0.00    +0.001 C 
ATOM     41  HE1 TRP A   1     -34.619  24.703  -0.828  0.00  0.00    +0.152 HD
ENDBRANCH  31  33
ENDBRANCH   1  31
TORSDOF 13
ENDMDL
MODEL 5
REMARK VINA RESULT:      -6.7      3.336      6.585
REMARK  Name = 191743
REMARK  13 active torsions:
REMARK  status: ('A' for Active; 'I' for Inactive)
REMARK    1  A    between atoms: CA_1  and  C_4
REMARK    2  A    between atoms: CA_1  and  N_12
REMARK    3  A    between atoms: CA_1  and  CB_31
REMARK    4  A    between atoms: N_3  and  CA_6
REMARK    5  A    between atoms: CA_6  and  C_8
REMARK    6  A    between atoms: C_8  and  O_9
REMARK    7  A    between atoms: C_13  and  C_15
REMARK    8  A    between atoms: C_15  and  N_17
REMARK    9  A    between atoms: C_18  and  O_20
REMARK   10  A    between atoms: O_20  and  C_21
REMARK   11  A    between atoms: C_21  and  C_22
REMARK   12  A    between atoms: C_25  and  N_30
REMARK   13  A    between atoms: CB_31  and  CG_33
REMARK                            x       y       z     vdW  Elec       q    Type
REMARK                         _______ _______ _______ _____ _____    ______ ____
ROOT
ATOM      1  CA  TRP A   1     -39.045  24.966   2.764  0.00  0.00    +0.153 C 
ENDROOT
BRANCH   1   4
ATOM      2  O   TRP A   1     -40.867  25.959   1.511  0.00  0.00    -0.273 OA
ATOM      3  N   GLY A   2     -40.930  26.037   3.831  0.00  0.00    -0.294 N 
ATOM      4  C   TRP A   1     -40.363  25.716   2.605  0.00  0.00    +0.241 C 
ATOM      5  H   GLY A   2     -40.441  25.796   4.651  0.00  0.00    +0.150 HD
BRANCH   3   6
ATOM      6  CA  GLY A   2     -42.203  26.709   3.963  0.00  0.00    +0.200 C 
BRANCH   6   8
ATOM      7  OXT GLY A   2     -42.010  28.930   4.872  0.00  0.00    -0.248 OA
ATOM      8  C   GLY A   2     -42.086  28.209   3.884  0.00  0.00    +0.334 C 
BRANCH   8   9
ATOM      9  O   GLY A   2     -42.073  28.685   2.618  0.00  0.00    -0.479 OA
ATOM     10  H   GLY A   2     -42.694  29.337   2.356  0.00  0.00    +0.295 HD
ENDBRANCH   8   9
ENDBRANCH   6   8
ENDBRANCH   3   6
ENDBRANCH   1   4
BRANCH   1  12
ATOM     11  O   UNK A   0     -40.030  22.345   2.018  0.00  0.00    -0.273 OA
ATOM     12  N   TRP A   1     -38.799  24.257   1.533  0.00  0.00    -0.297 N 
ATOM     13  C   UNK A   0     -39.315  22.997   1.259  0.00  0.00    +0.243 C 
ATOM     14  H   TRP A   1     -38.236  24.689   0.850  0.00  0.00    +0.150 HD
BRANCH  13  15
ATOM     15  C   UNK A   0     -38.937  22.527  -0.129  0.00  0.00    +0.178 C 
BRANCH  15  17
ATOM     16  O   UNK A   0     -36.375  21.243   0.349  0.00  0.00    -0.226 OA
ATOM     17  N   UNK A   0     -37.632  23.018  -0.463  0.00  0.00    -0.262 N 
ATOM     18  C   UNK A   0     -36.454  22.338  -0.198  0.00  0.00    +0.402 C 
ATOM     19  H   UNK A   0     -37.569  23.894  -0.908  0.00  0.00    +0.153 HD
BRANCH  18  20
ATOM     20  O   UNK A   0     -35.384  23.066  -0.634  0.00  0.00    -0.430 OA
BRANCH  20  21
ATOM     21  C   UNK A   0     -35.606  24.472  -0.787  0.00  0.00    +0.237 C 
BRANCH  21  22
ATOM     22  C   UNK A   0     -35.040  25.189   0.404  0.00  0.00    +0.021 C 
ATOM     23  C   UNK A   0     -34.182  24.522   1.277  0.00  0.00    +0.001 C 
ATOM     24  C   UNK A   0     -35.372  26.524   0.636  0.00  0.00    +0.001 C 
ATOM     25  C   UNK A   0     -33.988  26.523   2.616  0.00  0.00    +0.143 C 
ATOM     26  C   UNK A   0     -33.657  25.189   2.383  0.00  0.00    +0.024 C 
ATOM     27  C   UNK A   0     -34.846  27.191   1.742  0.00  0.00    +0.024 C 
BRANCH  25  30
ATOM     28  O   UNK A   0     -32.945  26.531   4.673  0.00  0.00    -0.126 OA
ATOM     29  O   UNK A   0     -33.496  28.457   3.773  0.00  0.00    -0.126 OA
ATOM     30  N   UNK A   0     -33.451  27.203   3.742  0.00  0.00    +0.058 N 
ENDBRANCH  25  30
ENDBRANCH  21  22
ENDBRANCH  20  21
ENDBRANCH  18  20
ENDBRANCH  15  17
ENDBRANCH  13  15
ENDBRANCH   1  12
BRANCH   1  31
ATOM     31  CB  TRP A   1     -37.909  25.941   3.102  0.00  0.00    +0.057 C 
BRANCH  31  33
ATOM     32  NE1 TRP A   1     -35.697  25.321   5.971  0.00  0.00    -0.312 N 
ATOM     33  CG  TRP A   1     -36.985  25.422   4.166  0.00  0.00    -0.004 C 
ATOM     34  CD2 TRP A   1     -36.448  24.108   4.256  0.00  0.00    +0.011 C 
ATOM     35  CE2 TRP A   1     -35.644  24.071   5.396  0.00  0.00    +0.048 C 
ATOM     36  CD1 TRP A   1     -36.505  26.145   5.234  0.00  0.00    +0.058 C 
ATOM     37  CE3 TRP A   1     -36.570  22.942   3.474  0.00  0.00    +0.001 C 
ATOM     38  CZ2 TRP A   1     -34.953  22.922   5.796  0.00  0.00    +0.015 C 
ATOM     39  CZ3 TRP A   1     -35.884  21.785   3.861  0.00  0.00    +0.000 C 
ATOM     40  CH2 TRP A   1     -35.088  21.777   5.004  0.00  0.00    +0.001 C 
ATOM     41  HE1 TRP A   1     -35.223  25.584   6.792  0.00  0.00    +0.152 HD
ENDBRANCH  31  33
ENDBRANCH   1  31
TORSDOF 13
ENDMDL
MODEL 6
REMARK VINA RESULT:      -6.7      3.550      5.484
REMARK  Name = 191743
REMARK  13 active torsions:
REMARK  status: ('A' for Active; 'I' for Inactive)
REMARK    1  A    between atoms: CA_1  and  C_4
REMARK    2  A    between atoms: CA_1  and  N_12
REMARK    3  A    between atoms: CA_1  and  CB_31
REMARK    4  A    between atoms: N_3  and  CA_6
REMARK    5  A    between atoms: CA_6  and  C_8
REMARK    6  A    between atoms: C_8  and  O_9
REMARK    7  A    between atoms: C_13  and  C_15
REMARK    8  A    between atoms: C_15  and  N_17
REMARK    9  A    between atoms: C_18  and  O_20
REMARK   10  A    between atoms: O_20  and  C_21
REMARK   11  A    between atoms: C_21  and  C_22
REMARK   12  A    between atoms: C_25  and  N_30
REMARK   13  A    between atoms: CB_31  and  CG_33
REMARK                            x       y       z     vdW  Elec       q    Type
REMARK                         _______ _______ _______ _____ _____    ______ ____
ROOT
ATOM      1  CA  TRP A   1     -35.904  20.426   0.938  0.00  0.00    +0.153 C 
ENDROOT
BRANCH   1   4
ATOM      2  O   TRP A   1     -38.061  19.782   0.039  0.00  0.00    -0.273 OA
ATOM      3  N   GLY A   2     -36.423  18.156   0.295  0.00  0.00    -0.294 N 
ATOM      4  C   TRP A   1     -36.933  19.443   0.390  0.00  0.00    +0.241 C 
ATOM      5  H   GLY A   2     -35.503  17.992   0.606  0.00  0.00    +0.150 HD
BRANCH   3   6
ATOM      6  CA  GLY A   2     -37.177  17.042  -0.236  0.00  0.00    +0.200 C 
BRANCH   6   8
ATOM      7  OXT GLY A   2     -36.131  15.350  -1.591  0.00  0.00    -0.248 OA
ATOM      8  C   GLY A   2     -36.329  15.821  -0.477  0.00  0.00    +0.334 C 
BRANCH   8   9
ATOM      9  O   GLY A   2     -35.806  15.293   0.654  0.00  0.00    -0.479 OA
ATOM     10  H   GLY A   2     -34.955  15.557   0.944  0.00  0.00    +0.295 HD
ENDBRANCH   8   9
ENDBRANCH   6   8
ENDBRANCH   3   6
ENDBRANCH   1   4
BRANCH   1  12
ATOM     11  O   UNK A   0     -36.351  23.285   1.089  0.00  0.00    -0.273 OA
ATOM     12  N   TRP A   1     -36.533  21.158   2.010  0.00  0.00    -0.297 N 
ATOM     13  C   UNK A   0     -36.706  22.536   1.998  0.00  0.00    +0.243 C 
ATOM     14  H   TRP A   1     -36.856  20.654   2.791  0.00  0.00    +0.150 HD
BRANCH  13  15
ATOM     15  C   UNK A   0     -37.444  23.018   3.228  0.00  0.00    +0.178 C 
BRANCH  15  17
ATOM     16  O   UNK A   0     -35.375  21.818   4.876  0.00  0.00    -0.226 OA
ATOM     17  N   UNK A   0     -36.527  23.681   4.108  0.00  0.00    -0.262 N 
ATOM     18  C   UNK A   0     -35.565  23.030   4.863  0.00  0.00    +0.402 C 
ATOM     19  H   UNK A   0     -36.586  24.661   4.181  0.00  0.00    +0.153 HD
BRANCH  18  20
ATOM     20  O   UNK A   0     -34.853  23.935   5.598  0.00  0.00    -0.430 OA
BRANCH  20  21
ATOM     21  C   UNK A   0     -35.366  25.271   5.610  0.00  0.00    +0.237 C 
BRANCH  21  22
ATOM     22  C   UNK A   0     -34.225  26.236   5.471  0.00  0.00    +0.021 C 
ATOM     23  C   UNK A   0     -33.460  26.575   6.586  0.00  0.00    +0.001 C 
ATOM     24  C   UNK A   0     -33.929  26.791   4.226  0.00  0.00    +0.001 C 
ATOM     25  C   UNK A   0     -32.102  28.027   5.213  0.00  0.00    +0.143 C 
ATOM     26  C   UNK A   0     -32.399  27.471   6.457  0.00  0.00    +0.024 C 
ATOM     27  C   UNK A   0     -32.868  27.687   4.097  0.00  0.00    +0.024 C 
BRANCH  25  30
ATOM     28  O   UNK A   0     -30.090  28.666   4.286  0.00  0.00    -0.126 OA
ATOM     29  O   UNK A   0     -31.028  29.993   5.763  0.00  0.00    -0.126 OA
ATOM     30  N   UNK A   0     -31.021  28.939   5.082  0.00  0.00    +0.058 N 
ENDBRANCH  25  30
ENDBRANCH  21  22
ENDBRANCH  20  21
ENDBRANCH  18  20
ENDBRANCH  15  17
ENDBRANCH  13  15
ENDBRANCH   1  12
BRANCH   1  31
ATOM     31  CB  TRP A   1     -34.648  19.682   1.410  0.00  0.00    +0.057 C 
BRANCH  31  33
ATOM     32  NE1 TRP A   1     -31.971  21.326  -0.499  0.00  0.00    -0.312 N 
ATOM     33  CG  TRP A   1     -33.401  20.121   0.697  0.00  0.00    -0.004 C 
ATOM     34  CD2 TRP A   1     -32.176  19.403   0.612  0.00  0.00    +0.011 C 
ATOM     35  CE2 TRP A   1     -31.296  20.180  -0.143  0.00  0.00    +0.048 C 
ATOM     36  CD1 TRP A   1     -33.245  21.299   0.003  0.00  0.00    +0.058 C 
ATOM     37  CE3 TRP A   1     -31.729  18.161   1.108  0.00  0.00    +0.001 C 
ATOM     38  CZ2 TRP A   1     -29.987  19.778  -0.429  0.00  0.00    +0.015 C 
ATOM     39  CZ3 TRP A   1     -30.422  17.745   0.830  0.00  0.00    +0.000 C 
ATOM     40  CH2 TRP A   1     -29.566  18.542   0.073  0.00  0.00    +0.001 C 
ATOM     41  HE1 TRP A   1     -31.594  22.058  -1.038  0.00  0.00    +0.152 HD
ENDBRANCH  31  33
ENDBRANCH   1  31
TORSDOF 13
ENDMDL
MODEL 7
REMARK VINA RESULT:      -6.7      4.019      8.319
REMARK  Name = 191743
REMARK  13 active torsions:
REMARK  status: ('A' for Active; 'I' for Inactive)
REMARK    1  A    between atoms: CA_1  and  C_4
REMARK    2  A    between atoms: CA_1  and  N_12
REMARK    3  A    between atoms: CA_1  and  CB_31
REMARK    4  A    between atoms: N_3  and  CA_6
REMARK    5  A    between atoms: CA_6  and  C_8
REMARK    6  A    between atoms: C_8  and  O_9
REMARK    7  A    between atoms: C_13  and  C_15
REMARK    8  A    between atoms: C_15  and  N_17
REMARK    9  A    between atoms: C_18  and  O_20
REMARK   10  A    between atoms: O_20  and  C_21
REMARK   11  A    between atoms: C_21  and  C_22
REMARK   12  A    between atoms: C_25  and  N_30
REMARK   13  A    between atoms: CB_31  and  CG_33
REMARK                            x       y       z     vdW  Elec       q    Type
REMARK                         _______ _______ _______ _____ _____    ______ ____
ROOT
ATOM      1  CA  TRP A   1     -34.715  27.060   3.765  0.00  0.00    +0.153 C 
ENDROOT
BRANCH   1   4
ATOM      2  O   TRP A   1     -33.281  26.344   5.584  0.00  0.00    -0.273 OA
ATOM      3  N   GLY A   2     -32.764  28.307   4.456  0.00  0.00    -0.294 N 
ATOM      4  C   TRP A   1     -33.531  27.181   4.719  0.00  0.00    +0.241 C 
ATOM      5  H   GLY A   2     -33.054  28.914   3.738  0.00  0.00    +0.150 HD
BRANCH   3   6
ATOM      6  CA  GLY A   2     -31.559  28.632   5.186  0.00  0.00    +0.200 C 
BRANCH   6   8
ATOM      7  OXT GLY A   2     -31.893  30.544   6.610  0.00  0.00    -0.248 OA
ATOM      8  C   GLY A   2     -31.835  29.325   6.495  0.00  0.00    +0.334 C 
BRANCH   8   9
ATOM      9  O   GLY A   2     -32.010  28.473   7.531  0.00  0.00    -0.479 OA
ATOM     10  H   GLY A   2     -31.328  27.874   7.766  0.00  0.00    +0.295 HD
ENDBRANCH   8   9
ENDBRANCH   6   8
ENDBRANCH   3   6
ENDBRANCH   1   4
BRANCH   1  12
ATOM     11  O   UNK A   0     -33.688  28.297   1.355  0.00  0.00    -0.273 OA
ATOM     12  N   TRP A   1     -34.245  26.397   2.574  0.00  0.00    -0.297 N 
ATOM     13  C   UNK A   0     -33.767  27.074   1.459  0.00  0.00    +0.243 C 
ATOM     14  H   TRP A   1     -34.264  25.413   2.550  0.00  0.00    +0.150 HD
BRANCH  13  15
ATOM     15  C   UNK A   0     -33.293  26.119   0.385  0.00  0.00    +0.178 C 
BRANCH  15  17
ATOM     16  O   UNK A   0     -34.675  23.851  -0.793  0.00  0.00    -0.226 OA
ATOM     17  N   UNK A   0     -33.354  24.775   0.879  0.00  0.00    -0.262 N 
ATOM     18  C   UNK A   0     -34.040  23.746   0.252  0.00  0.00    +0.402 C 
ATOM     19  H   UNK A   0     -32.879  24.569   1.717  0.00  0.00    +0.153 HD
BRANCH  18  20
ATOM     20  O   UNK A   0     -33.909  22.590   0.967  0.00  0.00    -0.430 OA
BRANCH  20  21
ATOM     21  C   UNK A   0     -34.380  21.401   0.325  0.00  0.00    +0.237 C 
BRANCH  21  22
ATOM     22  C   UNK A   0     -33.352  20.319   0.479  0.00  0.00    +0.021 C 
ATOM     23  C   UNK A   0     -33.597  19.241   1.329  0.00  0.00    +0.001 C 
ATOM     24  C   UNK A   0     -32.152  20.391  -0.228  0.00  0.00    +0.001 C 
ATOM     25  C   UNK A   0     -31.442  18.307   0.765  0.00  0.00    +0.143 C 
ATOM     26  C   UNK A   0     -32.642  18.235   1.472  0.00  0.00    +0.024 C 
ATOM     27  C   UNK A   0     -31.196  19.386  -0.085  0.00  0.00    +0.024 C 
BRANCH  25  30
ATOM     28  O   UNK A   0     -29.490  17.476   1.669  0.00  0.00    -0.126 OA
ATOM     29  O   UNK A   0     -30.617  16.209   0.275  0.00  0.00    -0.126 OA
ATOM     30  N   UNK A   0     -30.469  17.282   0.909  0.00  0.00    +0.058 N 
ENDBRANCH  25  30
ENDBRANCH  21  22
ENDBRANCH  20  21
ENDBRANCH  18  20
ENDBRANCH  15  17
ENDBRANCH  13  15
ENDBRANCH   1  12
BRANCH   1  31
ATOM     31  CB  TRP A   1     -35.866  26.296   4.431  0.00  0.00    +0.057 C 
BRANCH  31  33
ATOM     32  NE1 TRP A   1     -36.653  23.260   2.513  0.00  0.00    -0.312 N 
ATOM     33  CG  TRP A   1     -36.063  24.918   3.867  0.00  0.00    -0.004 C 
ATOM     34  CD2 TRP A   1     -35.663  23.691   4.465  0.00  0.00    +0.011 C 
ATOM     35  CE2 TRP A   1     -36.045  22.667   3.596  0.00  0.00    +0.048 C 
ATOM     36  CD1 TRP A   1     -36.670  24.621   2.668  0.00  0.00    +0.058 C 
ATOM     37  CE3 TRP A   1     -35.010  23.352   5.667  0.00  0.00    +0.001 C 
ATOM     38  CZ2 TRP A   1     -35.805  21.316   3.870  0.00  0.00    +0.015 C 
ATOM     39  CZ3 TRP A   1     -34.764  22.005   5.954  0.00  0.00    +0.000 C 
ATOM     40  CH2 TRP A   1     -35.156  21.004   5.068  0.00  0.00    +0.001 C 
ATOM     41  HE1 TRP A   1     -37.023  22.777   1.740  0.00  0.00    +0.152 HD
ENDBRANCH  31  33
ENDBRANCH   1  31
TORSDOF 13
ENDMDL
MODEL 8
REMARK VINA RESULT:      -6.6      3.715      8.013
REMARK  Name = 191743
REMARK  13 active torsions:
REMARK  status: ('A' for Active; 'I' for Inactive)
REMARK    1  A    between atoms: CA_1  and  C_4
REMARK    2  A    between atoms: CA_1  and  N_12
REMARK    3  A    between atoms: CA_1  and  CB_31
REMARK    4  A    between atoms: N_3  and  CA_6
REMARK    5  A    between atoms: CA_6  and  C_8
REMARK    6  A    between atoms: C_8  and  O_9
REMARK    7  A    between atoms: C_13  and  C_15
REMARK    8  A    between atoms: C_15  and  N_17
REMARK    9  A    between atoms: C_18  and  O_20
REMARK   10  A    between atoms: O_20  and  C_21
REMARK   11  A    between atoms: C_21  and  C_22
REMARK   12  A    between atoms: C_25  and  N_30
REMARK   13  A    between atoms: CB_31  and  CG_33
REMARK                            x       y       z     vdW  Elec       q    Type
REMARK                         _______ _______ _______ _____ _____    ______ ____
ROOT
ATOM      1  CA  TRP A   1     -38.606  23.644   1.764  0.00  0.00    +0.153 C 
ENDROOT
BRANCH   1   4
ATOM      2  O   TRP A   1     -39.792  24.738  -0.045  0.00  0.00    -0.273 OA
ATOM      3  N   GLY A   2     -40.633  24.912   2.112  0.00  0.00    -0.294 N 
ATOM      4  C   TRP A   1     -39.716  24.496   1.157  0.00  0.00    +0.241 C 
ATOM      5  H   GLY A   2     -40.478  24.663   3.051  0.00  0.00    +0.150 HD
BRANCH   3   6
ATOM      6  CA  GLY A   2     -41.807  25.694   1.795  0.00  0.00    +0.200 C 
BRANCH   6   8
ATOM      7  OXT GLY A   2     -41.542  28.031   1.284  0.00  0.00    -0.248 OA
ATOM      8  C   GLY A   2     -41.649  27.154   2.133  0.00  0.00    +0.334 C 
BRANCH   8   9
ATOM      9  O   GLY A   2     -41.636  27.403   3.462  0.00  0.00    -0.479 OA
ATOM     10  H   GLY A   2     -42.368  27.827   3.867  0.00  0.00    +0.295 HD
ENDBRANCH   8   9
ENDBRANCH   6   8
ENDBRANCH   3   6
ENDBRANCH   1   4
BRANCH   1  12
ATOM     11  O   UNK A   0     -40.134  21.184   1.866  0.00  0.00    -0.273 OA
ATOM     12  N   TRP A   1     -38.447  22.481   0.927  0.00  0.00    -0.297 N 
ATOM     13  C   UNK A   0     -39.229  21.339   1.048  0.00  0.00    +0.243 C 
ATOM     14  H   TRP A   1     -37.748  22.496   0.235  0.00  0.00    +0.150 HD
BRANCH  13  15
ATOM     15  C   UNK A   0     -38.873  20.304   0.002  0.00  0.00    +0.178 C 
BRANCH  15  17
ATOM     16  O   UNK A   0     -36.193  20.548  -1.092  0.00  0.00    -0.226 OA
ATOM     17  N   UNK A   0     -37.692  19.601   0.406  0.00  0.00    -0.262 N 
ATOM     18  C   UNK A   0     -36.445  19.777  -0.172  0.00  0.00    +0.402 C 
ATOM     19  H   UNK A   0     -37.771  18.950   1.142  0.00  0.00    +0.153 HD
BRANCH  18  20
ATOM     20  O   UNK A   0     -35.528  18.964   0.433  0.00  0.00    -0.430 OA
BRANCH  20  21
ATOM     21  C   UNK A   0     -34.654  19.599   1.371  0.00  0.00    +0.237 C 
BRANCH  21  22
ATOM     22  C   UNK A   0     -33.231  19.334   0.973  0.00  0.00    +0.021 C 
ATOM     23  C   UNK A   0     -32.534  20.273   0.213  0.00  0.00    +0.001 C 
ATOM     24  C   UNK A   0     -32.606  18.151   1.365  0.00  0.00    +0.001 C 
ATOM     25  C   UNK A   0     -30.587  18.845   0.235  0.00  0.00    +0.143 C 
ATOM     26  C   UNK A   0     -31.212  20.028  -0.156  0.00  0.00    +0.024 C 
ATOM     27  C   UNK A   0     -31.284  17.906   0.996  0.00  0.00    +0.024 C 
BRANCH  25  30
ATOM     28  O   UNK A   0     -28.974  18.384  -1.348  0.00  0.00    -0.126 OA
ATOM     29  O   UNK A   0     -28.351  18.595   0.747  0.00  0.00    -0.126 OA
ATOM     30  N   UNK A   0     -29.239  18.595  -0.140  0.00  0.00    +0.058 N 
ENDBRANCH  25  30
ENDBRANCH  21  22
ENDBRANCH  20  21
ENDBRANCH  18  20
ENDBRANCH  15  17
ENDBRANCH  13  15
ENDBRANCH   1  12
BRANCH   1  31
ATOM     31  CB  TRP A   1     -37.307  24.453   1.875  0.00  0.00    +0.057 C 
BRANCH  31  33
ATOM     32  NE1 TRP A   1     -36.209  25.276   5.286  0.00  0.00    -0.312 N 
ATOM     33  CG  TRP A   1     -36.771  24.516   3.276  0.00  0.00    -0.004 C 
ATOM     34  CD2 TRP A   1     -36.155  23.455   3.997  0.00  0.00    +0.011 C 
ATOM     35  CE2 TRP A   1     -35.812  23.958   5.254  0.00  0.00    +0.048 C 
ATOM     36  CD1 TRP A   1     -36.789  25.622   4.094  0.00  0.00    +0.058 C 
ATOM     37  CE3 TRP A   1     -35.856  22.111   3.700  0.00  0.00    +0.001 C 
ATOM     38  CZ2 TRP A   1     -35.182  23.180   6.232  0.00  0.00    +0.015 C 
ATOM     39  CZ3 TRP A   1     -35.226  21.321   4.668  0.00  0.00    +0.000 C 
ATOM     40  CH2 TRP A   1     -34.895  21.849   5.914  0.00  0.00    +0.001 C 
ATOM     41  HE1 TRP A   1     -36.092  25.881   6.053  0.00  0.00    +0.152 HD
ENDBRANCH  31  33
ENDBRANCH   1  31
TORSDOF 13
ENDMDL
MODEL 9
REMARK VINA RESULT:      -6.6      3.839      5.661
REMARK  Name = 191743
REMARK  13 active torsions:
REMARK  status: ('A' for Active; 'I' for Inactive)
REMARK    1  A    between atoms: CA_1  and  C_4
REMARK    2  A    between atoms: CA_1  and  N_12
REMARK    3  A    between atoms: CA_1  and  CB_31
REMARK    4  A    between atoms: N_3  and  CA_6
REMARK    5  A    between atoms: CA_6  and  C_8
REMARK    6  A    between atoms: C_8  and  O_9
REMARK    7  A    between atoms: C_13  and  C_15
REMARK    8  A    between atoms: C_15  and  N_17
REMARK    9  A    between atoms: C_18  and  O_20
REMARK   10  A    between atoms: O_20  and  C_21
REMARK   11  A    between atoms: C_21  and  C_22
REMARK   12  A    between atoms: C_25  and  N_30
REMARK   13  A    between atoms: CB_31  and  CG_33
REMARK                            x       y       z     vdW  Elec       q    Type
REMARK                         _______ _______ _______ _____ _____    ______ ____
ROOT
ATOM      1  CA  TRP A   1     -35.384  19.251   0.256  0.00  0.00    +0.153 C 
ENDROOT
BRANCH   1   4
ATOM      2  O   TRP A   1     -35.067  17.145  -0.903  0.00  0.00    -0.273 OA
ATOM      3  N   GLY A   2     -37.058  17.508   0.235  0.00  0.00    -0.294 N 
ATOM      4  C   TRP A   1     -35.798  17.864  -0.224  0.00  0.00    +0.241 C 
ATOM      5  H   GLY A   2     -37.562  18.161   0.773  0.00  0.00    +0.150 HD
BRANCH   3   6
ATOM      6  CA  GLY A   2     -37.669  16.227  -0.039  0.00  0.00    +0.200 C 
BRANCH   6   8
ATOM      7  OXT GLY A   2     -39.805  15.399  -0.777  0.00  0.00    -0.248 OA
ATOM      8  C   GLY A   2     -39.042  16.349  -0.646  0.00  0.00    +0.334 C 
BRANCH   8   9
ATOM      9  O   GLY A   2     -39.353  17.607  -1.034  0.00  0.00    -0.479 OA
ATOM     10  H   GLY A   2     -40.037  17.750  -1.659  0.00  0.00    +0.295 HD
ENDBRANCH   8   9
ENDBRANCH   6   8
ENDBRANCH   3   6
ENDBRANCH   1   4
BRANCH   1  12
ATOM     11  O   UNK A   0     -36.514  21.898  -0.079  0.00  0.00    -0.273 OA
ATOM     12  N   TRP A   1     -36.508  19.818   0.960  0.00  0.00    -0.297 N 
ATOM     13  C   UNK A   0     -36.983  21.103   0.734  0.00  0.00    +0.243 C 
ATOM     14  H   TRP A   1     -36.961  19.265   1.637  0.00  0.00    +0.150 HD
BRANCH  13  15
ATOM     15  C   UNK A   0     -38.204  21.404   1.577  0.00  0.00    +0.178 C 
BRANCH  15  17
ATOM     16  O   UNK A   0     -37.965  24.270   1.989  0.00  0.00    -0.226 OA
ATOM     17  N   UNK A   0     -37.805  22.090   2.770  0.00  0.00    -0.262 N 
ATOM     18  C   UNK A   0     -37.716  23.468   2.883  0.00  0.00    +0.402 C 
ATOM     19  H   UNK A   0     -37.578  21.547   3.560  0.00  0.00    +0.153 HD
BRANCH  18  20
ATOM     20  O   UNK A   0     -37.309  23.811   4.142  0.00  0.00    -0.430 OA
BRANCH  20  21
ATOM     21  C   UNK A   0     -36.011  23.346   4.526  0.00  0.00    +0.237 C 
BRANCH  21  22
ATOM     22  C   UNK A   0     -35.065  24.511   4.565  0.00  0.00    +0.021 C 
ATOM     23  C   UNK A   0     -34.861  25.203   5.758  0.00  0.00    +0.001 C 
ATOM     24  C   UNK A   0     -34.389  24.899   3.408  0.00  0.00    +0.001 C 
ATOM     25  C   UNK A   0     -33.305  26.673   4.639  0.00  0.00    +0.143 C 
ATOM     26  C   UNK A   0     -33.981  26.284   5.794  0.00  0.00    +0.024 C 
ATOM     27  C   UNK A   0     -33.509  25.980   3.445  0.00  0.00    +0.024 C 
BRANCH  25  30
ATOM     28  O   UNK A   0     -32.714  28.784   5.354  0.00  0.00    -0.126 OA
ATOM     29  O   UNK A   0     -31.333  27.705   4.031  0.00  0.00    -0.126 OA
ATOM     30  N   UNK A   0     -32.408  27.774   4.676  0.00  0.00    +0.058 N 
ENDBRANCH  25  30
ENDBRANCH  21  22
ENDBRANCH  20  21
ENDBRANCH  18  20
ENDBRANCH  15  17
ENDBRANCH  13  15
ENDBRANCH   1  12
BRANCH   1  31
ATOM     31  CB  TRP A   1     -34.136  19.162   1.143  0.00  0.00    +0.057 C 
BRANCH  31  33
ATOM     32  NE1 TRP A   1     -31.571  21.143  -0.592  0.00  0.00    -0.312 N 
ATOM     33  CG  TRP A   1     -32.914  19.753   0.501  0.00  0.00    -0.004 C 
ATOM     34  CD2 TRP A   1     -31.617  19.171   0.451  0.00  0.00    +0.011 C 
ATOM     35  CE2 TRP A   1     -30.794  20.062  -0.240  0.00  0.00    +0.048 C 
ATOM     36  CD1 TRP A   1     -32.855  20.964  -0.149  0.00  0.00    +0.058 C 
ATOM     37  CE3 TRP A   1     -31.062  17.967   0.929  0.00  0.00    +0.001 C 
ATOM     38  CZ2 TRP A   1     -29.438  19.810  -0.477  0.00  0.00    +0.015 C 
ATOM     39  CZ3 TRP A   1     -29.707  17.701   0.699  0.00  0.00    +0.000 C 
ATOM     40  CH2 TRP A   1     -28.910  18.609   0.006  0.00  0.00    +0.001 C 
ATOM     41  HE1 TRP A   1     -31.251  21.929  -1.091  0.00  0.00    +0.152 HD
ENDBRANCH  31  33
ENDBRANCH   1  31
TORSDOF 13
ENDMDL
