MODEL 1
REMARK VINA RESULT:      -6.5      0.000      0.000
REMARK  Name = 5459179
REMARK  5 active torsions:
REMARK  status: ('A' for Active; 'I' for Inactive)
REMARK    1  A    between atoms: C_7  and  C_25
REMARK    2  A    between atoms: C_8  and  O_22
REMARK    3  A    between atoms: C_11  and  C_26
REMARK    4  A    between atoms: C_26  and  O_27
REMARK    5  A    between atoms: O_27  and  C_29
REMARK                            x       y       z     vdW  Elec       q    Type
REMARK                         _______ _______ _______ _____ _____    ______ ____
ROOT
ATOM      1  O   UNL     1     -33.129  25.472   1.681  0.00  0.00    -0.448 OA
ATOM      2  O   UNL     1     -31.828  27.553   5.051  0.00  0.00    -0.291 OA
ATOM      3  O   UNL     1     -31.145  25.974   2.608  0.00  0.00    -0.250 OA
ATOM      4  C   UNL     1     -35.143  26.258   2.873  0.00  0.00    +0.051 C 
ATOM      5  C   UNL     1     -34.441  27.653   3.157  0.00  0.00    +0.048 C 
ATOM      6  C   UNL     1     -32.902  27.607   2.845  0.00  0.00    +0.147 C 
ATOM      7  C   UNL     1     -34.852  25.231   4.056  0.00  0.00    +0.072 C 
ATOM      8  C   UNL     1     -35.115  28.922   2.535  0.00  0.00    +0.112 C 
ATOM      9  C   UNL     1     -32.467  28.703   1.840  0.00  0.00    +0.023 C 
ATOM     10  C   UNL     1     -36.680  26.401   2.716  0.00  0.00    +0.004 C 
ATOM     11  C   UNL     1     -35.660  23.883   4.037  0.00  0.00    +0.048 C 
ATOM     12  C   UNL     1     -32.761  29.997   2.601  0.00  0.00    +0.029 C 
ATOM     13  C   UNL     1     -34.521  25.794   1.538  0.00  0.00    +0.209 C 
ATOM     14  C   UNL     1     -34.282  30.208   2.741  0.00  0.00    +0.034 C 
ATOM     15  C   UNL     1     -32.217  28.183   4.081  0.00  0.00    +0.178 C 
ATOM     16  C   UNL     1     -37.431  25.073   2.610  0.00  0.00    +0.000 C 
ATOM     17  C   UNL     1     -37.160  24.152   3.794  0.00  0.00    +0.004 C 
ATOM     18  C   UNL     1     -32.314  26.285   2.393  0.00  0.00    +0.323 C 
ATOM     19  C   UNL     1     -32.138  29.666   3.934  0.00  0.00    +0.013 C 
ATOM     20  C   UNL     1     -35.515  23.132   5.390  0.00  0.00    +0.004 C 
ATOM     21  C   UNL     1     -31.555  30.475   4.818  0.00  0.00    -0.002 C 
ENDROOT
BRANCH   8  22
ATOM     22  O   UNL     1     -35.358  28.760   1.140  0.00  0.00    -0.384 OA
ATOM     23  H   UNL     1     -35.197  27.837   0.889  0.00  0.00    +0.210 HD
ENDBRANCH   8  22
BRANCH   7  25
ATOM     24  O   UNL     1     -34.212  26.093   6.220  0.00  0.00    -0.288 OA
ATOM     25  C   UNL     1     -35.092  25.907   5.388  0.00  0.00    +0.207 C 
ENDBRANCH   7  25
BRANCH  11  26
ATOM     26  C   UNL     1     -35.115  22.900   2.976  0.00  0.00    +0.209 C 
BRANCH  26  27
ATOM     27  O   UNL     1     -35.457  21.595   3.383  0.00  0.00    -0.448 OA
BRANCH  27  29
ATOM     28  O   UNL     1     -36.973  20.566   1.975  0.00  0.00    -0.250 OA
ATOM     29  C   UNL     1     -35.833  20.728   2.386  0.00  0.00    +0.318 C 
ATOM     30  C   UNL     1     -34.637  19.994   1.857  0.00  0.00    +0.121 C 
ENDBRANCH  27  29
ENDBRANCH  26  27
ENDBRANCH  11  26
TORSDOF 5
ENDMDL
MODEL 2
REMARK VINA RESULT:      -6.4      2.523      5.270
REMARK  Name = 5459179
REMARK  5 active torsions:
REMARK  status: ('A' for Active; 'I' for Inactive)
REMARK    1  A    between atoms: C_7  and  C_25
REMARK    2  A    between atoms: C_8  and  O_22
REMARK    3  A    between atoms: C_11  and  C_26
REMARK    4  A    between atoms: C_26  and  O_27
REMARK    5  A    between atoms: O_27  and  C_29
REMARK                            x       y       z     vdW  Elec       q    Type
REMARK                         _______ _______ _______ _____ _____    ______ ____
ROOT
ATOM      1  O   UNL     1     -38.046  24.138   2.223  0.00  0.00    -0.448 OA
ATOM      2  O   UNL     1     -34.529  26.375   2.106  0.00  0.00    -0.291 OA
ATOM      3  O   UNL     1     -37.515  26.313   2.022  0.00  0.00    -0.250 OA
ATOM      4  C   UNL     1     -36.166  22.547   2.391  0.00  0.00    +0.051 C 
ATOM      5  C   UNL     1     -35.405  23.536   3.372  0.00  0.00    +0.048 C 
ATOM      6  C   UNL     1     -36.067  24.961   3.395  0.00  0.00    +0.147 C 
ATOM      7  C   UNL     1     -35.771  22.844   0.876  0.00  0.00    +0.072 C 
ATOM      8  C   UNL     1     -35.119  23.013   4.820  0.00  0.00    +0.112 C 
ATOM      9  C   UNL     1     -36.459  25.411   4.825  0.00  0.00    +0.023 C 
ATOM     10  C   UNL     1     -35.845  21.061   2.698  0.00  0.00    +0.004 C 
ATOM     11  C   UNL     1     -36.263  21.807  -0.199  0.00  0.00    +0.048 C 
ATOM     12  C   UNL     1     -35.107  25.502   5.534  0.00  0.00    +0.029 C 
ATOM     13  C   UNL     1     -37.660  22.828   2.665  0.00  0.00    +0.209 C 
ATOM     14  C   UNL     1     -34.510  24.095   5.741  0.00  0.00    +0.034 C 
ATOM     15  C   UNL     1     -34.922  25.947   3.179  0.00  0.00    +0.178 C 
ATOM     16  C   UNL     1     -36.412  20.068   1.683  0.00  0.00    +0.000 C 
ATOM     17  C   UNL     1     -35.959  20.365   0.259  0.00  0.00    +0.004 C 
ATOM     18  C   UNL     1     -37.250  25.203   2.478  0.00  0.00    +0.323 C 
ATOM     19  C   UNL     1     -34.321  26.275   4.505  0.00  0.00    +0.013 C 
ATOM     20  C   UNL     1     -35.553  22.044  -1.560  0.00  0.00    +0.004 C 
ATOM     21  C   UNL     1     -33.326  27.144   4.680  0.00  0.00    -0.002 C 
ENDROOT
BRANCH   8  22
ATOM     22  O   UNL     1     -36.297  22.504   5.439  0.00  0.00    -0.384 OA
ATOM     23  H   UNL     1     -36.148  22.410   6.392  0.00  0.00    +0.210 HD
ENDBRANCH   8  22
BRANCH   7  25
ATOM     24  O   UNL     1     -33.707  23.972   0.328  0.00  0.00    -0.288 OA
ATOM     25  C   UNL     1     -34.268  22.971   0.757  0.00  0.00    +0.207 C 
ENDBRANCH   7  25
BRANCH  11  26
ATOM     26  C   UNL     1     -37.770  21.964  -0.503  0.00  0.00    +0.209 C 
BRANCH  26  27
ATOM     27  O   UNL     1     -38.203  20.791  -1.152  0.00  0.00    -0.448 OA
BRANCH  27  29
ATOM     28  O   UNL     1     -39.752  19.091  -0.923  0.00  0.00    -0.250 OA
ATOM     29  C   UNL     1     -39.354  20.219  -0.666  0.00  0.00    +0.318 C 
ATOM     30  C   UNL     1     -40.070  21.178   0.236  0.00  0.00    +0.121 C 
ENDBRANCH  27  29
ENDBRANCH  26  27
ENDBRANCH  11  26
TORSDOF 5
ENDMDL
MODEL 3
REMARK VINA RESULT:      -6.4      2.976      6.331
REMARK  Name = 5459179
REMARK  5 active torsions:
REMARK  status: ('A' for Active; 'I' for Inactive)
REMARK    1  A    between atoms: C_7  and  C_25
REMARK    2  A    between atoms: C_8  and  O_22
REMARK    3  A    between atoms: C_11  and  C_26
REMARK    4  A    between atoms: C_26  and  O_27
REMARK    5  A    between atoms: O_27  and  C_29
REMARK                            x       y       z     vdW  Elec       q    Type
REMARK                         _______ _______ _______ _____ _____    ______ ____
ROOT
ATOM      1  O   UNL     1     -37.477  23.173   0.986  0.00  0.00    -0.448 OA
ATOM      2  O   UNL     1     -35.247  20.350   3.095  0.00  0.00    -0.291 OA
ATOM      3  O   UNL     1     -37.772  21.049   1.659  0.00  0.00    -0.250 OA
ATOM      4  C   UNL     1     -35.348  24.252   1.617  0.00  0.00    +0.051 C 
ATOM      5  C   UNL     1     -34.559  22.921   1.265  0.00  0.00    +0.048 C 
ATOM      6  C   UNL     1     -35.529  21.701   1.065  0.00  0.00    +0.147 C 
ATOM      7  C   UNL     1     -35.794  24.252   3.147  0.00  0.00    +0.072 C 
ATOM      8  C   UNL     1     -33.504  23.010   0.111  0.00  0.00    +0.112 C 
ATOM      9  C   UNL     1     -35.342  21.013  -0.310  0.00  0.00    +0.023 C 
ATOM     10  C   UNL     1     -34.495  25.521   1.356  0.00  0.00    +0.004 C 
ATOM     11  C   UNL     1     -36.386  25.595   3.711  0.00  0.00    +0.048 C 
ATOM     12  C   UNL     1     -33.913  20.476  -0.229  0.00  0.00    +0.029 C 
ATOM     13  C   UNL     1     -36.561  24.229   0.662  0.00  0.00    +0.209 C 
ATOM     14  C   UNL     1     -32.897  21.636  -0.257  0.00  0.00    +0.034 C 
ATOM     15  C   UNL     1     -34.961  20.580   1.931  0.00  0.00    +0.178 C 
ATOM     16  C   UNL     1     -35.137  26.823   1.836  0.00  0.00    +0.000 C 
ATOM     17  C   UNL     1     -35.492  26.790   3.317  0.00  0.00    +0.004 C 
ATOM     18  C   UNL     1     -37.011  21.937   1.283  0.00  0.00    +0.323 C 
ATOM     19  C   UNL     1     -33.952  19.826   1.132  0.00  0.00    +0.013 C 
ATOM     20  C   UNL     1     -36.479  25.550   5.261  0.00  0.00    +0.004 C 
ATOM     21  C   UNL     1     -33.297  18.753   1.574  0.00  0.00    -0.002 C 
ENDROOT
BRANCH   8  22
ATOM     22  O   UNL     1     -34.060  23.588  -1.067  0.00  0.00    -0.384 OA
ATOM     23  H   UNL     1     -34.653  24.316  -0.822  0.00  0.00    +0.210 HD
ENDBRANCH   8  22
BRANCH   7  25
ATOM     24  O   UNL     1     -34.704  23.011   4.910  0.00  0.00    -0.288 OA
ATOM     25  C   UNL     1     -34.625  23.849   4.019  0.00  0.00    +0.207 C 
ENDBRANCH   7  25
BRANCH  11  26
ATOM     26  C   UNL     1     -37.836  25.831   3.231  0.00  0.00    +0.209 C 
BRANCH  26  27
ATOM     27  O   UNL     1     -38.607  24.721   3.630  0.00  0.00    -0.448 OA
BRANCH  27  29
ATOM     28  O   UNL     1     -40.295  23.486   2.648  0.00  0.00    -0.250 OA
ATOM     29  C   UNL     1     -39.810  24.556   2.987  0.00  0.00    +0.318 C 
ATOM     30  C   UNL     1     -40.460  25.886   2.753  0.00  0.00    +0.121 C 
ENDBRANCH  27  29
ENDBRANCH  26  27
ENDBRANCH  11  26
TORSDOF 5
ENDMDL
MODEL 4
REMARK VINA RESULT:      -6.3      3.435      5.397
REMARK  Name = 5459179
REMARK  5 active torsions:
REMARK  status: ('A' for Active; 'I' for Inactive)
REMARK    1  A    between atoms: C_7  and  C_25
REMARK    2  A    between atoms: C_8  and  O_22
REMARK    3  A    between atoms: C_11  and  C_26
REMARK    4  A    between atoms: C_26  and  O_27
REMARK    5  A    between atoms: O_27  and  C_29
REMARK                            x       y       z     vdW  Elec       q    Type
REMARK                         _______ _______ _______ _____ _____    ______ ____
ROOT
ATOM      1  O   UNL     1     -35.363  24.466   0.656  0.00  0.00    -0.448 OA
ATOM      2  O   UNL     1     -35.992  21.441   3.456  0.00  0.00    -0.291 OA
ATOM      3  O   UNL     1     -34.290  22.595   1.287  0.00  0.00    -0.250 OA
ATOM      4  C   UNL     1     -37.491  24.968   1.803  0.00  0.00    +0.051 C 
ATOM      5  C   UNL     1     -36.852  24.543   3.192  0.00  0.00    +0.048 C 
ATOM      6  C   UNL     1     -35.481  23.799   3.002  0.00  0.00    +0.147 C 
ATOM      7  C   UNL     1     -38.176  23.716   1.093  0.00  0.00    +0.072 C 
ATOM      8  C   UNL     1     -36.755  25.652   4.293  0.00  0.00    +0.112 C 
ATOM      9  C   UNL     1     -34.328  24.468   3.792  0.00  0.00    +0.023 C 
ATOM     10  C   UNL     1     -38.559  26.081   1.969  0.00  0.00    +0.004 C 
ATOM     11  C   UNL     1     -39.048  24.015  -0.181  0.00  0.00    +0.048 C 
ATOM     12  C   UNL     1     -34.767  24.294   5.246  0.00  0.00    +0.029 C 
ATOM     13  C   UNL     1     -36.292  25.507   0.992  0.00  0.00    +0.209 C 
ATOM     14  C   UNL     1     -35.988  25.185   5.552  0.00  0.00    +0.034 C 
ATOM     15  C   UNL     1     -35.587  22.526   3.839  0.00  0.00    +0.178 C 
ATOM     16  C   UNL     1     -39.330  26.412   0.691  0.00  0.00    +0.000 C 
ATOM     17  C   UNL     1     -40.011  25.191   0.085  0.00  0.00    +0.004 C 
ATOM     18  C   UNL     1     -35.006  23.549   1.584  0.00  0.00    +0.323 C 
ATOM     19  C   UNL     1     -35.153  22.836   5.232  0.00  0.00    +0.013 C 
ATOM     20  C   UNL     1     -39.896  22.774  -0.574  0.00  0.00    +0.004 C 
ATOM     21  C   UNL     1     -35.081  21.934   6.211  0.00  0.00    -0.002 C 
ENDROOT
BRANCH   8  22
ATOM     22  O   UNL     1     -36.132  26.833   3.798  0.00  0.00    -0.384 OA
ATOM     23  H   UNL     1     -36.089  26.795   2.829  0.00  0.00    +0.210 HD
ENDBRANCH   8  22
BRANCH   7  25
ATOM     24  O   UNL     1     -38.951  21.767   2.291  0.00  0.00    -0.288 OA
ATOM     25  C   UNL     1     -39.036  22.973   2.091  0.00  0.00    +0.207 C 
ENDBRANCH   7  25
BRANCH  11  26
ATOM     26  C   UNL     1     -38.174  24.309  -1.420  0.00  0.00    +0.209 C 
BRANCH  26  27
ATOM     27  O   UNL     1     -37.856  23.077  -2.025  0.00  0.00    -0.448 OA
BRANCH  27  29
ATOM     28  O   UNL     1     -35.638  23.429  -2.572  0.00  0.00    -0.250 OA
ATOM     29  C   UNL     1     -36.522  22.750  -2.070  0.00  0.00    +0.318 C 
ATOM     30  C   UNL     1     -36.290  21.425  -1.408  0.00  0.00    +0.121 C 
ENDBRANCH  27  29
ENDBRANCH  26  27
ENDBRANCH  11  26
TORSDOF 5
ENDMDL
MODEL 5
REMARK VINA RESULT:      -6.2      9.135     11.803
REMARK  Name = 5459179
REMARK  5 active torsions:
REMARK  status: ('A' for Active; 'I' for Inactive)
REMARK    1  A    between atoms: C_7  and  C_25
REMARK    2  A    between atoms: C_8  and  O_22
REMARK    3  A    between atoms: C_11  and  C_26
REMARK    4  A    between atoms: C_26  and  O_27
REMARK    5  A    between atoms: O_27  and  C_29
REMARK                            x       y       z     vdW  Elec       q    Type
REMARK                         _______ _______ _______ _____ _____    ______ ____
ROOT
ATOM      1  O   UNL     1     -46.112  29.825   3.452  0.00  0.00    -0.448 OA
ATOM      2  O   UNL     1     -43.035  30.706   6.125  0.00  0.00    -0.291 OA
ATOM      3  O   UNL     1     -45.205  31.689   4.322  0.00  0.00    -0.250 OA
ATOM      4  C   UNL     1     -45.106  27.677   4.138  0.00  0.00    +0.051 C 
ATOM      5  C   UNL     1     -45.002  28.193   5.636  0.00  0.00    +0.048 C 
ATOM      6  C   UNL     1     -45.258  29.740   5.739  0.00  0.00    +0.147 C 
ATOM      7  C   UNL     1     -43.779  28.032   3.329  0.00  0.00    +0.072 C 
ATOM      8  C   UNL     1     -45.820  27.403   6.712  0.00  0.00    +0.112 C 
ATOM      9  C   UNL     1     -46.395  30.088   6.732  0.00  0.00    +0.023 C 
ATOM     10  C   UNL     1     -45.327  26.143   4.065  0.00  0.00    +0.004 C 
ATOM     11  C   UNL     1     -43.630  27.392   1.900  0.00  0.00    +0.048 C 
ATOM     12  C   UNL     1     -45.837  29.606   8.071  0.00  0.00    +0.029 C 
ATOM     13  C   UNL     1     -46.341  28.413   3.575  0.00  0.00    +0.209 C 
ATOM     14  C   UNL     1     -45.775  28.066   8.108  0.00  0.00    +0.034 C 
ATOM     15  C   UNL     1     -44.096  30.292   6.561  0.00  0.00    +0.178 C 
ATOM     16  C   UNL     1     -45.265  25.562   2.652  0.00  0.00    +0.000 C 
ATOM     17  C   UNL     1     -43.954  25.884   1.944  0.00  0.00    +0.004 C 
ATOM     18  C   UNL     1     -45.499  30.502   4.451  0.00  0.00    +0.323 C 
ATOM     19  C   UNL     1     -44.451  30.200   8.008  0.00  0.00    +0.013 C 
ATOM     20  C   UNL     1     -42.180  27.561   1.368  0.00  0.00    +0.004 C 
ATOM     21  C   UNL     1     -43.675  30.640   8.998  0.00  0.00    -0.002 C 
ENDROOT
BRANCH   8  22
ATOM     22  O   UNL     1     -47.184  27.248   6.330  0.00  0.00    -0.384 OA
ATOM     23  H   UNL     1     -47.229  26.834   5.454  0.00  0.00    +0.210 HD
ENDBRANCH   8  22
BRANCH   7  25
ATOM     24  O   UNL     1     -41.728  28.457   4.532  0.00  0.00    -0.288 OA
ATOM     25  C   UNL     1     -42.566  27.649   4.147  0.00  0.00    +0.207 C 
ENDBRANCH   7  25
BRANCH  11  26
ATOM     26  C   UNL     1     -44.523  28.100   0.857  0.00  0.00    +0.209 C 
BRANCH  26  27
ATOM     27  O   UNL     1     -43.771  29.148   0.288  0.00  0.00    -0.448 OA
BRANCH  27  29
ATOM     28  O   UNL     1     -43.352  31.062   1.514  0.00  0.00    -0.250 OA
ATOM     29  C   UNL     1     -44.050  30.412   0.747  0.00  0.00    +0.318 C 
ATOM     30  C   UNL     1     -45.345  30.900   0.172  0.00  0.00    +0.121 C 
ENDBRANCH  27  29
ENDBRANCH  26  27
ENDBRANCH  11  26
TORSDOF 5
ENDMDL
MODEL 6
REMARK VINA RESULT:      -6.1      1.885      3.856
REMARK  Name = 5459179
REMARK  5 active torsions:
REMARK  status: ('A' for Active; 'I' for Inactive)
REMARK    1  A    between atoms: C_7  and  C_25
REMARK    2  A    between atoms: C_8  and  O_22
REMARK    3  A    between atoms: C_11  and  C_26
REMARK    4  A    between atoms: C_26  and  O_27
REMARK    5  A    between atoms: O_27  and  C_29
REMARK                            x       y       z     vdW  Elec       q    Type
REMARK                         _______ _______ _______ _____ _____    ______ ____
ROOT
ATOM      1  O   UNL     1     -37.128  26.259   2.915  0.00  0.00    -0.448 OA
ATOM      2  O   UNL     1     -34.228  26.961   0.002  0.00  0.00    -0.291 OA
ATOM      3  O   UNL     1     -36.976  27.497   1.046  0.00  0.00    -0.250 OA
ATOM      4  C   UNL     1     -35.163  24.882   3.498  0.00  0.00    +0.051 C 
ATOM      5  C   UNL     1     -34.197  26.080   3.109  0.00  0.00    +0.048 C 
ATOM      6  C   UNL     1     -34.957  27.215   2.333  0.00  0.00    +0.147 C 
ATOM      7  C   UNL     1     -35.435  23.948   2.236  0.00  0.00    +0.072 C 
ATOM      8  C   UNL     1     -33.304  26.667   4.254  0.00  0.00    +0.112 C 
ATOM      9  C   UNL     1     -34.802  28.602   3.006  0.00  0.00    +0.023 C 
ATOM     10  C   UNL     1     -34.577  24.007   4.637  0.00  0.00    +0.004 C 
ATOM     11  C   UNL     1     -36.187  22.594   2.508  0.00  0.00    +0.048 C 
ATOM     12  C   UNL     1     -33.301  28.869   2.892  0.00  0.00    +0.029 C 
ATOM     13  C   UNL     1     -36.450  25.584   3.986  0.00  0.00    +0.209 C 
ATOM     14  C   UNL     1     -32.511  27.920   3.816  0.00  0.00    +0.034 C 
ATOM     15  C   UNL     1     -34.113  27.497   1.092  0.00  0.00    +0.178 C 
ATOM     16  C   UNL     1     -35.379  22.742   4.939  0.00  0.00    +0.000 C 
ATOM     17  C   UNL     1     -35.562  21.858   3.712  0.00  0.00    +0.004 C 
ATOM     18  C   UNL     1     -36.425  26.996   2.024  0.00  0.00    +0.323 C 
ATOM     19  C   UNL     1     -33.080  28.516   1.442  0.00  0.00    +0.013 C 
ATOM     20  C   UNL     1     -36.105  21.658   1.271  0.00  0.00    +0.004 C 
ATOM     21  C   UNL     1     -32.205  29.022   0.573  0.00  0.00    -0.002 C 
ENDROOT
BRANCH   8  22
ATOM     22  O   UNL     1     -34.075  27.000   5.405  0.00  0.00    -0.384 OA
ATOM     23  H   UNL     1     -34.167  26.217   5.971  0.00  0.00    +0.210 HD
ENDBRANCH   8  22
BRANCH   7  25
ATOM     24  O   UNL     1     -33.907  23.885   0.367  0.00  0.00    -0.288 OA
ATOM     25  C   UNL     1     -34.127  23.631   1.546  0.00  0.00    +0.207 C 
ENDBRANCH   7  25
BRANCH  11  26
ATOM     26  C   UNL     1     -37.699  22.812   2.742  0.00  0.00    +0.209 C 
BRANCH  26  27
ATOM     27  O   UNL     1     -38.379  21.680   2.250  0.00  0.00    -0.448 OA
BRANCH  27  29
ATOM     28  O   UNL     1     -40.458  21.000   1.504  0.00  0.00    -0.250 OA
ATOM     29  C   UNL     1     -39.683  21.875   1.866  0.00  0.00    +0.318 C 
ATOM     30  C   UNL     1     -40.038  23.328   1.952  0.00  0.00    +0.121 C 
ENDBRANCH  27  29
ENDBRANCH  26  27
ENDBRANCH  11  26
TORSDOF 5
ENDMDL
MODEL 7
REMARK VINA RESULT:      -5.7      5.091      7.680
REMARK  Name = 5459179
REMARK  5 active torsions:
REMARK  status: ('A' for Active; 'I' for Inactive)
REMARK    1  A    between atoms: C_7  and  C_25
REMARK    2  A    between atoms: C_8  and  O_22
REMARK    3  A    between atoms: C_11  and  C_26
REMARK    4  A    between atoms: C_26  and  O_27
REMARK    5  A    between atoms: O_27  and  C_29
REMARK                            x       y       z     vdW  Elec       q    Type
REMARK                         _______ _______ _______ _____ _____    ______ ____
ROOT
ATOM      1  O   UNL     1     -37.352  22.143   2.610  0.00  0.00    -0.448 OA
ATOM      2  O   UNL     1     -34.015  22.821   0.204  0.00  0.00    -0.291 OA
ATOM      3  O   UNL     1     -35.327  23.081   2.876  0.00  0.00    -0.250 OA
ATOM      4  C   UNL     1     -37.890  21.282   0.359  0.00  0.00    +0.051 C 
ATOM      5  C   UNL     1     -36.429  20.676   0.231  0.00  0.00    +0.048 C 
ATOM      6  C   UNL     1     -35.472  21.216   1.355  0.00  0.00    +0.147 C 
ATOM      7  C   UNL     1     -37.933  22.771  -0.207  0.00  0.00    +0.072 C 
ATOM      8  C   UNL     1     -36.319  19.122   0.083  0.00  0.00    +0.112 C 
ATOM      9  C   UNL     1     -34.813  20.077   2.172  0.00  0.00    +0.023 C 
ATOM     10  C   UNL     1     -38.940  20.436  -0.408  0.00  0.00    +0.004 C 
ATOM     11  C   UNL     1     -39.353  23.428  -0.361  0.00  0.00    +0.048 C 
ATOM     12  C   UNL     1     -33.961  19.358   1.125  0.00  0.00    +0.029 C 
ATOM     13  C   UNL     1     -38.183  21.232   1.875  0.00  0.00    +0.209 C 
ATOM     14  C   UNL     1     -34.859  18.616   0.115  0.00  0.00    +0.034 C 
ATOM     15  C   UNL     1     -34.218  21.696   0.629  0.00  0.00    +0.178 C 
ATOM     16  C   UNL     1     -40.335  21.060  -0.464  0.00  0.00    +0.000 C 
ATOM     17  C   UNL     1     -40.327  22.460  -1.065  0.00  0.00    +0.004 C 
ATOM     18  C   UNL     1     -36.032  22.237   2.326  0.00  0.00    +0.323 C 
ATOM     19  C   UNL     1     -33.285  20.541   0.478  0.00  0.00    +0.013 C 
ATOM     20  C   UNL     1     -39.271  24.731  -1.203  0.00  0.00    +0.004 C 
ATOM     21  C   UNL     1     -32.075  20.625  -0.074  0.00  0.00    -0.002 C 
ENDROOT
BRANCH   8  22
ATOM     22  O   UNL     1     -37.055  18.443   1.097  0.00  0.00    -0.384 OA
ATOM     23  H   UNL     1     -37.745  19.029   1.445  0.00  0.00    +0.210 HD
ENDBRANCH   8  22
BRANCH   7  25
ATOM     24  O   UNL     1     -36.293  23.565  -1.793  0.00  0.00    -0.288 OA
ATOM     25  C   UNL     1     -37.240  22.825  -1.550  0.00  0.00    +0.207 C 
ENDBRANCH   7  25
BRANCH  11  26
ATOM     26  C   UNL     1     -39.933  23.871   1.002  0.00  0.00    +0.209 C 
BRANCH  26  27
ATOM     27  O   UNL     1     -38.996  24.731   1.608  0.00  0.00    -0.448 OA
BRANCH  27  29
ATOM     28  O   UNL     1     -38.539  24.750   3.874  0.00  0.00    -0.250 OA
ATOM     29  C   UNL     1     -39.237  25.063   2.919  0.00  0.00    +0.318 C 
ATOM     30  C   UNL     1     -40.493  25.875   3.027  0.00  0.00    +0.121 C 
ENDBRANCH  27  29
ENDBRANCH  26  27
ENDBRANCH  11  26
TORSDOF 5
ENDMDL
MODEL 8
REMARK VINA RESULT:      -5.7      2.002      6.657
REMARK  Name = 5459179
REMARK  5 active torsions:
REMARK  status: ('A' for Active; 'I' for Inactive)
REMARK    1  A    between atoms: C_7  and  C_25
REMARK    2  A    between atoms: C_8  and  O_22
REMARK    3  A    between atoms: C_11  and  C_26
REMARK    4  A    between atoms: C_26  and  O_27
REMARK    5  A    between atoms: O_27  and  C_29
REMARK                            x       y       z     vdW  Elec       q    Type
REMARK                         _______ _______ _______ _____ _____    ______ ____
ROOT
ATOM      1  O   UNL     1     -36.457  24.998   4.610  0.00  0.00    -0.448 OA
ATOM      2  O   UNL     1     -35.970  22.159   1.595  0.00  0.00    -0.291 OA
ATOM      3  O   UNL     1     -36.425  22.755   4.488  0.00  0.00    -0.250 OA
ATOM      4  C   UNL     1     -36.086  26.231   2.503  0.00  0.00    +0.051 C 
ATOM      5  C   UNL     1     -37.023  25.209   1.730  0.00  0.00    +0.048 C 
ATOM      6  C   UNL     1     -37.338  23.935   2.595  0.00  0.00    +0.147 C 
ATOM      7  C   UNL     1     -34.571  25.737   2.473  0.00  0.00    +0.072 C 
ATOM      8  C   UNL     1     -38.320  25.795   1.078  0.00  0.00    +0.112 C 
ATOM      9  C   UNL     1     -38.858  23.690   2.759  0.00  0.00    +0.023 C 
ATOM     10  C   UNL     1     -36.148  27.655   1.891  0.00  0.00    +0.004 C 
ATOM     11  C   UNL     1     -33.487  26.748   2.997  0.00  0.00    +0.048 C 
ATOM     12  C   UNL     1     -39.315  23.417   1.325  0.00  0.00    +0.029 C 
ATOM     13  C   UNL     1     -36.659  26.250   3.937  0.00  0.00    +0.209 C 
ATOM     14  C   UNL     1     -39.238  24.705   0.479  0.00  0.00    +0.034 C 
ATOM     15  C   UNL     1     -37.037  22.743   1.691  0.00  0.00    +0.178 C 
ATOM     16  C   UNL     1     -35.141  28.642   2.483  0.00  0.00    +0.000 C 
ATOM     17  C   UNL     1     -33.705  28.145   2.379  0.00  0.00    +0.004 C 
ATOM     18  C   UNL     1     -36.688  23.834   3.961  0.00  0.00    +0.323 C 
ATOM     19  C   UNL     1     -38.260  22.428   0.897  0.00  0.00    +0.013 C 
ATOM     20  C   UNL     1     -32.057  26.269   2.622  0.00  0.00    +0.004 C 
ATOM     21  C   UNL     1     -38.354  21.411   0.040  0.00  0.00    -0.002 C 
ENDROOT
BRANCH   8  22
ATOM     22  O   UNL     1     -39.078  26.561   2.011  0.00  0.00    -0.384 OA
ATOM     23  H   UNL     1     -40.023  26.479   1.806  0.00  0.00    +0.210 HD
ENDBRANCH   8  22
BRANCH   7  25
ATOM     24  O   UNL     1     -33.774  24.216   0.774  0.00  0.00    -0.288 OA
ATOM     25  C   UNL     1     -34.196  25.329   1.065  0.00  0.00    +0.207 C 
ENDBRANCH   7  25
BRANCH  11  26
ATOM     26  C   UNL     1     -33.484  26.841   4.539  0.00  0.00    +0.209 C 
BRANCH  26  27
ATOM     27  O   UNL     1     -32.925  28.085   4.895  0.00  0.00    -0.448 OA
BRANCH  27  29
ATOM     28  O   UNL     1     -31.919  27.138   6.748  0.00  0.00    -0.250 OA
ATOM     29  C   UNL     1     -32.189  28.109   6.054  0.00  0.00    +0.318 C 
ATOM     30  C   UNL     1     -31.750  29.509   6.362  0.00  0.00    +0.121 C 
ENDBRANCH  27  29
ENDBRANCH  26  27
ENDBRANCH  11  26
TORSDOF 5
ENDMDL
MODEL 9
REMARK VINA RESULT:      -5.7      3.763      5.903
REMARK  Name = 5459179
REMARK  5 active torsions:
REMARK  status: ('A' for Active; 'I' for Inactive)
REMARK    1  A    between atoms: C_7  and  C_25
REMARK    2  A    between atoms: C_8  and  O_22
REMARK    3  A    between atoms: C_11  and  C_26
REMARK    4  A    between atoms: C_26  and  O_27
REMARK    5  A    between atoms: O_27  and  C_29
REMARK                            x       y       z     vdW  Elec       q    Type
REMARK                         _______ _______ _______ _____ _____    ______ ____
ROOT
ATOM      1  O   UNL     1     -35.114  22.965   2.983  0.00  0.00    -0.448 OA
ATOM      2  O   UNL     1     -39.272  23.272   3.065  0.00  0.00    -0.291 OA
ATOM      3  O   UNL     1     -36.695  23.135   4.572  0.00  0.00    -0.250 OA
ATOM      4  C   UNL     1     -35.895  22.892   0.642  0.00  0.00    +0.051 C 
ATOM      5  C   UNL     1     -36.954  24.035   0.951  0.00  0.00    +0.048 C 
ATOM      6  C   UNL     1     -37.110  24.285   2.494  0.00  0.00    +0.147 C 
ATOM      7  C   UNL     1     -36.533  21.453   0.893  0.00  0.00    +0.072 C 
ATOM      8  C   UNL     1     -36.790  25.379   0.166  0.00  0.00    +0.112 C 
ATOM      9  C   UNL     1     -36.864  25.764   2.884  0.00  0.00    +0.023 C 
ATOM     10  C   UNL     1     -35.383  22.952  -0.821  0.00  0.00    +0.004 C 
ATOM     11  C   UNL     1     -35.690  20.214   0.417  0.00  0.00    +0.048 C 
ATOM     12  C   UNL     1     -37.996  26.498   2.165  0.00  0.00    +0.029 C 
ATOM     13  C   UNL     1     -34.734  23.187   1.617  0.00  0.00    +0.209 C 
ATOM     14  C   UNL     1     -37.771  26.476   0.639  0.00  0.00    +0.034 C 
ATOM     15  C   UNL     1     -38.613  24.252   2.763  0.00  0.00    +0.178 C 
ATOM     16  C   UNL     1     -34.493  21.778  -1.228  0.00  0.00    +0.000 C 
ATOM     17  C   UNL     1     -35.171  20.430  -1.020  0.00  0.00    +0.004 C 
ATOM     18  C   UNL     1     -36.312  23.404   3.435  0.00  0.00    +0.323 C 
ATOM     19  C   UNL     1     -39.164  25.623   2.549  0.00  0.00    +0.013 C 
ATOM     20  C   UNL     1     -36.552  18.921   0.432  0.00  0.00    +0.004 C 
ATOM     21  C   UNL     1     -40.439  25.955   2.744  0.00  0.00    -0.002 C 
ENDROOT
BRANCH   8  22
ATOM     22  O   UNL     1     -35.462  25.888   0.263  0.00  0.00    -0.384 OA
ATOM     23  H   UNL     1     -35.489  26.810   0.562  0.00  0.00    +0.210 HD
ENDBRANCH   8  22
BRANCH   7  25
ATOM     24  O   UNL     1     -38.922  21.096   0.843  0.00  0.00    -0.288 OA
ATOM     25  C   UNL     1     -37.894  21.379   0.237  0.00  0.00    +0.207 C 
ENDBRANCH   7  25
BRANCH  11  26
ATOM     26  C   UNL     1     -34.512  19.919   1.372  0.00  0.00    +0.209 C 
BRANCH  26  27
ATOM     27  O   UNL     1     -33.946  18.686   0.989  0.00  0.00    -0.448 OA
BRANCH  27  29
ATOM     28  O   UNL     1     -32.001  17.677   1.722  0.00  0.00    -0.250 OA
ATOM     29  C   UNL     1     -32.584  18.574   1.131  0.00  0.00    +0.318 C 
ATOM     30  C   UNL     1     -31.895  19.719   0.451  0.00  0.00    +0.121 C 
ENDBRANCH  27  29
ENDBRANCH  26  27
ENDBRANCH  11  26
TORSDOF 5
ENDMDL
