MODEL 1
REMARK VINA RESULT:      -6.7      0.000      0.000
REMARK  Name = 5458434
REMARK  3 active torsions:
REMARK  status: ('A' for Active; 'I' for Inactive)
REMARK    1  A    between atoms: C_11  and  O_25
REMARK    2  A    between atoms: C_14  and  O_27
REMARK    3  A    between atoms: C_20  and  C_22
REMARK                            x       y       z     vdW  Elec       q    Type
REMARK                         _______ _______ _______ _____ _____    ______ ____
ROOT
ATOM      1  O   UNL     1     -34.840  26.706   5.556  0.00  0.00    -0.351 OA
ATOM      2  O   UNL     1     -34.924  25.943   0.615  0.00  0.00    -0.449 OA
ATOM      3  O   UNL     1     -34.796  28.221   0.790  0.00  0.00    -0.250 OA
ATOM      4  O   UNL     1     -35.254  20.655   3.670  0.00  0.00    -0.426 OA
ATOM      5  O   UNL     1     -35.412  20.669   5.931  0.00  0.00    -0.245 OA
ATOM      6  C   UNL     1     -34.875  24.979   3.702  0.00  0.00    +0.050 C 
ATOM      7  C   UNL     1     -33.840  25.303   2.578  0.00  0.00    +0.061 C 
ATOM      8  C   UNL     1     -34.224  25.558   4.965  0.00  0.00    +0.148 C 
ATOM      9  C   UNL     1     -33.536  26.802   2.339  0.00  0.00    +0.120 C 
ATOM     10  C   UNL     1     -33.601  26.933   4.873  0.00  0.00    +0.170 C 
ATOM     11  C   UNL     1     -33.682  27.711   3.592  0.00  0.00    +0.150 C 
ATOM     12  C   UNL     1     -34.251  24.822   1.201  0.00  0.00    +0.201 C 
ATOM     13  C   UNL     1     -35.062  23.446   3.720  0.00  0.00    -0.013 C 
ATOM     14  C   UNL     1     -35.080  23.533   1.155  0.00  0.00    +0.175 C 
ATOM     15  C   UNL     1     -36.296  25.569   3.514  0.00  0.00    +0.007 C 
ATOM     16  C   UNL     1     -34.484  27.109   1.188  0.00  0.00    +0.318 C 
ATOM     17  C   UNL     1     -32.099  26.964   1.789  0.00  0.00    +0.014 C 
ATOM     18  C   UNL     1     -35.112  22.732   2.441  0.00  0.00    +0.035 C 
ATOM     19  C   UNL     1     -35.185  22.749   4.862  0.00  0.00    +0.078 C 
ATOM     20  C   UNL     1     -35.188  21.384   2.458  0.00  0.00    +0.124 C 
ATOM     21  C   UNL     1     -35.299  21.283   4.876  0.00  0.00    +0.345 C 
ENDROOT
BRANCH  20  22
ATOM     22  C   UNL     1     -35.272  20.480   1.264  0.00  0.00    +0.057 C 
ATOM     23  C   UNL     1     -34.187  19.411   1.335  0.00  0.00    +0.008 C 
ATOM     24  C   UNL     1     -36.656  19.845   1.163  0.00  0.00    +0.008 C 
ENDBRANCH  20  22
BRANCH  11  25
ATOM     25  O   UNL     1     -34.872  28.497   3.585  0.00  0.00    -0.381 OA
ATOM     26  H   UNL     1     -34.638  29.437   3.561  0.00  0.00    +0.210 HD
ENDBRANCH  11  25
BRANCH  14  27
ATOM     27  O   UNL     1     -36.418  23.818   0.740  0.00  0.00    -0.376 OA
ATOM     28  H   UNL     1     -37.021  23.159   1.117  0.00  0.00    +0.211 HD
ENDBRANCH  14  27
TORSDOF 3
ENDMDL
MODEL 2
REMARK VINA RESULT:      -6.4      3.325      5.639
REMARK  Name = 5458434
REMARK  3 active torsions:
REMARK  status: ('A' for Active; 'I' for Inactive)
REMARK    1  A    between atoms: C_11  and  O_25
REMARK    2  A    between atoms: C_14  and  O_27
REMARK    3  A    between atoms: C_20  and  C_22
REMARK                            x       y       z     vdW  Elec       q    Type
REMARK                         _______ _______ _______ _____ _____    ______ ____
ROOT
ATOM      1  O   UNL     1     -38.901  23.159  -1.352  0.00  0.00    -0.351 OA
ATOM      2  O   UNL     1     -38.773  26.605   2.270  0.00  0.00    -0.449 OA
ATOM      3  O   UNL     1     -40.047  27.598   0.648  0.00  0.00    -0.250 OA
ATOM      4  O   UNL     1     -35.552  21.645   3.828  0.00  0.00    -0.426 OA
ATOM      5  O   UNL     1     -35.269  19.969   2.328  0.00  0.00    -0.245 OA
ATOM      6  C   UNL     1     -38.106  23.710   0.990  0.00  0.00    +0.050 C 
ATOM      7  C   UNL     1     -39.234  24.356   1.856  0.00  0.00    +0.061 C 
ATOM      8  C   UNL     1     -38.874  22.792   0.030  0.00  0.00    +0.148 C 
ATOM      9  C   UNL     1     -40.284  25.200   1.093  0.00  0.00    +0.120 C 
ATOM     10  C   UNL     1     -40.123  23.340  -0.625  0.00  0.00    +0.170 C 
ATOM     11  C   UNL     1     -40.543  24.759  -0.375  0.00  0.00    +0.150 C 
ATOM     12  C   UNL     1     -38.729  25.323   2.909  0.00  0.00    +0.201 C 
ATOM     13  C   UNL     1     -37.153  22.975   1.959  0.00  0.00    -0.013 C 
ATOM     14  C   UNL     1     -37.359  25.003   3.518  0.00  0.00    +0.175 C 
ATOM     15  C   UNL     1     -37.211  24.690   0.191  0.00  0.00    +0.007 C 
ATOM     16  C   UNL     1     -39.712  26.600   1.270  0.00  0.00    +0.318 C 
ATOM     17  C   UNL     1     -41.632  25.170   1.852  0.00  0.00    +0.014 C 
ATOM     18  C   UNL     1     -36.830  23.611   3.240  0.00  0.00    +0.035 C 
ATOM     19  C   UNL     1     -36.610  21.781   1.666  0.00  0.00    +0.078 C 
ATOM     20  C   UNL     1     -36.067  22.931   4.122  0.00  0.00    +0.124 C 
ATOM     21  C   UNL     1     -35.755  21.057   2.618  0.00  0.00    +0.345 C 
ENDROOT
BRANCH  20  22
ATOM     22  C   UNL     1     -35.611  23.415   5.466  0.00  0.00    +0.057 C 
ATOM     23  C   UNL     1     -35.394  22.235   6.406  0.00  0.00    +0.008 C 
ATOM     24  C   UNL     1     -34.339  24.249   5.336  0.00  0.00    +0.008 C 
ENDBRANCH  20  22
BRANCH  11  25
ATOM     25  O   UNL     1     -39.933  25.614  -1.339  0.00  0.00    -0.381 OA
ATOM     26  H   UNL     1     -40.279  25.406  -2.220  0.00  0.00    +0.210 HD
ENDBRANCH  11  25
BRANCH  14  27
ATOM     27  O   UNL     1     -36.393  25.971   3.101  0.00  0.00    -0.376 OA
ATOM     28  H   UNL     1     -35.832  25.590   2.407  0.00  0.00    +0.211 HD
ENDBRANCH  14  27
TORSDOF 3
ENDMDL
MODEL 3
REMARK VINA RESULT:      -6.2      2.272      6.436
REMARK  Name = 5458434
REMARK  3 active torsions:
REMARK  status: ('A' for Active; 'I' for Inactive)
REMARK    1  A    between atoms: C_11  and  O_25
REMARK    2  A    between atoms: C_14  and  O_27
REMARK    3  A    between atoms: C_20  and  C_22
REMARK                            x       y       z     vdW  Elec       q    Type
REMARK                         _______ _______ _______ _____ _____    ______ ____
ROOT
ATOM      1  O   UNL     1     -33.660  22.086  -1.885  0.00  0.00    -0.351 OA
ATOM      2  O   UNL     1     -36.354  19.807   1.658  0.00  0.00    -0.449 OA
ATOM      3  O   UNL     1     -36.329  18.278  -0.044  0.00  0.00    -0.250 OA
ATOM      4  O   UNL     1     -34.559  25.363   3.480  0.00  0.00    -0.426 OA
ATOM      5  O   UNL     1     -33.465  26.723   2.034  0.00  0.00    -0.245 OA
ATOM      6  C   UNL     1     -34.561  22.228   0.478  0.00  0.00    +0.050 C 
ATOM      7  C   UNL     1     -34.331  20.904   1.275  0.00  0.00    +0.061 C 
ATOM      8  C   UNL     1     -33.377  22.269  -0.496  0.00  0.00    +0.148 C 
ATOM      9  C   UNL     1     -34.323  19.597   0.444  0.00  0.00    +0.120 C 
ATOM     10  C   UNL     1     -33.012  20.993  -1.222  0.00  0.00    +0.170 C 
ATOM     11  C   UNL     1     -33.836  19.754  -1.024  0.00  0.00    +0.150 C 
ATOM     12  C   UNL     1     -35.385  20.624   2.328  0.00  0.00    +0.201 C 
ATOM     13  C   UNL     1     -34.589  23.380   1.507  0.00  0.00    -0.013 C 
ATOM     14  C   UNL     1     -36.003  21.852   3.008  0.00  0.00    +0.175 C 
ATOM     15  C   UNL     1     -35.897  22.334  -0.300  0.00  0.00    +0.007 C 
ATOM     16  C   UNL     1     -35.765  19.138   0.615  0.00  0.00    +0.318 C 
ATOM     17  C   UNL     1     -33.433  18.541   1.139  0.00  0.00    +0.014 C 
ATOM     18  C   UNL     1     -35.269  23.158   2.787  0.00  0.00    +0.035 C 
ATOM     19  C   UNL     1     -34.018  24.572   1.268  0.00  0.00    +0.078 C 
ATOM     20  C   UNL     1     -35.219  24.133   3.720  0.00  0.00    +0.124 C 
ATOM     21  C   UNL     1     -33.992  25.642   2.276  0.00  0.00    +0.345 C 
ENDROOT
BRANCH  20  22
ATOM     22  C   UNL     1     -35.867  24.108   5.072  0.00  0.00    +0.057 C 
ATOM     23  C   UNL     1     -35.143  23.125   5.985  0.00  0.00    +0.008 C 
ATOM     24  C   UNL     1     -35.892  25.506   5.685  0.00  0.00    +0.008 C 
ENDBRANCH  20  22
BRANCH  11  25
ATOM     25  O   UNL     1     -34.896  19.729  -1.978  0.00  0.00    -0.381 OA
ATOM     26  H   UNL     1     -35.500  20.468  -1.810  0.00  0.00    +0.210 HD
ENDBRANCH  11  25
BRANCH  14  27
ATOM     27  O   UNL     1     -37.369  22.001   2.615  0.00  0.00    -0.376 OA
ATOM     28  H   UNL     1     -37.858  22.463   3.313  0.00  0.00    +0.211 HD
ENDBRANCH  14  27
TORSDOF 3
ENDMDL
MODEL 4
REMARK VINA RESULT:      -6.0      3.193      4.397
REMARK  Name = 5458434
REMARK  3 active torsions:
REMARK  status: ('A' for Active; 'I' for Inactive)
REMARK    1  A    between atoms: C_11  and  O_25
REMARK    2  A    between atoms: C_14  and  O_27
REMARK    3  A    between atoms: C_20  and  C_22
REMARK                            x       y       z     vdW  Elec       q    Type
REMARK                         _______ _______ _______ _____ _____    ______ ____
ROOT
ATOM      1  O   UNL     1     -36.182  23.207   5.316  0.00  0.00    -0.351 OA
ATOM      2  O   UNL     1     -36.043  27.195   2.303  0.00  0.00    -0.449 OA
ATOM      3  O   UNL     1     -34.592  27.757   3.981  0.00  0.00    -0.250 OA
ATOM      4  O   UNL     1     -39.903  22.955   0.175  0.00  0.00    -0.426 OA
ATOM      5  O   UNL     1     -40.323  21.097   1.404  0.00  0.00    -0.245 OA
ATOM      6  C   UNL     1     -37.001  24.222   3.145  0.00  0.00    +0.050 C 
ATOM      7  C   UNL     1     -35.841  24.871   2.325  0.00  0.00    +0.061 C 
ATOM      8  C   UNL     1     -36.310  23.078   3.898  0.00  0.00    +0.148 C 
ATOM      9  C   UNL     1     -34.665  25.455   3.147  0.00  0.00    +0.120 C 
ATOM     10  C   UNL     1     -34.978  23.366   4.555  0.00  0.00    +0.170 C 
ATOM     11  C   UNL     1     -34.401  24.751   4.508  0.00  0.00    +0.150 C 
ATOM     12  C   UNL     1     -36.268  26.049   1.472  0.00  0.00    +0.201 C 
ATOM     13  C   UNL     1     -38.076  23.769   2.132  0.00  0.00    -0.013 C 
ATOM     14  C   UNL     1     -37.692  25.991   0.905  0.00  0.00    +0.175 C 
ATOM     15  C   UNL     1     -37.737  25.152   4.142  0.00  0.00    +0.007 C 
ATOM     16  C   UNL     1     -35.070  26.920   3.231  0.00  0.00    +0.318 C 
ATOM     17  C   UNL     1     -33.364  25.399   2.312  0.00  0.00    +0.014 C 
ATOM     18  C   UNL     1     -38.373  24.640   0.990  0.00  0.00    +0.035 C 
ATOM     19  C   UNL     1     -38.746  22.612   2.263  0.00  0.00    +0.078 C 
ATOM     20  C   UNL     1     -39.248  24.205   0.059  0.00  0.00    +0.124 C 
ATOM     21  C   UNL     1     -39.722  22.156   1.262  0.00  0.00    +0.345 C 
ENDROOT
BRANCH  20  22
ATOM     22  C   UNL     1     -39.699  24.953  -1.160  0.00  0.00    +0.057 C 
ATOM     23  C   UNL     1     -39.839  23.999  -2.342  0.00  0.00    +0.008 C 
ATOM     24  C   UNL     1     -41.011  25.684  -0.892  0.00  0.00    +0.008 C 
ENDBRANCH  20  22
BRANCH  11  25
ATOM     25  O   UNL     1     -34.861  25.499   5.631  0.00  0.00    -0.381 OA
ATOM     26  H   UNL     1     -35.055  24.894   6.364  0.00  0.00    +0.210 HD
ENDBRANCH  11  25
BRANCH  14  27
ATOM     27  O   UNL     1     -38.515  26.978   1.529  0.00  0.00    -0.376 OA
ATOM     28  H   UNL     1     -37.996  27.461   2.190  0.00  0.00    +0.211 HD
ENDBRANCH  14  27
TORSDOF 3
ENDMDL
MODEL 5
REMARK VINA RESULT:      -6.0      2.348      3.363
REMARK  Name = 5458434
REMARK  3 active torsions:
REMARK  status: ('A' for Active; 'I' for Inactive)
REMARK    1  A    between atoms: C_11  and  O_25
REMARK    2  A    between atoms: C_14  and  O_27
REMARK    3  A    between atoms: C_20  and  C_22
REMARK                            x       y       z     vdW  Elec       q    Type
REMARK                         _______ _______ _______ _____ _____    ______ ____
ROOT
ATOM      1  O   UNL     1     -36.334  22.916   5.114  0.00  0.00    -0.351 OA
ATOM      2  O   UNL     1     -37.203  25.245   0.776  0.00  0.00    -0.449 OA
ATOM      3  O   UNL     1     -38.246  26.588   2.309  0.00  0.00    -0.250 OA
ATOM      4  O   UNL     1     -33.972  20.124  -0.078  0.00  0.00    -0.426 OA
ATOM      5  O   UNL     1     -33.560  18.746   1.675  0.00  0.00    -0.245 OA
ATOM      6  C   UNL     1     -35.911  22.920   2.617  0.00  0.00    +0.050 C 
ATOM      7  C   UNL     1     -35.507  24.334   2.092  0.00  0.00    +0.061 C 
ATOM      8  C   UNL     1     -35.375  22.905   4.054  0.00  0.00    +0.148 C 
ATOM      9  C   UNL     1     -36.098  25.544   2.857  0.00  0.00    +0.120 C 
ATOM     10  C   UNL     1     -35.605  24.132   4.908  0.00  0.00    +0.170 C 
ATOM     11  C   UNL     1     -36.389  25.291   4.363  0.00  0.00    +0.150 C 
ATOM     12  C   UNL     1     -35.925  24.607   0.661  0.00  0.00    +0.201 C 
ATOM     13  C   UNL     1     -35.260  21.882   1.676  0.00  0.00    -0.013 C 
ATOM     14  C   UNL     1     -35.942  23.397  -0.281  0.00  0.00    +0.175 C 
ATOM     15  C   UNL     1     -37.426  22.595   2.608  0.00  0.00    +0.007 C 
ATOM     16  C   UNL     1     -37.313  25.863   1.996  0.00  0.00    +0.318 C 
ATOM     17  C   UNL     1     -35.142  26.754   2.745  0.00  0.00    +0.014 C 
ATOM     18  C   UNL     1     -35.238  22.159   0.236  0.00  0.00    +0.035 C 
ATOM     19  C   UNL     1     -34.720  20.739   2.130  0.00  0.00    +0.078 C 
ATOM     20  C   UNL     1     -34.593  21.295  -0.576  0.00  0.00    +0.124 C 
ATOM     21  C   UNL     1     -34.045  19.785   1.237  0.00  0.00    +0.345 C 
ENDROOT
BRANCH  20  22
ATOM     22  C   UNL     1     -34.479  21.388  -2.068  0.00  0.00    +0.057 C 
ATOM     23  C   UNL     1     -33.087  20.959  -2.519  0.00  0.00    +0.008 C 
ATOM     24  C   UNL     1     -35.556  20.546  -2.747  0.00  0.00    +0.008 C 
ENDBRANCH  20  22
BRANCH  11  25
ATOM     25  O   UNL     1     -37.773  25.108   4.649  0.00  0.00    -0.381 OA
ATOM     26  H   UNL     1     -38.244  25.946   4.521  0.00  0.00    +0.210 HD
ENDBRANCH  11  25
BRANCH  14  27
ATOM     27  O   UNL     1     -37.285  23.065  -0.638  0.00  0.00    -0.376 OA
ATOM     28  H   UNL     1     -37.279  22.476  -1.408  0.00  0.00    +0.211 HD
ENDBRANCH  14  27
TORSDOF 3
ENDMDL
MODEL 6
REMARK VINA RESULT:      -5.9      3.060      6.450
REMARK  Name = 5458434
REMARK  3 active torsions:
REMARK  status: ('A' for Active; 'I' for Inactive)
REMARK    1  A    between atoms: C_11  and  O_25
REMARK    2  A    between atoms: C_14  and  O_27
REMARK    3  A    between atoms: C_20  and  C_22
REMARK                            x       y       z     vdW  Elec       q    Type
REMARK                         _______ _______ _______ _____ _____    ______ ____
ROOT
ATOM      1  O   UNL     1     -39.010  21.712  -1.203  0.00  0.00    -0.351 OA
ATOM      2  O   UNL     1     -34.976  19.682   0.945  0.00  0.00    -0.449 OA
ATOM      3  O   UNL     1     -35.296  18.376  -0.907  0.00  0.00    -0.250 OA
ATOM      4  O   UNL     1     -37.055  24.427   4.195  0.00  0.00    -0.426 OA
ATOM      5  O   UNL     1     -38.978  25.458   3.580  0.00  0.00    -0.245 OA
ATOM      6  C   UNL     1     -37.340  21.876   0.695  0.00  0.00    +0.050 C 
ATOM      7  C   UNL     1     -35.869  21.704   0.199  0.00  0.00    +0.061 C 
ATOM      8  C   UNL     1     -38.050  22.511  -0.508  0.00  0.00    +0.148 C 
ATOM      9  C   UNL     1     -35.665  20.794  -1.037  0.00  0.00    +0.120 C 
ATOM     10  C   UNL     1     -37.768  21.940  -1.879  0.00  0.00    +0.170 C 
ATOM     11  C   UNL     1     -36.864  20.750  -2.026  0.00  0.00    +0.150 C 
ATOM     12  C   UNL     1     -34.938  21.087   1.224  0.00  0.00    +0.201 C 
ATOM     13  C   UNL     1     -37.293  22.765   1.958  0.00  0.00    -0.013 C 
ATOM     14  C   UNL     1     -35.238  21.415   2.692  0.00  0.00    +0.175 C 
ATOM     15  C   UNL     1     -38.073  20.581   1.126  0.00  0.00    +0.007 C 
ATOM     16  C   UNL     1     -35.315  19.472  -0.368  0.00  0.00    +0.318 C 
ATOM     17  C   UNL     1     -34.409  21.245  -1.819  0.00  0.00    +0.014 C 
ATOM     18  C   UNL     1     -36.207  22.556   2.920  0.00  0.00    +0.035 C 
ATOM     19  C   UNL     1     -38.212  23.714   2.204  0.00  0.00    +0.078 C 
ATOM     20  C   UNL     1     -36.117  23.389   3.979  0.00  0.00    +0.124 C 
ATOM     21  C   UNL     1     -38.126  24.600   3.375  0.00  0.00    +0.345 C 
ENDROOT
BRANCH  20  22
ATOM     22  C   UNL     1     -35.100  23.326   5.080  0.00  0.00    +0.057 C 
ATOM     23  C   UNL     1     -34.825  24.724   5.625  0.00  0.00    +0.008 C 
ATOM     24  C   UNL     1     -35.563  22.388   6.191  0.00  0.00    +0.008 C 
ENDBRANCH  20  22
BRANCH  11  25
ATOM     25  O   UNL     1     -37.632  19.553  -1.932  0.00  0.00    -0.381 OA
ATOM     26  H   UNL     1     -38.043  19.501  -1.056  0.00  0.00    +0.210 HD
ENDBRANCH  11  25
BRANCH  14  27
ATOM     27  O   UNL     1     -35.705  20.250   3.375  0.00  0.00    -0.376 OA
ATOM     28  H   UNL     1     -35.012  19.571   3.368  0.00  0.00    +0.211 HD
ENDBRANCH  14  27
TORSDOF 3
ENDMDL
MODEL 7
REMARK VINA RESULT:      -5.9      2.064      3.000
REMARK  Name = 5458434
REMARK  3 active torsions:
REMARK  status: ('A' for Active; 'I' for Inactive)
REMARK    1  A    between atoms: C_11  and  O_25
REMARK    2  A    between atoms: C_14  and  O_27
REMARK    3  A    between atoms: C_20  and  C_22
REMARK                            x       y       z     vdW  Elec       q    Type
REMARK                         _______ _______ _______ _____ _____    ______ ____
ROOT
ATOM      1  O   UNL     1     -36.757  23.966   5.024  0.00  0.00    -0.351 OA
ATOM      2  O   UNL     1     -34.304  26.954   1.853  0.00  0.00    -0.449 OA
ATOM      3  O   UNL     1     -35.187  28.418   3.375  0.00  0.00    -0.250 OA
ATOM      4  O   UNL     1     -33.833  21.092   0.173  0.00  0.00    -0.426 OA
ATOM      5  O   UNL     1     -34.980  19.500   1.308  0.00  0.00    -0.245 OA
ATOM      6  C   UNL     1     -35.266  24.078   2.980  0.00  0.00    +0.050 C 
ATOM      7  C   UNL     1     -34.063  25.053   3.183  0.00  0.00    +0.061 C 
ATOM      8  C   UNL     1     -35.543  23.552   4.393  0.00  0.00    +0.148 C 
ATOM      9  C   UNL     1     -34.309  26.258   4.124  0.00  0.00    +0.120 C 
ATOM     10  C   UNL     1     -35.550  24.548   5.531  0.00  0.00    +0.170 C 
ATOM     11  C   UNL     1     -35.350  26.010   5.252  0.00  0.00    +0.150 C 
ATOM     12  C   UNL     1     -33.582  25.717   1.908  0.00  0.00    +0.201 C 
ATOM     13  C   UNL     1     -34.814  23.001   1.969  0.00  0.00    -0.013 C 
ATOM     14  C   UNL     1     -33.711  24.889   0.624  0.00  0.00    +0.175 C 
ATOM     15  C   UNL     1     -36.553  24.697   2.378  0.00  0.00    +0.007 C 
ATOM     16  C   UNL     1     -34.673  27.340   3.117  0.00  0.00    +0.318 C 
ATOM     17  C   UNL     1     -32.977  26.689   4.781  0.00  0.00    +0.014 C 
ATOM     18  C   UNL     1     -33.994  23.415   0.825  0.00  0.00    +0.035 C 
ATOM     19  C   UNL     1     -35.147  21.706   2.099  0.00  0.00    +0.078 C 
ATOM     20  C   UNL     1     -33.527  22.463  -0.010  0.00  0.00    +0.124 C 
ATOM     21  C   UNL     1     -34.661  20.676   1.169  0.00  0.00    +0.345 C 
ENDROOT
BRANCH  20  22
ATOM     22  C   UNL     1     -32.699  22.683  -1.241  0.00  0.00    +0.057 C 
ATOM     23  C   UNL     1     -31.386  21.914  -1.138  0.00  0.00    +0.008 C 
ATOM     24  C   UNL     1     -33.472  22.279  -2.493  0.00  0.00    +0.008 C 
ENDBRANCH  20  22
BRANCH  11  25
ATOM     25  O   UNL     1     -36.612  26.625   5.002  0.00  0.00    -0.381 OA
ATOM     26  H   UNL     1     -37.156  26.583   5.804  0.00  0.00    +0.210 HD
ENDBRANCH  11  25
BRANCH  14  27
ATOM     27  O   UNL     1     -34.709  25.453  -0.230  0.00  0.00    -0.376 OA
ATOM     28  H   UNL     1     -34.449  26.353  -0.482  0.00  0.00    +0.211 HD
ENDBRANCH  14  27
TORSDOF 3
ENDMDL
MODEL 8
REMARK VINA RESULT:      -5.9      2.079      6.334
REMARK  Name = 5458434
REMARK  3 active torsions:
REMARK  status: ('A' for Active; 'I' for Inactive)
REMARK    1  A    between atoms: C_11  and  O_25
REMARK    2  A    between atoms: C_14  and  O_27
REMARK    3  A    between atoms: C_20  and  C_22
REMARK                            x       y       z     vdW  Elec       q    Type
REMARK                         _______ _______ _______ _____ _____    ______ ____
ROOT
ATOM      1  O   UNL     1     -34.933  23.267   0.248  0.00  0.00    -0.351 OA
ATOM      2  O   UNL     1     -36.414  25.671   4.375  0.00  0.00    -0.449 OA
ATOM      3  O   UNL     1     -38.176  24.283   3.917  0.00  0.00    -0.250 OA
ATOM      4  O   UNL     1     -30.881  27.563   2.585  0.00  0.00    -0.426 OA
ATOM      5  O   UNL     1     -29.999  26.790   0.645  0.00  0.00    -0.245 OA
ATOM      6  C   UNL     1     -34.299  24.945   2.037  0.00  0.00    +0.050 C 
ATOM      7  C   UNL     1     -34.654  24.436   3.471  0.00  0.00    +0.061 C 
ATOM      8  C   UNL     1     -34.003  23.654   1.263  0.00  0.00    +0.148 C 
ATOM      9  C   UNL     1     -35.880  23.497   3.581  0.00  0.00    +0.120 C 
ATOM     10  C   UNL     1     -34.946  22.485   1.449  0.00  0.00    +0.170 C 
ATOM     11  C   UNL     1     -36.159  22.629   2.321  0.00  0.00    +0.150 C 
ATOM     12  C   UNL     1     -34.989  25.540   4.454  0.00  0.00    +0.201 C 
ATOM     13  C   UNL     1     -33.094  25.901   2.178  0.00  0.00    -0.013 C 
ATOM     14  C   UNL     1     -34.253  26.870   4.254  0.00  0.00    +0.175 C 
ATOM     15  C   UNL     1     -35.397  25.764   1.311  0.00  0.00    +0.007 C 
ATOM     16  C   UNL     1     -36.972  24.491   3.951  0.00  0.00    +0.318 C 
ATOM     17  C   UNL     1     -35.708  22.551   4.792  0.00  0.00    +0.014 C 
ATOM     18  C   UNL     1     -33.062  26.822   3.319  0.00  0.00    +0.035 C 
ATOM     19  C   UNL     1     -32.084  25.921   1.293  0.00  0.00    +0.078 C 
ATOM     20  C   UNL     1     -31.969  27.596   3.491  0.00  0.00    +0.124 C 
ATOM     21  C   UNL     1     -30.909  26.789   1.467  0.00  0.00    +0.345 C 
ENDROOT
BRANCH  20  22
ATOM     22  C   UNL     1     -31.755  28.611   4.574  0.00  0.00    +0.057 C 
ATOM     23  C   UNL     1     -30.301  28.596   5.031  0.00  0.00    +0.008 C 
ATOM     24  C   UNL     1     -32.164  30.003   4.100  0.00  0.00    +0.008 C 
ENDBRANCH  20  22
BRANCH  11  25
ATOM     25  O   UNL     1     -37.255  23.099   1.541  0.00  0.00    -0.381 OA
ATOM     26  H   UNL     1     -37.349  24.057   1.660  0.00  0.00    +0.210 HD
ENDBRANCH  11  25
BRANCH  14  27
ATOM     27  O   UNL     1     -35.164  27.879   3.811  0.00  0.00    -0.376 OA
ATOM     28  H   UNL     1     -34.968  28.713   4.265  0.00  0.00    +0.211 HD
ENDBRANCH  14  27
TORSDOF 3
ENDMDL
MODEL 9
REMARK VINA RESULT:      -5.8      4.484      8.266
REMARK  Name = 5458434
REMARK  3 active torsions:
REMARK  status: ('A' for Active; 'I' for Inactive)
REMARK    1  A    between atoms: C_11  and  O_25
REMARK    2  A    between atoms: C_14  and  O_27
REMARK    3  A    between atoms: C_20  and  C_22
REMARK                            x       y       z     vdW  Elec       q    Type
REMARK                         _______ _______ _______ _____ _____    ______ ____
ROOT
ATOM      1  O   UNL     1     -29.774  19.905  -2.509  0.00  0.00    -0.351 OA
ATOM      2  O   UNL     1     -31.980  16.699   0.631  0.00  0.00    -0.449 OA
ATOM      3  O   UNL     1     -30.411  15.405  -0.420  0.00  0.00    -0.250 OA
ATOM      4  O   UNL     1     -34.471  22.268   1.052  0.00  0.00    -0.426 OA
ATOM      5  O   UNL     1     -33.809  23.908  -0.366  0.00  0.00    -0.245 OA
ATOM      6  C   UNL     1     -31.500  19.618  -0.678  0.00  0.00    +0.050 C 
ATOM      7  C   UNL     1     -30.949  18.788   0.525  0.00  0.00    +0.061 C 
ATOM      8  C   UNL     1     -30.254  20.322  -1.228  0.00  0.00    +0.148 C 
ATOM      9  C   UNL     1     -29.881  17.719   0.187  0.00  0.00    +0.120 C 
ATOM     10  C   UNL     1     -28.989  19.506  -1.378  0.00  0.00    +0.170 C 
ATOM     11  C   UNL     1     -28.995  18.042  -1.049  0.00  0.00    +0.150 C 
ATOM     12  C   UNL     1     -32.004  17.986   1.260  0.00  0.00    +0.201 C 
ATOM     13  C   UNL     1     -32.582  20.569  -0.117  0.00  0.00    -0.013 C 
ATOM     14  C   UNL     1     -33.408  18.603   1.311  0.00  0.00    +0.175 C 
ATOM     15  C   UNL     1     -32.199  18.812  -1.801  0.00  0.00    +0.007 C 
ATOM     16  C   UNL     1     -30.749  16.473   0.069  0.00  0.00    +0.318 C 
ATOM     17  C   UNL     1     -28.953  17.502   1.405  0.00  0.00    +0.014 C 
ATOM     18  C   UNL     1     -33.494  20.062   0.913  0.00  0.00    +0.035 C 
ATOM     19  C   UNL     1     -32.716  21.836  -0.542  0.00  0.00    +0.078 C 
ATOM     20  C   UNL     1     -34.381  20.916   1.464  0.00  0.00    +0.124 C 
ATOM     21  C   UNL     1     -33.705  22.756   0.040  0.00  0.00    +0.345 C 
ENDROOT
BRANCH  20  22
ATOM     22  C   UNL     1     -35.407  20.588   2.507  0.00  0.00    +0.057 C 
ATOM     23  C   UNL     1     -35.511  21.722   3.521  0.00  0.00    +0.008 C 
ATOM     24  C   UNL     1     -36.762  20.306   1.863  0.00  0.00    +0.008 C 
ENDBRANCH  20  22
BRANCH  11  25
ATOM     25  O   UNL     1     -29.348  17.293  -2.210  0.00  0.00    -0.381 OA
ATOM     26  H   UNL     1     -30.079  17.734  -2.669  0.00  0.00    +0.210 HD
ENDBRANCH  11  25
BRANCH  14  27
ATOM     27  O   UNL     1     -34.314  17.838   0.513  0.00  0.00    -0.376 OA
ATOM     28  H   UNL     1     -34.041  16.907   0.516  0.00  0.00    +0.211 HD
ENDBRANCH  14  27
TORSDOF 3
ENDMDL
