MODEL 1
REMARK VINA RESULT:      -6.0      0.000      0.000
REMARK  Name = 198547
REMARK  5 active torsions:
REMARK  status: ('A' for Active; 'I' for Inactive)
REMARK    1  A    between atoms: C_4  and  O_18
REMARK    2  A    between atoms: C_5  and  O_24
REMARK    3  A    between atoms: C_14  and  O_20
REMARK    4  A    between atoms: C_16  and  O_22
REMARK    5  A    between atoms: O_24  and  C_26
REMARK                            x       y       z     vdW  Elec       q    Type
REMARK                         _______ _______ _______ _____ _____    ______ ____
ROOT
ATOM      1  O   UNL     1     -33.730  26.970   1.519  0.00  0.00    -0.473 OA
ATOM      2  O   UNL     1     -34.353  25.187   5.907  0.00  0.00    -0.287 OA
ATOM      3  O   UNL     1     -34.542  24.567   0.607  0.00  0.00    -0.283 OA
ATOM      4  C   UNL     1     -33.570  28.593   3.371  0.00  0.00    +0.195 C 
ATOM      5  C   UNL     1     -33.635  27.460   4.398  0.00  0.00    +0.227 C 
ATOM      6  C   UNL     1     -33.035  28.123   2.014  0.00  0.00    +0.197 C 
ATOM      7  C   UNL     1     -34.014  26.147   3.764  0.00  0.00    +0.096 C 
ATOM      8  C   UNL     1     -34.060  25.987   2.431  0.00  0.00    +0.180 C 
ATOM      9  C   UNL     1     -34.385  25.040   4.690  0.00  0.00    +0.201 C 
ATOM     10  C   UNL     1     -31.533  27.846   2.004  0.00  0.00    +0.050 C 
ATOM     11  C   UNL     1     -34.797  23.753   4.103  0.00  0.00    +0.076 C 
ATOM     12  C   UNL     1     -34.491  24.701   1.824  0.00  0.00    +0.229 C 
ATOM     13  C   UNL     1     -34.849  23.590   2.721  0.00  0.00    +0.051 C 
ATOM     14  C   UNL     1     -35.140  22.687   4.945  0.00  0.00    +0.140 C 
ATOM     15  C   UNL     1     -35.244  22.362   2.176  0.00  0.00    +0.040 C 
ATOM     16  C   UNL     1     -35.585  21.303   3.018  0.00  0.00    +0.142 C 
ATOM     17  C   UNL     1     -35.533  21.465   4.400  0.00  0.00    +0.074 C 
ENDROOT
BRANCH   4  18
ATOM     18  O   UNL     1     -34.884  29.127   3.185  0.00  0.00    -0.378 OA
ATOM     19  H   UNL     1     -35.505  28.672   3.774  0.00  0.00    +0.211 HD
ENDBRANCH   4  18
BRANCH  14  20
ATOM     20  O   UNL     1     -35.105  22.778   6.305  0.00  0.00    -0.505 OA
ATOM     21  H   UNL     1     -35.789  23.227   6.763  0.00  0.00    +0.292 HD
ENDBRANCH  14  20
BRANCH  16  22
ATOM     22  O   UNL     1     -35.969  20.109   2.487  0.00  0.00    -0.471 OA
ATOM     23  C   UNL     1     -36.715  20.150   1.271  0.00  0.00    +0.252 C 
ENDBRANCH  16  22
BRANCH   5  24
ATOM     24  O   UNL     1     -32.365  27.301   5.025  0.00  0.00    -0.445 OA
BRANCH  24  26
ATOM     25  O   UNL     1     -32.787  27.644   7.270  0.00  0.00    -0.250 OA
ATOM     26  C   UNL     1     -32.219  27.932   6.225  0.00  0.00    +0.318 C 
ATOM     27  C   UNL     1     -31.240  29.058   6.084  0.00  0.00    +0.121 C 
ENDBRANCH  24  26
ENDBRANCH   5  24
TORSDOF 5
ENDMDL
MODEL 2
REMARK VINA RESULT:      -5.8      4.673      6.431
REMARK  Name = 198547
REMARK  5 active torsions:
REMARK  status: ('A' for Active; 'I' for Inactive)
REMARK    1  A    between atoms: C_4  and  O_18
REMARK    2  A    between atoms: C_5  and  O_24
REMARK    3  A    between atoms: C_14  and  O_20
REMARK    4  A    between atoms: C_16  and  O_22
REMARK    5  A    between atoms: O_24  and  C_26
REMARK                            x       y       z     vdW  Elec       q    Type
REMARK                         _______ _______ _______ _____ _____    ______ ____
ROOT
ATOM      1  O   UNL     1     -36.907  21.977   0.855  0.00  0.00    -0.473 OA
ATOM      2  O   UNL     1     -38.199  25.388   3.940  0.00  0.00    -0.287 OA
ATOM      3  O   UNL     1     -39.293  22.381  -0.336  0.00  0.00    -0.283 OA
ATOM      4  C   UNL     1     -35.142  22.762   2.389  0.00  0.00    +0.195 C 
ATOM      5  C   UNL     1     -36.161  23.595   3.169  0.00  0.00    +0.227 C 
ATOM      6  C   UNL     1     -35.788  21.580   1.659  0.00  0.00    +0.197 C 
ATOM      7  C   UNL     1     -37.483  23.682   2.453  0.00  0.00    +0.096 C 
ATOM      8  C   UNL     1     -37.763  22.926   1.378  0.00  0.00    +0.180 C 
ATOM      9  C   UNL     1     -38.456  24.688   2.965  0.00  0.00    +0.201 C 
ATOM     10  C   UNL     1     -36.213  20.441   2.582  0.00  0.00    +0.050 C 
ATOM     11  C   UNL     1     -39.745  24.827   2.265  0.00  0.00    +0.076 C 
ATOM     12  C   UNL     1     -39.051  23.066   0.651  0.00  0.00    +0.229 C 
ATOM     13  C   UNL     1     -40.031  24.045   1.148  0.00  0.00    +0.051 C 
ATOM     14  C   UNL     1     -40.687  25.755   2.727  0.00  0.00    +0.140 C 
ATOM     15  C   UNL     1     -41.259  24.188   0.491  0.00  0.00    +0.040 C 
ATOM     16  C   UNL     1     -42.195  25.113   0.955  0.00  0.00    +0.142 C 
ATOM     17  C   UNL     1     -41.910  25.895   2.071  0.00  0.00    +0.074 C 
ENDROOT
BRANCH   4  18
ATOM     18  O   UNL     1     -34.499  23.600   1.423  0.00  0.00    -0.378 OA
ATOM     19  H   UNL     1     -34.832  24.507   1.508  0.00  0.00    +0.211 HD
ENDBRANCH   4  18
BRANCH  14  20
ATOM     20  O   UNL     1     -40.472  26.546   3.817  0.00  0.00    -0.505 OA
ATOM     21  H   UNL     1     -40.836  27.409   3.848  0.00  0.00    +0.292 HD
ENDBRANCH  14  20
BRANCH  16  22
ATOM     22  O   UNL     1     -43.389  25.251   0.314  0.00  0.00    -0.471 OA
ATOM     23  C   UNL     1     -44.543  24.731   0.973  0.00  0.00    +0.252 C 
ENDBRANCH  16  22
BRANCH   5  24
ATOM     24  O   UNL     1     -36.386  23.009   4.449  0.00  0.00    -0.445 OA
BRANCH  24  26
ATOM     25  O   UNL     1     -34.915  24.403   5.558  0.00  0.00    -0.250 OA
ATOM     26  C   UNL     1     -35.468  23.322   5.408  0.00  0.00    +0.318 C 
ATOM     27  C   UNL     1     -35.224  22.126   6.278  0.00  0.00    +0.121 C 
ENDBRANCH  24  26
ENDBRANCH   5  24
TORSDOF 5
ENDMDL
MODEL 3
REMARK VINA RESULT:      -5.8      1.697      6.953
REMARK  Name = 198547
REMARK  5 active torsions:
REMARK  status: ('A' for Active; 'I' for Inactive)
REMARK    1  A    between atoms: C_4  and  O_18
REMARK    2  A    between atoms: C_5  and  O_24
REMARK    3  A    between atoms: C_14  and  O_20
REMARK    4  A    between atoms: C_16  and  O_22
REMARK    5  A    between atoms: O_24  and  C_26
REMARK                            x       y       z     vdW  Elec       q    Type
REMARK                         _______ _______ _______ _____ _____    ______ ____
ROOT
ATOM      1  O   UNL     1     -35.301  24.585   5.756  0.00  0.00    -0.473 OA
ATOM      2  O   UNL     1     -34.052  25.431   1.223  0.00  0.00    -0.287 OA
ATOM      3  O   UNL     1     -33.717  26.668   6.408  0.00  0.00    -0.283 OA
ATOM      4  C   UNL     1     -36.558  23.330   4.044  0.00  0.00    +0.195 C 
ATOM      5  C   UNL     1     -35.617  23.839   2.949  0.00  0.00    +0.227 C 
ATOM      6  C   UNL     1     -35.898  23.323   5.427  0.00  0.00    +0.197 C 
ATOM      7  C   UNL     1     -34.720  24.941   3.447  0.00  0.00    +0.096 C 
ATOM      8  C   UNL     1     -34.631  25.254   4.752  0.00  0.00    +0.180 C 
ATOM      9  C   UNL     1     -33.965  25.708   2.416  0.00  0.00    +0.201 C 
ATOM     10  C   UNL     1     -34.863  22.216   5.612  0.00  0.00    +0.050 C 
ATOM     11  C   UNL     1     -33.107  26.817   2.864  0.00  0.00    +0.076 C 
ATOM     12  C   UNL     1     -33.783  26.382   5.217  0.00  0.00    +0.229 C 
ATOM     13  C   UNL     1     -33.019  27.143   4.215  0.00  0.00    +0.051 C 
ATOM     14  C   UNL     1     -32.375  27.550   1.921  0.00  0.00    +0.140 C 
ATOM     15  C   UNL     1     -32.200  28.201   4.628  0.00  0.00    +0.040 C 
ATOM     16  C   UNL     1     -31.473  28.928   3.686  0.00  0.00    +0.142 C 
ATOM     17  C   UNL     1     -31.559  28.604   2.335  0.00  0.00    +0.074 C 
ENDROOT
BRANCH   4  18
ATOM     18  O   UNL     1     -37.714  24.172   4.092  0.00  0.00    -0.378 OA
ATOM     19  H   UNL     1     -38.513  23.623   4.112  0.00  0.00    +0.211 HD
ENDBRANCH   4  18
BRANCH  14  20
ATOM     20  O   UNL     1     -32.410  27.280   0.585  0.00  0.00    -0.505 OA
ATOM     21  H   UNL     1     -32.909  27.827   0.010  0.00  0.00    +0.292 HD
ENDBRANCH  14  20
BRANCH  16  22
ATOM     22  O   UNL     1     -30.677  29.958   4.089  0.00  0.00    -0.471 OA
ATOM     23  C   UNL     1     -31.191  30.813   5.109  0.00  0.00    +0.252 C 
ENDBRANCH  16  22
BRANCH   5  24
ATOM     24  O   UNL     1     -34.795  22.773   2.482  0.00  0.00    -0.445 OA
BRANCH  24  26
ATOM     25  O   UNL     1     -36.140  22.050   0.749  0.00  0.00    -0.250 OA
ATOM     26  C   UNL     1     -35.427  21.835   1.719  0.00  0.00    +0.318 C 
ATOM     27  C   UNL     1     -35.116  20.468   2.246  0.00  0.00    +0.121 C 
ENDBRANCH  24  26
ENDBRANCH   5  24
TORSDOF 5
ENDMDL
MODEL 4
REMARK VINA RESULT:      -5.8      2.779      4.644
REMARK  Name = 198547
REMARK  5 active torsions:
REMARK  status: ('A' for Active; 'I' for Inactive)
REMARK    1  A    between atoms: C_4  and  O_18
REMARK    2  A    between atoms: C_5  and  O_24
REMARK    3  A    between atoms: C_14  and  O_20
REMARK    4  A    between atoms: C_16  and  O_22
REMARK    5  A    between atoms: O_24  and  C_26
REMARK                            x       y       z     vdW  Elec       q    Type
REMARK                         _______ _______ _______ _____ _____    ______ ____
ROOT
ATOM      1  O   UNL     1     -32.055  27.295   5.991  0.00  0.00    -0.473 OA
ATOM      2  O   UNL     1     -34.085  28.706   1.903  0.00  0.00    -0.287 OA
ATOM      3  O   UNL     1     -34.169  25.646   6.279  0.00  0.00    -0.283 OA
ATOM      4  C   UNL     1     -30.668  28.733   4.543  0.00  0.00    +0.195 C 
ATOM      5  C   UNL     1     -31.858  28.981   3.614  0.00  0.00    +0.227 C 
ATOM      6  C   UNL     1     -31.103  28.368   5.967  0.00  0.00    +0.197 C 
ATOM      7  C   UNL     1     -33.012  28.064   3.920  0.00  0.00    +0.096 C 
ATOM      8  C   UNL     1     -33.038  27.294   5.022  0.00  0.00    +0.180 C 
ATOM      9  C   UNL     1     -34.111  28.012   2.915  0.00  0.00    +0.201 C 
ATOM     10  C   UNL     1     -31.655  29.546   6.766  0.00  0.00    +0.050 C 
ATOM     11  C   UNL     1     -35.238  27.097   3.164  0.00  0.00    +0.076 C 
ATOM     12  C   UNL     1     -34.159  26.354   5.278  0.00  0.00    +0.229 C 
ATOM     13  C   UNL     1     -35.261  26.297   4.304  0.00  0.00    +0.051 C 
ATOM     14  C   UNL     1     -36.293  27.032   2.244  0.00  0.00    +0.140 C 
ATOM     15  C   UNL     1     -36.338  25.430   4.528  0.00  0.00    +0.040 C 
ATOM     16  C   UNL     1     -37.387  25.369   3.610  0.00  0.00    +0.142 C 
ATOM     17  C   UNL     1     -37.364  26.169   2.470  0.00  0.00    +0.074 C 
ENDROOT
BRANCH   4  18
ATOM     18  O   UNL     1     -29.882  27.661   4.016  0.00  0.00    -0.378 OA
ATOM     19  H   UNL     1     -30.406  26.844   4.017  0.00  0.00    +0.211 HD
ENDBRANCH   4  18
BRANCH  14  20
ATOM     20  O   UNL     1     -36.335  27.792   1.113  0.00  0.00    -0.505 OA
ATOM     21  H   UNL     1     -35.712  28.481   0.987  0.00  0.00    +0.292 HD
ENDBRANCH  14  20
BRANCH  16  22
ATOM     22  O   UNL     1     -38.433  24.525   3.829  0.00  0.00    -0.471 OA
ATOM     23  C   UNL     1     -39.682  24.872   3.233  0.00  0.00    +0.252 C 
ENDBRANCH  16  22
BRANCH   5  24
ATOM     24  O   UNL     1     -32.309  30.326   3.754  0.00  0.00    -0.445 OA
BRANCH  24  26
ATOM     25  O   UNL     1     -31.578  31.186   1.738  0.00  0.00    -0.250 OA
ATOM     26  C   UNL     1     -31.687  31.241   2.956  0.00  0.00    +0.318 C 
ATOM     27  C   UNL     1     -31.140  32.352   3.799  0.00  0.00    +0.121 C 
ENDBRANCH  24  26
ENDBRANCH   5  24
TORSDOF 5
ENDMDL
MODEL 5
REMARK VINA RESULT:      -5.8      2.479      7.293
REMARK  Name = 198547
REMARK  5 active torsions:
REMARK  status: ('A' for Active; 'I' for Inactive)
REMARK    1  A    between atoms: C_4  and  O_18
REMARK    2  A    between atoms: C_5  and  O_24
REMARK    3  A    between atoms: C_14  and  O_20
REMARK    4  A    between atoms: C_16  and  O_22
REMARK    5  A    between atoms: O_24  and  C_26
REMARK                            x       y       z     vdW  Elec       q    Type
REMARK                         _______ _______ _______ _____ _____    ______ ____
ROOT
ATOM      1  O   UNL     1     -35.649  22.977  -0.754  0.00  0.00    -0.473 OA
ATOM      2  O   UNL     1     -35.524  20.076   3.039  0.00  0.00    -0.287 OA
ATOM      3  O   UNL     1     -35.411  25.010   1.000  0.00  0.00    -0.283 OA
ATOM      4  C   UNL     1     -35.448  20.568  -1.250  0.00  0.00    +0.195 C 
ATOM      5  C   UNL     1     -35.666  20.224   0.225  0.00  0.00    +0.227 C 
ATOM      6  C   UNL     1     -36.060  21.920  -1.633  0.00  0.00    +0.197 C 
ATOM      7  C   UNL     1     -35.598  21.446   1.103  0.00  0.00    +0.096 C 
ATOM      8  C   UNL     1     -35.571  22.690   0.594  0.00  0.00    +0.180 C 
ATOM      9  C   UNL     1     -35.510  21.210   2.572  0.00  0.00    +0.201 C 
ATOM     10  C   UNL     1     -37.584  21.906  -1.721  0.00  0.00    +0.050 C 
ATOM     11  C   UNL     1     -35.404  22.382   3.459  0.00  0.00    +0.076 C 
ATOM     12  C   UNL     1     -35.446  23.880   1.474  0.00  0.00    +0.229 C 
ATOM     13  C   UNL     1     -35.372  23.670   2.929  0.00  0.00    +0.051 C 
ATOM     14  C   UNL     1     -35.332  22.196   4.845  0.00  0.00    +0.140 C 
ATOM     15  C   UNL     1     -35.270  24.774   3.783  0.00  0.00    +0.040 C 
ATOM     16  C   UNL     1     -35.199  24.585   5.163  0.00  0.00    +0.142 C 
ATOM     17  C   UNL     1     -35.230  23.298   5.694  0.00  0.00    +0.074 C 
ENDROOT
BRANCH   4  18
ATOM     18  O   UNL     1     -34.043  20.610  -1.515  0.00  0.00    -0.378 OA
ATOM     19  H   UNL     1     -33.796  19.858  -2.076  0.00  0.00    +0.211 HD
ENDBRANCH   4  18
BRANCH  14  20
ATOM     20  O   UNL     1     -35.364  20.964   5.429  0.00  0.00    -0.505 OA
ATOM     21  H   UNL     1     -34.798  20.284   5.120  0.00  0.00    +0.292 HD
ENDBRANCH  14  20
BRANCH  16  22
ATOM     22  O   UNL     1     -35.098  25.661   5.992  0.00  0.00    -0.471 OA
ATOM     23  C   UNL     1     -33.818  26.283   6.094  0.00  0.00    +0.252 C 
ENDBRANCH  16  22
BRANCH   5  24
ATOM     24  O   UNL     1     -36.947  19.623   0.398  0.00  0.00    -0.445 OA
BRANCH  24  26
ATOM     25  O   UNL     1     -36.292  17.476  -0.145  0.00  0.00    -0.250 OA
ATOM     26  C   UNL     1     -37.100  18.394  -0.172  0.00  0.00    +0.318 C 
ATOM     27  C   UNL     1     -38.433  18.320  -0.852  0.00  0.00    +0.121 C 
ENDBRANCH  24  26
ENDBRANCH   5  24
TORSDOF 5
ENDMDL
MODEL 6
REMARK VINA RESULT:      -5.7      1.981      7.117
REMARK  Name = 198547
REMARK  5 active torsions:
REMARK  status: ('A' for Active; 'I' for Inactive)
REMARK    1  A    between atoms: C_4  and  O_18
REMARK    2  A    between atoms: C_5  and  O_24
REMARK    3  A    between atoms: C_14  and  O_20
REMARK    4  A    between atoms: C_16  and  O_22
REMARK    5  A    between atoms: O_24  and  C_26
REMARK                            x       y       z     vdW  Elec       q    Type
REMARK                         _______ _______ _______ _____ _____    ______ ____
ROOT
ATOM      1  O   UNL     1     -35.905  20.927   3.478  0.00  0.00    -0.473 OA
ATOM      2  O   UNL     1     -36.341  25.173   1.331  0.00  0.00    -0.287 OA
ATOM      3  O   UNL     1     -34.698  22.255   5.491  0.00  0.00    -0.283 OA
ATOM      4  C   UNL     1     -37.321  20.969   1.457  0.00  0.00    +0.195 C 
ATOM      5  C   UNL     1     -36.903  22.412   1.168  0.00  0.00    +0.227 C 
ATOM      6  C   UNL     1     -36.280  20.214   2.291  0.00  0.00    +0.197 C 
ATOM      7  C   UNL     1     -36.161  23.026   2.326  0.00  0.00    +0.096 C 
ATOM      8  C   UNL     1     -35.744  22.295   3.374  0.00  0.00    +0.180 C 
ATOM      9  C   UNL     1     -35.952  24.501   2.281  0.00  0.00    +0.201 C 
ATOM     10  C   UNL     1     -35.022  19.836   1.514  0.00  0.00    +0.050 C 
ATOM     11  C   UNL     1     -35.264  25.141   3.415  0.00  0.00    +0.076 C 
ATOM     12  C   UNL     1     -35.064  22.928   4.533  0.00  0.00    +0.229 C 
ATOM     13  C   UNL     1     -34.836  24.382   4.502  0.00  0.00    +0.051 C 
ATOM     14  C   UNL     1     -35.041  26.523   3.399  0.00  0.00    +0.140 C 
ATOM     15  C   UNL     1     -34.184  25.002   5.575  0.00  0.00    +0.040 C 
ATOM     16  C   UNL     1     -33.963  26.379   5.555  0.00  0.00    +0.142 C 
ATOM     17  C   UNL     1     -34.391  27.139   4.468  0.00  0.00    +0.074 C 
ENDROOT
BRANCH   4  18
ATOM     18  O   UNL     1     -38.560  20.979   2.172  0.00  0.00    -0.378 OA
ATOM     19  H   UNL     1     -39.107  20.231   1.883  0.00  0.00    +0.211 HD
ENDBRANCH   4  18
BRANCH  14  20
ATOM     20  O   UNL     1     -35.428  27.323   2.364  0.00  0.00    -0.505 OA
ATOM     21  H   UNL     1     -35.642  28.221   2.521  0.00  0.00    +0.292 HD
ENDBRANCH  14  20
BRANCH  16  22
ATOM     22  O   UNL     1     -33.330  26.981   6.599  0.00  0.00    -0.471 OA
ATOM     23  C   UNL     1     -32.204  27.801   6.289  0.00  0.00    +0.252 C 
ENDBRANCH  16  22
BRANCH   5  24
ATOM     24  O   UNL     1     -36.051  22.450   0.025  0.00  0.00    -0.445 OA
BRANCH  24  26
ATOM     25  O   UNL     1     -36.447  21.335  -1.959  0.00  0.00    -0.250 OA
ATOM     26  C   UNL     1     -36.669  22.246  -1.174  0.00  0.00    +0.318 C 
ATOM     27  C   UNL     1     -37.686  23.323  -1.403  0.00  0.00    +0.121 C 
ENDBRANCH  24  26
ENDBRANCH   5  24
TORSDOF 5
ENDMDL
MODEL 7
REMARK VINA RESULT:      -5.7      2.790      4.296
REMARK  Name = 198547
REMARK  5 active torsions:
REMARK  status: ('A' for Active; 'I' for Inactive)
REMARK    1  A    between atoms: C_4  and  O_18
REMARK    2  A    between atoms: C_5  and  O_24
REMARK    3  A    between atoms: C_14  and  O_20
REMARK    4  A    between atoms: C_16  and  O_22
REMARK    5  A    between atoms: O_24  and  C_26
REMARK                            x       y       z     vdW  Elec       q    Type
REMARK                         _______ _______ _______ _____ _____    ______ ____
ROOT
ATOM      1  O   UNL     1     -37.399  28.100   0.728  0.00  0.00    -0.473 OA
ATOM      2  O   UNL     1     -33.692  28.317   3.733  0.00  0.00    -0.287 OA
ATOM      3  O   UNL     1     -38.049  25.790   1.957  0.00  0.00    -0.283 OA
ATOM      4  C   UNL     1     -36.137  30.220   0.725  0.00  0.00    +0.195 C 
ATOM      5  C   UNL     1     -35.071  29.611   1.639  0.00  0.00    +0.227 C 
ATOM      6  C   UNL     1     -36.884  29.159  -0.091  0.00  0.00    +0.197 C 
ATOM      7  C   UNL     1     -35.504  28.283   2.201  0.00  0.00    +0.096 C 
ATOM      8  C   UNL     1     -36.599  27.643   1.756  0.00  0.00    +0.180 C 
ATOM      9  C   UNL     1     -34.686  27.729   3.317  0.00  0.00    +0.201 C 
ATOM     10  C   UNL     1     -36.059  28.559  -1.227  0.00  0.00    +0.050 C 
ATOM     11  C   UNL     1     -35.102  26.450   3.916  0.00  0.00    +0.076 C 
ATOM     12  C   UNL     1     -37.042  26.361   2.362  0.00  0.00    +0.229 C 
ATOM     13  C   UNL     1     -36.240  25.790   3.456  0.00  0.00    +0.051 C 
ATOM     14  C   UNL     1     -34.348  25.896   4.958  0.00  0.00    +0.140 C 
ATOM     15  C   UNL     1     -36.626  24.576   4.035  0.00  0.00    +0.040 C 
ATOM     16  C   UNL     1     -35.872  24.027   5.073  0.00  0.00    +0.142 C 
ATOM     17  C   UNL     1     -34.735  24.686   5.534  0.00  0.00    +0.074 C 
ENDROOT
BRANCH   4  18
ATOM     18  O   UNL     1     -37.084  30.932   1.525  0.00  0.00    -0.378 OA
ATOM     19  H   UNL     1     -37.024  31.881   1.331  0.00  0.00    +0.211 HD
ENDBRANCH   4  18
BRANCH  14  20
ATOM     20  O   UNL     1     -33.222  26.487   5.451  0.00  0.00    -0.505 OA
ATOM     21  H   UNL     1     -33.285  27.291   5.929  0.00  0.00    +0.292 HD
ENDBRANCH  14  20
BRANCH  16  22
ATOM     22  O   UNL     1     -36.249  22.846   5.636  0.00  0.00    -0.471 OA
ATOM     23  C   UNL     1     -35.234  22.087   6.292  0.00  0.00    +0.252 C 
ENDBRANCH  16  22
BRANCH   5  24
ATOM     24  O   UNL     1     -33.863  29.412   0.909  0.00  0.00    -0.445 OA
BRANCH  24  26
ATOM     25  O   UNL     1     -32.854  30.959  -0.479  0.00  0.00    -0.250 OA
ATOM     26  C   UNL     1     -33.151  30.542   0.632  0.00  0.00    +0.318 C 
ATOM     27  C   UNL     1     -32.774  31.223   1.912  0.00  0.00    +0.121 C 
ENDBRANCH  24  26
ENDBRANCH   5  24
TORSDOF 5
ENDMDL
MODEL 8
REMARK VINA RESULT:      -5.6      4.056      5.662
REMARK  Name = 198547
REMARK  5 active torsions:
REMARK  status: ('A' for Active; 'I' for Inactive)
REMARK    1  A    between atoms: C_4  and  O_18
REMARK    2  A    between atoms: C_5  and  O_24
REMARK    3  A    between atoms: C_14  and  O_20
REMARK    4  A    between atoms: C_16  and  O_22
REMARK    5  A    between atoms: O_24  and  C_26
REMARK                            x       y       z     vdW  Elec       q    Type
REMARK                         _______ _______ _______ _____ _____    ______ ____
ROOT
ATOM      1  O   UNL     1     -35.674  26.961   3.119  0.00  0.00    -0.473 OA
ATOM      2  O   UNL     1     -38.228  22.930   3.357  0.00  0.00    -0.287 OA
ATOM      3  O   UNL     1     -37.453  27.784   1.268  0.00  0.00    -0.283 OA
ATOM      4  C   UNL     1     -35.077  25.417   4.949  0.00  0.00    +0.195 C 
ATOM      5  C   UNL     1     -36.014  24.349   4.383  0.00  0.00    +0.227 C 
ATOM      6  C   UNL     1     -34.593  26.400   3.877  0.00  0.00    +0.197 C 
ATOM      7  C   UNL     1     -36.902  24.898   3.297  0.00  0.00    +0.096 C 
ATOM      8  C   UNL     1     -36.709  26.118   2.767  0.00  0.00    +0.180 C 
ATOM      9  C   UNL     1     -38.043  24.040   2.867  0.00  0.00    +0.201 C 
ATOM     10  C   UNL     1     -33.561  25.810   2.919  0.00  0.00    +0.050 C 
ATOM     11  C   UNL     1     -38.954  24.562   1.834  0.00  0.00    +0.076 C 
ATOM     12  C   UNL     1     -37.629  26.665   1.737  0.00  0.00    +0.229 C 
ATOM     13  C   UNL     1     -38.755  25.828   1.289  0.00  0.00    +0.051 C 
ATOM     14  C   UNL     1     -40.029  23.776   1.399  0.00  0.00    +0.140 C 
ATOM     15  C   UNL     1     -39.629  26.313   0.309  0.00  0.00    +0.040 C 
ATOM     16  C   UNL     1     -40.698  25.527  -0.122  0.00  0.00    +0.142 C 
ATOM     17  C   UNL     1     -40.898  24.261   0.422  0.00  0.00    +0.074 C 
ENDROOT
BRANCH   4  18
ATOM     18  O   UNL     1     -35.767  26.151   5.964  0.00  0.00    -0.378 OA
ATOM     19  H   UNL     1     -36.723  26.020   5.865  0.00  0.00    +0.211 HD
ENDBRANCH   4  18
BRANCH  14  20
ATOM     20  O   UNL     1     -40.277  22.527   1.887  0.00  0.00    -0.505 OA
ATOM     21  H   UNL     1     -39.619  21.862   1.827  0.00  0.00    +0.292 HD
ENDBRANCH  14  20
BRANCH  16  22
ATOM     22  O   UNL     1     -41.548  26.000  -1.075  0.00  0.00    -0.471 OA
ATOM     23  C   UNL     1     -42.354  27.125  -0.725  0.00  0.00    +0.252 C 
ENDBRANCH  16  22
BRANCH   5  24
ATOM     24  O   UNL     1     -35.252  23.277   3.834  0.00  0.00    -0.445 OA
BRANCH  24  26
ATOM     25  O   UNL     1     -35.385  20.975   3.976  0.00  0.00    -0.250 OA
ATOM     26  C   UNL     1     -35.358  22.085   4.489  0.00  0.00    +0.318 C 
ATOM     27  C   UNL     1     -35.437  22.330   5.965  0.00  0.00    +0.121 C 
ENDBRANCH  24  26
ENDBRANCH   5  24
TORSDOF 5
ENDMDL
MODEL 9
REMARK VINA RESULT:      -5.6     11.494     12.481
REMARK  Name = 198547
REMARK  5 active torsions:
REMARK  status: ('A' for Active; 'I' for Inactive)
REMARK    1  A    between atoms: C_4  and  O_18
REMARK    2  A    between atoms: C_5  and  O_24
REMARK    3  A    between atoms: C_14  and  O_20
REMARK    4  A    between atoms: C_16  and  O_22
REMARK    5  A    between atoms: O_24  and  C_26
REMARK                            x       y       z     vdW  Elec       q    Type
REMARK                         _______ _______ _______ _____ _____    ______ ____
ROOT
ATOM      1  O   UNL     1     -45.675  28.839   8.457  0.00  0.00    -0.473 OA
ATOM      2  O   UNL     1     -44.401  29.819   3.958  0.00  0.00    -0.287 OA
ATOM      3  O   UNL     1     -46.418  26.413   7.543  0.00  0.00    -0.283 OA
ATOM      4  C   UNL     1     -44.414  30.934   8.130  0.00  0.00    +0.195 C 
ATOM      5  C   UNL     1     -44.504  30.777   6.610  0.00  0.00    +0.227 C 
ATOM      6  C   UNL     1     -45.548  30.209   8.862  0.00  0.00    +0.197 C 
ATOM      7  C   UNL     1     -45.012  29.415   6.215  0.00  0.00    +0.096 C 
ATOM      8  C   UNL     1     -45.522  28.556   7.114  0.00  0.00    +0.180 C 
ATOM      9  C   UNL     1     -44.876  29.040   4.779  0.00  0.00    +0.201 C 
ATOM     10  C   UNL     1     -46.905  30.897   8.736  0.00  0.00    +0.050 C 
ATOM     11  C   UNL     1     -45.327  27.701   4.364  0.00  0.00    +0.076 C 
ATOM     12  C   UNL     1     -45.965  27.195   6.714  0.00  0.00    +0.229 C 
ATOM     13  C   UNL     1     -45.852  26.811   5.298  0.00  0.00    +0.051 C 
ATOM     14  C   UNL     1     -45.225  27.322   3.019  0.00  0.00    +0.140 C 
ATOM     15  C   UNL     1     -46.276  25.540   4.891  0.00  0.00    +0.040 C 
ATOM     16  C   UNL     1     -46.173  25.166   3.551  0.00  0.00    +0.142 C 
ATOM     17  C   UNL     1     -45.648  26.056   2.616  0.00  0.00    +0.074 C 
ENDROOT
BRANCH   4  18
ATOM     18  O   UNL     1     -43.165  30.402   8.579  0.00  0.00    -0.378 OA
ATOM     19  H   UNL     1     -42.862  30.897   9.356  0.00  0.00    +0.211 HD
ENDBRANCH   4  18
BRANCH  14  20
ATOM     20  O   UNL     1     -44.727  28.147   2.055  0.00  0.00    -0.505 OA
ATOM     21  H   UNL     1     -43.973  28.674   2.232  0.00  0.00    +0.292 HD
ENDBRANCH  14  20
BRANCH  16  22
ATOM     22  O   UNL     1     -46.584  23.930   3.156  0.00  0.00    -0.471 OA
ATOM     23  C   UNL     1     -46.494  23.630   1.764  0.00  0.00    +0.252 C 
ENDBRANCH  16  22
BRANCH   5  24
ATOM     24  O   UNL     1     -45.392  31.754   6.074  0.00  0.00    -0.445 OA
BRANCH  24  26
ATOM     25  O   UNL     1     -43.598  32.923   5.206  0.00  0.00    -0.250 OA
ATOM     26  C   UNL     1     -44.799  32.764   5.374  0.00  0.00    +0.318 C 
ATOM     27  C   UNL     1     -45.852  33.678   4.824  0.00  0.00    +0.121 C 
ENDBRANCH  24  26
ENDBRANCH   5  24
TORSDOF 5
ENDMDL
