MODEL 1
REMARK VINA RESULT:      -5.8      0.000      0.000
REMARK  Name = 191372
REMARK  5 active torsions:
REMARK  status: ('A' for Active; 'I' for Inactive)
REMARK    1  A    between atoms: C_2  and  O_16
REMARK    2  A    between atoms: C_3  and  O_18
REMARK    3  A    between atoms: C_4  and  N_8
REMARK    4  A    between atoms: C_5  and  C_20
REMARK    5  A    between atoms: C_20  and  O_21
REMARK                            x       y       z     vdW  Elec       q    Type
REMARK                         _______ _______ _______ _____ _____    ______ ____
ROOT
ATOM      1  O   UNL     1     -36.424  24.722   2.785  0.00  0.00    -0.333 OA
ATOM      2  C   UNL     1     -35.682  23.545   4.702  0.00  0.00    +0.191 C 
ATOM      3  C   UNL     1     -35.307  25.004   4.854  0.00  0.00    +0.171 C 
ATOM      4  C   UNL     1     -36.753  23.605   3.626  0.00  0.00    +0.230 C 
ATOM      5  C   UNL     1     -35.390  25.506   3.419  0.00  0.00    +0.175 C 
ENDROOT
BRANCH   4   8
ATOM      6  O   UNL     1     -39.080  22.543   2.369  0.00  0.00    -0.252 OA
ATOM      7  O   UNL     1     -36.720  19.023   0.583  0.00  0.00    -0.270 OA
ATOM      8  N   UNL     1     -36.793  22.415   2.824  0.00  0.00    -0.217 N 
ATOM      9  N   UNL     1     -37.891  20.792   1.485  0.00  0.00    -0.236 N 
ATOM     10  C   UNL     1     -35.614  21.704   2.631  0.00  0.00    +0.071 C 
ATOM     11  C   UNL     1     -37.998  21.966   2.240  0.00  0.00    +0.315 C 
ATOM     12  C   UNL     1     -35.515  20.582   1.907  0.00  0.00    +0.047 C 
ATOM     13  C   UNL     1     -36.743  20.047   1.260  0.00  0.00    +0.250 C 
ATOM     14  C   UNL     1     -34.235  19.833   1.713  0.00  0.00    +0.037 C 
ATOM     15  H   UNL     1     -38.718  20.460   1.069  0.00  0.00    +0.159 HD
ENDBRANCH   4   8
BRANCH   2  16
ATOM     16  O   UNL     1     -36.155  22.983   5.909  0.00  0.00    -0.347 OA
ATOM     17  C   UNL     1     -35.338  21.902   6.346  0.00  0.00    +0.174 C 
ENDBRANCH   2  16
BRANCH   3  18
ATOM     18  O   UNL     1     -36.297  25.691   5.619  0.00  0.00    -0.379 OA
ATOM     19  H   UNL     1     -35.885  26.426   6.098  0.00  0.00    +0.211 HD
ENDBRANCH   3  18
BRANCH   5  20
ATOM     20  C   UNL     1     -34.099  25.310   2.637  0.00  0.00    +0.169 C 
BRANCH  20  21
ATOM     21  O   UNL     1     -33.004  25.563   3.499  0.00  0.00    -0.379 OA
ATOM     22  H   UNL     1     -33.333  25.762   4.390  0.00  0.00    +0.211 HD
ENDBRANCH  20  21
ENDBRANCH   5  20
TORSDOF 5
ENDMDL
MODEL 2
REMARK VINA RESULT:      -5.3      1.721      3.674
REMARK  Name = 191372
REMARK  5 active torsions:
REMARK  status: ('A' for Active; 'I' for Inactive)
REMARK    1  A    between atoms: C_2  and  O_16
REMARK    2  A    between atoms: C_3  and  O_18
REMARK    3  A    between atoms: C_4  and  N_8
REMARK    4  A    between atoms: C_5  and  C_20
REMARK    5  A    between atoms: C_20  and  O_21
REMARK                            x       y       z     vdW  Elec       q    Type
REMARK                         _______ _______ _______ _____ _____    ______ ____
ROOT
ATOM      1  O   UNL     1     -35.458  23.441   4.705  0.00  0.00    -0.333 OA
ATOM      2  C   UNL     1     -35.299  24.751   2.738  0.00  0.00    +0.191 C 
ATOM      3  C   UNL     1     -34.494  25.421   3.831  0.00  0.00    +0.171 C 
ATOM      4  C   UNL     1     -35.443  23.337   3.272  0.00  0.00    +0.230 C 
ATOM      5  C   UNL     1     -35.067  24.779   5.087  0.00  0.00    +0.175 C 
ENDROOT
BRANCH   4   8
ATOM      6  O   UNL     1     -35.775  20.546   2.801  0.00  0.00    -0.252 OA
ATOM      7  O   UNL     1     -40.183  21.094   1.611  0.00  0.00    -0.270 OA
ATOM      8  N   UNL     1     -36.658  22.707   2.839  0.00  0.00    -0.217 N 
ATOM      9  N   UNL     1     -37.972  20.834   2.209  0.00  0.00    -0.236 N 
ATOM     10  C   UNL     1     -37.779  23.501   2.624  0.00  0.00    +0.071 C 
ATOM     11  C   UNL     1     -36.726  21.312   2.632  0.00  0.00    +0.315 C 
ATOM     12  C   UNL     1     -38.970  23.041   2.221  0.00  0.00    +0.047 C 
ATOM     13  C   UNL     1     -39.119  21.581   1.981  0.00  0.00    +0.250 C 
ATOM     14  C   UNL     1     -40.161  23.915   1.996  0.00  0.00    +0.037 C 
ATOM     15  H   UNL     1     -38.043  19.864   2.058  0.00  0.00    +0.159 HD
ENDBRANCH   4   8
BRANCH   2  16
ATOM     16  O   UNL     1     -34.645  24.795   1.486  0.00  0.00    -0.347 OA
ATOM     17  C   UNL     1     -35.184  25.806   0.641  0.00  0.00    +0.174 C 
ENDBRANCH   2  16
BRANCH   3  18
ATOM     18  O   UNL     1     -33.120  25.046   3.732  0.00  0.00    -0.379 OA
ATOM     19  H   UNL     1     -32.585  25.828   3.527  0.00  0.00    +0.211 HD
ENDBRANCH   3  18
BRANCH   5  20
ATOM     20  C   UNL     1     -36.296  25.498   5.624  0.00  0.00    +0.169 C 
BRANCH  20  21
ATOM     21  O   UNL     1     -36.277  26.836   5.162  0.00  0.00    -0.379 OA
ATOM     22  H   UNL     1     -36.207  27.438   5.920  0.00  0.00    +0.211 HD
ENDBRANCH  20  21
ENDBRANCH   5  20
TORSDOF 5
ENDMDL
MODEL 3
REMARK VINA RESULT:      -5.3      2.138      2.577
REMARK  Name = 191372
REMARK  5 active torsions:
REMARK  status: ('A' for Active; 'I' for Inactive)
REMARK    1  A    between atoms: C_2  and  O_16
REMARK    2  A    between atoms: C_3  and  O_18
REMARK    3  A    between atoms: C_4  and  N_8
REMARK    4  A    between atoms: C_5  and  C_20
REMARK    5  A    between atoms: C_20  and  O_21
REMARK                            x       y       z     vdW  Elec       q    Type
REMARK                         _______ _______ _______ _____ _____    ______ ____
ROOT
ATOM      1  O   UNL     1     -37.235  26.183   2.634  0.00  0.00    -0.333 OA
ATOM      2  C   UNL     1     -36.182  24.706   4.159  0.00  0.00    +0.191 C 
ATOM      3  C   UNL     1     -35.336  25.955   4.032  0.00  0.00    +0.171 C 
ATOM      4  C   UNL     1     -37.522  25.177   3.619  0.00  0.00    +0.230 C 
ATOM      5  C   UNL     1     -35.841  26.551   2.725  0.00  0.00    +0.175 C 
ENDROOT
BRANCH   4   8
ATOM      6  O   UNL     1     -40.345  25.154   3.230  0.00  0.00    -0.252 OA
ATOM      7  O   UNL     1     -40.210  21.023   1.214  0.00  0.00    -0.270 OA
ATOM      8  N   UNL     1     -38.266  24.117   2.998  0.00  0.00    -0.217 N 
ATOM      9  N   UNL     1     -40.263  23.093   2.227  0.00  0.00    -0.236 N 
ATOM     10  C   UNL     1     -37.577  23.000   2.541  0.00  0.00    +0.071 C 
ATOM     11  C   UNL     1     -39.668  24.197   2.849  0.00  0.00    +0.315 C 
ATOM     12  C   UNL     1     -38.149  21.946   1.945  0.00  0.00    +0.047 C 
ATOM     13  C   UNL     1     -39.623  21.957   1.753  0.00  0.00    +0.250 C 
ATOM     14  C   UNL     1     -37.386  20.754   1.462  0.00  0.00    +0.037 C 
ATOM     15  H   UNL     1     -41.240  23.126   2.113  0.00  0.00    +0.159 HD
ENDBRANCH   4   8
BRANCH   2  16
ATOM     16  O   UNL     1     -36.265  24.247   5.492  0.00  0.00    -0.347 OA
ATOM     17  C   UNL     1     -35.392  23.148   5.729  0.00  0.00    +0.174 C 
ENDBRANCH   2  16
BRANCH   3  18
ATOM     18  O   UNL     1     -35.646  26.871   5.082  0.00  0.00    -0.379 OA
ATOM     19  H   UNL     1     -36.607  26.919   5.197  0.00  0.00    +0.211 HD
ENDBRANCH   3  18
BRANCH   5  20
ATOM     20  C   UNL     1     -35.126  26.004   1.497  0.00  0.00    +0.169 C 
BRANCH  20  21
ATOM     21  O   UNL     1     -36.085  25.753   0.487  0.00  0.00    -0.379 OA
ATOM     22  H   UNL     1     -35.986  26.408  -0.223  0.00  0.00    +0.211 HD
ENDBRANCH  20  21
ENDBRANCH   5  20
TORSDOF 5
ENDMDL
MODEL 4
REMARK VINA RESULT:      -5.2      1.923      5.459
REMARK  Name = 191372
REMARK  5 active torsions:
REMARK  status: ('A' for Active; 'I' for Inactive)
REMARK    1  A    between atoms: C_2  and  O_16
REMARK    2  A    between atoms: C_3  and  O_18
REMARK    3  A    between atoms: C_4  and  N_8
REMARK    4  A    between atoms: C_5  and  C_20
REMARK    5  A    between atoms: C_20  and  O_21
REMARK                            x       y       z     vdW  Elec       q    Type
REMARK                         _______ _______ _______ _____ _____    ______ ____
ROOT
ATOM      1  O   UNL     1     -34.668  20.109   2.697  0.00  0.00    -0.333 OA
ATOM      2  C   UNL     1     -36.543  21.185   1.730  0.00  0.00    +0.191 C 
ATOM      3  C   UNL     1     -36.166  20.000   0.866  0.00  0.00    +0.171 C 
ATOM      4  C   UNL     1     -35.846  20.856   3.039  0.00  0.00    +0.230 C 
ATOM      5  C   UNL     1     -34.734  19.729   1.305  0.00  0.00    +0.175 C 
ENDROOT
BRANCH   4   8
ATOM      6  O   UNL     1     -35.477  21.004   5.860  0.00  0.00    -0.252 OA
ATOM      7  O   UNL     1     -34.351  25.458   5.655  0.00  0.00    -0.270 OA
ATOM      8  N   UNL     1     -35.458  22.032   3.764  0.00  0.00    -0.217 N 
ATOM      9  N   UNL     1     -34.918  23.225   5.744  0.00  0.00    -0.236 N 
ATOM     10  C   UNL     1     -35.238  23.208   3.056  0.00  0.00    +0.071 C 
ATOM     11  C   UNL     1     -35.299  22.008   5.167  0.00  0.00    +0.315 C 
ATOM     12  C   UNL     1     -34.873  24.371   3.610  0.00  0.00    +0.047 C 
ATOM     13  C   UNL     1     -34.686  24.424   5.084  0.00  0.00    +0.250 C 
ATOM     14  C   UNL     1     -34.643  25.624   2.828  0.00  0.00    +0.037 C 
ATOM     15  H   UNL     1     -34.802  23.232   6.721  0.00  0.00    +0.159 HD
ENDBRANCH   4   8
BRANCH   2  16
ATOM     16  O   UNL     1     -37.942  21.318   1.878  0.00  0.00    -0.347 OA
ATOM     17  C   UNL     1     -38.455  22.407   1.116  0.00  0.00    +0.174 C 
ENDBRANCH   2  16
BRANCH   3  18
ATOM     18  O   UNL     1     -36.956  18.864   1.214  0.00  0.00    -0.379 OA
ATOM     19  H   UNL     1     -37.884  19.130   1.306  0.00  0.00    +0.211 HD
ENDBRANCH   3  18
BRANCH   5  20
ATOM     20  C   UNL     1     -33.704  20.548   0.540  0.00  0.00    +0.169 C 
BRANCH  20  21
ATOM     21  O   UNL     1     -32.432  19.949   0.708  0.00  0.00    -0.379 OA
ATOM     22  H   UNL     1     -31.776  20.634   0.914  0.00  0.00    +0.211 HD
ENDBRANCH  20  21
ENDBRANCH   5  20
TORSDOF 5
ENDMDL
MODEL 5
REMARK VINA RESULT:      -5.2      1.997      5.166
REMARK  Name = 191372
REMARK  5 active torsions:
REMARK  status: ('A' for Active; 'I' for Inactive)
REMARK    1  A    between atoms: C_2  and  O_16
REMARK    2  A    between atoms: C_3  and  O_18
REMARK    3  A    between atoms: C_4  and  N_8
REMARK    4  A    between atoms: C_5  and  C_20
REMARK    5  A    between atoms: C_20  and  O_21
REMARK                            x       y       z     vdW  Elec       q    Type
REMARK                         _______ _______ _______ _____ _____    ______ ____
ROOT
ATOM      1  O   UNL     1     -36.068  21.458   2.745  0.00  0.00    -0.333 OA
ATOM      2  C   UNL     1     -37.777  23.071   2.448  0.00  0.00    +0.191 C 
ATOM      3  C   UNL     1     -38.096  21.864   1.590  0.00  0.00    +0.171 C 
ATOM      4  C   UNL     1     -36.775  22.500   3.436  0.00  0.00    +0.230 C 
ATOM      5  C   UNL     1     -36.744  21.171   1.500  0.00  0.00    +0.175 C 
ENDROOT
BRANCH   4   8
ATOM      6  O   UNL     1     -35.929  22.850   6.135  0.00  0.00    -0.252 OA
ATOM      7  O   UNL     1     -33.139  26.323   4.992  0.00  0.00    -0.270 OA
ATOM      8  N   UNL     1     -35.831  23.481   3.889  0.00  0.00    -0.217 N 
ATOM      9  N   UNL     1     -34.542  24.581   5.551  0.00  0.00    -0.236 N 
ATOM     10  C   UNL     1     -35.269  24.344   2.955  0.00  0.00    +0.071 C 
ATOM     11  C   UNL     1     -35.472  23.579   5.251  0.00  0.00    +0.315 C 
ATOM     12  C   UNL     1     -34.379  25.302   3.244  0.00  0.00    +0.047 C 
ATOM     13  C   UNL     1     -33.952  25.465   4.660  0.00  0.00    +0.250 C 
ATOM     14  C   UNL     1     -33.788  26.219   2.222  0.00  0.00    +0.037 C 
ATOM     15  H   UNL     1     -34.278  24.668   6.495  0.00  0.00    +0.159 HD
ENDBRANCH   4   8
BRANCH   2  16
ATOM     16  O   UNL     1     -38.925  23.598   3.081  0.00  0.00    -0.347 OA
ATOM     17  C   UNL     1     -38.985  25.017   2.975  0.00  0.00    +0.174 C 
ENDBRANCH   2  16
BRANCH   3  18
ATOM     18  O   UNL     1     -38.993  20.993   2.278  0.00  0.00    -0.379 OA
ATOM     19  H   UNL     1     -39.276  20.283   1.682  0.00  0.00    +0.211 HD
ENDBRANCH   3  18
BRANCH   5  20
ATOM     20  C   UNL     1     -35.877  21.687   0.360  0.00  0.00    +0.169 C 
BRANCH  20  21
ATOM     21  O   UNL     1     -34.526  21.693   0.784  0.00  0.00    -0.379 OA
ATOM     22  H   UNL     1     -34.423  22.314   1.524  0.00  0.00    +0.211 HD
ENDBRANCH  20  21
ENDBRANCH   5  20
TORSDOF 5
ENDMDL
MODEL 6
REMARK VINA RESULT:      -5.0      2.451      4.176
REMARK  Name = 191372
REMARK  5 active torsions:
REMARK  status: ('A' for Active; 'I' for Inactive)
REMARK    1  A    between atoms: C_2  and  O_16
REMARK    2  A    between atoms: C_3  and  O_18
REMARK    3  A    between atoms: C_4  and  N_8
REMARK    4  A    between atoms: C_5  and  C_20
REMARK    5  A    between atoms: C_20  and  O_21
REMARK                            x       y       z     vdW  Elec       q    Type
REMARK                         _______ _______ _______ _____ _____    ______ ____
ROOT
ATOM      1  O   UNL     1     -37.299  25.506   1.932  0.00  0.00    -0.333 OA
ATOM      2  C   UNL     1     -35.363  26.647   2.684  0.00  0.00    +0.191 C 
ATOM      3  C   UNL     1     -35.887  27.345   1.447  0.00  0.00    +0.171 C 
ATOM      4  C   UNL     1     -36.572  25.840   3.126  0.00  0.00    +0.230 C 
ATOM      5  C   UNL     1     -36.773  26.274   0.827  0.00  0.00    +0.175 C 
ENDROOT
BRANCH   4   8
ATOM      6  O   UNL     1     -36.168  25.575   5.934  0.00  0.00    -0.252 OA
ATOM      7  O   UNL     1     -35.165  21.104   5.544  0.00  0.00    -0.270 OA
ATOM      8  N   UNL     1     -36.205  24.627   3.800  0.00  0.00    -0.217 N 
ATOM      9  N   UNL     1     -35.669  23.346   5.725  0.00  0.00    -0.236 N 
ATOM     10  C   UNL     1     -36.025  23.474   3.045  0.00  0.00    +0.071 C 
ATOM     11  C   UNL     1     -36.027  24.594   5.201  0.00  0.00    +0.315 C 
ATOM     12  C   UNL     1     -35.683  22.282   3.549  0.00  0.00    +0.047 C 
ATOM     13  C   UNL     1     -35.478  22.168   5.018  0.00  0.00    +0.250 C 
ATOM     14  C   UNL     1     -35.495  21.054   2.717  0.00  0.00    +0.037 C 
ATOM     15  H   UNL     1     -35.539  23.299   6.700  0.00  0.00    +0.159 HD
ENDBRANCH   4   8
BRANCH   2  16
ATOM     16  O   UNL     1     -34.929  27.559   3.673  0.00  0.00    -0.347 OA
ATOM     17  C   UNL     1     -33.511  27.685   3.690  0.00  0.00    +0.174 C 
ENDBRANCH   2  16
BRANCH   3  18
ATOM     18  O   UNL     1     -36.718  28.446   1.815  0.00  0.00    -0.379 OA
ATOM     19  H   UNL     1     -37.198  28.231   2.629  0.00  0.00    +0.211 HD
ENDBRANCH   3  18
BRANCH   5  20
ATOM     20  C   UNL     1     -36.017  25.324  -0.092  0.00  0.00    +0.169 C 
BRANCH  20  21
ATOM     21  O   UNL     1     -35.519  26.061  -1.194  0.00  0.00    -0.379 OA
ATOM     22  H   UNL     1     -35.359  25.459  -1.939  0.00  0.00    +0.211 HD
ENDBRANCH  20  21
ENDBRANCH   5  20
TORSDOF 5
ENDMDL
MODEL 7
REMARK VINA RESULT:      -4.8      1.933      3.390
REMARK  Name = 191372
REMARK  5 active torsions:
REMARK  status: ('A' for Active; 'I' for Inactive)
REMARK    1  A    between atoms: C_2  and  O_16
REMARK    2  A    between atoms: C_3  and  O_18
REMARK    3  A    between atoms: C_4  and  N_8
REMARK    4  A    between atoms: C_5  and  C_20
REMARK    5  A    between atoms: C_20  and  O_21
REMARK                            x       y       z     vdW  Elec       q    Type
REMARK                         _______ _______ _______ _____ _____    ______ ____
ROOT
ATOM      1  O   UNL     1     -37.064  23.319   4.017  0.00  0.00    -0.333 OA
ATOM      2  C   UNL     1     -35.713  24.254   2.310  0.00  0.00    +0.191 C 
ATOM      3  C   UNL     1     -36.054  25.341   3.307  0.00  0.00    +0.171 C 
ATOM      4  C   UNL     1     -36.002  22.993   3.107  0.00  0.00    +0.230 C 
ATOM      5  C   UNL     1     -37.262  24.750   4.022  0.00  0.00    +0.175 C 
ENDROOT
BRANCH   4   8
ATOM      6  O   UNL     1     -35.152  20.287   3.386  0.00  0.00    -0.252 OA
ATOM      7  O   UNL     1     -37.717  18.931  -0.183  0.00  0.00    -0.270 OA
ATOM      8  N   UNL     1     -36.421  21.902   2.274  0.00  0.00    -0.217 N 
ATOM      9  N   UNL     1     -36.436  19.625   1.604  0.00  0.00    -0.236 N 
ATOM     10  C   UNL     1     -37.314  22.159   1.240  0.00  0.00    +0.071 C 
ATOM     11  C   UNL     1     -35.944  20.590   2.491  0.00  0.00    +0.315 C 
ATOM     12  C   UNL     1     -37.783  21.233   0.393  0.00  0.00    +0.047 C 
ATOM     13  C   UNL     1     -37.325  19.828   0.559  0.00  0.00    +0.250 C 
ATOM     14  C   UNL     1     -38.742  21.534  -0.713  0.00  0.00    +0.037 C 
ATOM     15  H   UNL     1     -36.117  18.703   1.736  0.00  0.00    +0.159 HD
ENDBRANCH   4   8
BRANCH   2  16
ATOM     16  O   UNL     1     -34.371  24.326   1.875  0.00  0.00    -0.347 OA
ATOM     17  C   UNL     1     -34.260  24.944   0.597  0.00  0.00    +0.174 C 
ENDBRANCH   2  16
BRANCH   3  18
ATOM     18  O   UNL     1     -35.003  25.483   4.262  0.00  0.00    -0.379 OA
ATOM     19  H   UNL     1     -35.310  25.178   5.129  0.00  0.00    +0.211 HD
ENDBRANCH   3  18
BRANCH   5  20
ATOM     20  C   UNL     1     -38.581  25.049   3.323  0.00  0.00    +0.169 C 
BRANCH  20  21
ATOM     21  O   UNL     1     -38.785  26.451   3.319  0.00  0.00    -0.379 OA
ATOM     22  H   UNL     1     -39.159  26.725   4.172  0.00  0.00    +0.211 HD
ENDBRANCH  20  21
ENDBRANCH   5  20
TORSDOF 5
ENDMDL
MODEL 8
REMARK VINA RESULT:      -4.8      2.185      2.463
REMARK  Name = 191372
REMARK  5 active torsions:
REMARK  status: ('A' for Active; 'I' for Inactive)
REMARK    1  A    between atoms: C_2  and  O_16
REMARK    2  A    between atoms: C_3  and  O_18
REMARK    3  A    between atoms: C_4  and  N_8
REMARK    4  A    between atoms: C_5  and  C_20
REMARK    5  A    between atoms: C_20  and  O_21
REMARK                            x       y       z     vdW  Elec       q    Type
REMARK                         _______ _______ _______ _____ _____    ______ ____
ROOT
ATOM      1  O   UNL     1     -36.458  24.292   1.822  0.00  0.00    -0.333 OA
ATOM      2  C   UNL     1     -35.807  23.543   3.973  0.00  0.00    +0.191 C 
ATOM      3  C   UNL     1     -36.442  24.911   4.108  0.00  0.00    +0.171 C 
ATOM      4  C   UNL     1     -36.302  23.100   2.607  0.00  0.00    +0.230 C 
ATOM      5  C   UNL     1     -36.353  25.446   2.685  0.00  0.00    +0.175 C 
ENDROOT
BRANCH   4   8
ATOM      6  O   UNL     1     -36.181  20.272   2.941  0.00  0.00    -0.252 OA
ATOM      7  O   UNL     1     -32.678  19.898  -0.016  0.00  0.00    -0.270 OA
ATOM      8  N   UNL     1     -35.376  22.225   1.946  0.00  0.00    -0.217 N 
ATOM      9  N   UNL     1     -34.434  20.100   1.465  0.00  0.00    -0.236 N 
ATOM     10  C   UNL     1     -34.452  22.777   1.066  0.00  0.00    +0.071 C 
ATOM     11  C   UNL     1     -35.392  20.831   2.176  0.00  0.00    +0.315 C 
ATOM     12  C   UNL     1     -33.536  22.075   0.387  0.00  0.00    +0.047 C 
ATOM     13  C   UNL     1     -33.492  20.601   0.577  0.00  0.00    +0.250 C 
ATOM     14  C   UNL     1     -32.551  22.691  -0.554  0.00  0.00    +0.037 C 
ATOM     15  H   UNL     1     -34.426  19.127   1.610  0.00  0.00    +0.159 HD
ENDBRANCH   4   8
BRANCH   2  16
ATOM     16  O   UNL     1     -36.202  22.664   5.006  0.00  0.00    -0.347 OA
ATOM     17  C   UNL     1     -35.144  22.420   5.928  0.00  0.00    +0.174 C 
ENDBRANCH   2  16
BRANCH   3  18
ATOM     18  O   UNL     1     -37.823  24.784   4.446  0.00  0.00    -0.379 OA
ATOM     19  H   UNL     1     -38.356  25.311   3.831  0.00  0.00    +0.211 HD
ENDBRANCH   3  18
BRANCH   5  20
ATOM     20  C   UNL     1     -35.034  26.144   2.385  0.00  0.00    +0.169 C 
BRANCH  20  21
ATOM     21  O   UNL     1     -34.798  27.117   3.387  0.00  0.00    -0.379 OA
ATOM     22  H   UNL     1     -34.771  27.998   2.982  0.00  0.00    +0.211 HD
ENDBRANCH  20  21
ENDBRANCH   5  20
TORSDOF 5
ENDMDL
MODEL 9
REMARK VINA RESULT:      -4.7      2.355      3.860
REMARK  Name = 191372
REMARK  5 active torsions:
REMARK  status: ('A' for Active; 'I' for Inactive)
REMARK    1  A    between atoms: C_2  and  O_16
REMARK    2  A    between atoms: C_3  and  O_18
REMARK    3  A    between atoms: C_4  and  N_8
REMARK    4  A    between atoms: C_5  and  C_20
REMARK    5  A    between atoms: C_20  and  O_21
REMARK                            x       y       z     vdW  Elec       q    Type
REMARK                         _______ _______ _______ _____ _____    ______ ____
ROOT
ATOM      1  O   UNL     1     -33.045  25.736   3.711  0.00  0.00    -0.333 OA
ATOM      2  C   UNL     1     -35.204  26.550   3.170  0.00  0.00    +0.191 C 
ATOM      3  C   UNL     1     -34.380  27.693   3.724  0.00  0.00    +0.171 C 
ATOM      4  C   UNL     1     -34.131  25.544   2.790  0.00  0.00    +0.230 C 
ATOM      5  C   UNL     1     -33.262  26.957   4.451  0.00  0.00    +0.175 C 
ENDROOT
BRANCH   4   8
ATOM      6  O   UNL     1     -34.649  23.813   0.585  0.00  0.00    -0.252 OA
ATOM      7  O   UNL     1     -35.893  20.364   3.361  0.00  0.00    -0.270 OA
ATOM      8  N   UNL     1     -34.591  24.188   2.890  0.00  0.00    -0.217 N 
ATOM      9  N   UNL     1     -35.268  22.102   1.981  0.00  0.00    -0.236 N 
ATOM     10  C   UNL     1     -34.810  23.651   4.153  0.00  0.00    +0.071 C 
ATOM     11  C   UNL     1     -34.820  23.405   1.736  0.00  0.00    +0.315 C 
ATOM     12  C   UNL     1     -35.237  22.403   4.385  0.00  0.00    +0.047 C 
ATOM     13  C   UNL     1     -35.501  21.519   3.218  0.00  0.00    +0.250 C 
ATOM     14  C   UNL     1     -35.466  21.848   5.754  0.00  0.00    +0.037 C 
ATOM     15  H   UNL     1     -35.435  21.538   1.192  0.00  0.00    +0.159 HD
ENDBRANCH   4   8
BRANCH   2  16
ATOM     16  O   UNL     1     -35.995  26.943   2.067  0.00  0.00    -0.347 OA
ATOM     17  C   UNL     1     -37.328  26.454   2.170  0.00  0.00    +0.174 C 
ENDBRANCH   2  16
BRANCH   3  18
ATOM     18  O   UNL     1     -33.794  28.442   2.659  0.00  0.00    -0.379 OA
ATOM     19  H   UNL     1     -32.874  28.163   2.535  0.00  0.00    +0.211 HD
ENDBRANCH   3  18
BRANCH   5  20
ATOM     20  C   UNL     1     -33.618  26.587   5.884  0.00  0.00    +0.169 C 
BRANCH  20  21
ATOM     21  O   UNL     1     -32.540  26.951   6.727  0.00  0.00    -0.379 OA
ATOM     22  H   UNL     1     -32.887  27.331   7.550  0.00  0.00    +0.211 HD
ENDBRANCH  20  21
ENDBRANCH   5  20
TORSDOF 5
ENDMDL
