MODEL 1
REMARK VINA RESULT:      -7.3      0.000      0.000
REMARK  Name = 54679632
REMARK  9 active torsions:
REMARK  status: ('A' for Active; 'I' for Inactive)
REMARK    1  A    between atoms: C_3  and  C_8
REMARK    2  A    between atoms: C_3  and  C_22
REMARK    3  A    between atoms: C_5  and  O_36
REMARK    4  A    between atoms: C_6  and  C_14
REMARK    5  A    between atoms: N_21  and  C_24
REMARK    6  A    between atoms: C_24  and  C_26
REMARK    7  A    between atoms: C_24  and  C_29
REMARK    8  A    between atoms: C_26  and  O_27
REMARK    9  A    between atoms: C_29  and  C_30
REMARK                            x       y       z     vdW  Elec       q    Type
REMARK                         _______ _______ _______ _____ _____    ______ ____
ROOT
ATOM      1  O   UNL     1     -34.388  17.495  -0.746  0.00  0.00    -0.418 OA
ATOM      2  O   UNL     1     -35.462  15.903  -2.001  0.00  0.00    -0.244 OA
ATOM      3  C   UNL     1     -34.049  19.275   0.796  0.00  0.00    +0.091 C 
ATOM      4  C   UNL     1     -34.872  18.445   0.147  0.00  0.00    +0.187 C 
ATOM      5  C   UNL     1     -36.291  18.345   0.207  0.00  0.00    +0.175 C 
ATOM      6  C   UNL     1     -36.729  17.377  -0.595  0.00  0.00    +0.113 C 
ATOM      7  C   UNL     1     -35.499  16.829  -1.206  0.00  0.00    +0.349 C 
ENDROOT
BRANCH   3   8
ATOM      8  C   UNL     1     -32.597  19.183   0.562  0.00  0.00    +0.007 C 
ATOM      9  C   UNL     1     -31.867  18.133   1.118  0.00  0.00    +0.000 C 
ATOM     10  C   UNL     1     -31.954  20.146  -0.213  0.00  0.00    +0.000 C 
ATOM     11  C   UNL     1     -30.492  18.046   0.897  0.00  0.00    +0.000 C 
ATOM     12  C   UNL     1     -30.580  20.060  -0.435  0.00  0.00    +0.000 C 
ATOM     13  C   UNL     1     -29.849  19.010   0.121  0.00  0.00    +0.000 C 
ENDBRANCH   3   8
BRANCH   6  14
ATOM     14  C   UNL     1     -38.100  16.943  -0.860  0.00  0.00    +0.009 C 
ATOM     15  C   UNL     1     -38.966  17.770  -1.573  0.00  0.00    +0.000 C 
ATOM     16  C   UNL     1     -38.540  15.703  -0.398  0.00  0.00    +0.000 C 
ATOM     17  C   UNL     1     -40.275  17.357  -1.825  0.00  0.00    +0.000 C 
ATOM     18  C   UNL     1     -39.848  15.290  -0.650  0.00  0.00    +0.000 C 
ATOM     19  C   UNL     1     -40.715  16.117  -1.364  0.00  0.00    +0.000 C 
ENDBRANCH   6  14
BRANCH   3  22
ATOM     20  O   UNL     1     -34.842  19.926   2.954  0.00  0.00    -0.270 OA
ATOM     21  N   UNL     1     -35.035  21.450   1.224  0.00  0.00    -0.293 N 
ATOM     22  C   UNL     1     -34.671  20.230   1.774  0.00  0.00    +0.249 C 
ATOM     23  H   UNL     1     -34.863  21.614   0.268  0.00  0.00    +0.150 HD
BRANCH  21  24
ATOM     24  C   UNL     1     -35.658  22.485   2.010  0.00  0.00    +0.176 C 
BRANCH  24  26
ATOM     25  O   UNL     1     -37.519  23.596   0.943  0.00  0.00    -0.248 OA
ATOM     26  C   UNL     1     -37.126  22.678   1.654  0.00  0.00    +0.335 C 
BRANCH  26  27
ATOM     27  O   UNL     1     -37.922  21.734   2.228  0.00  0.00    -0.443 OA
ATOM     28  C   UNL     1     -39.309  21.792   1.878  0.00  0.00    +0.256 C 
ENDBRANCH  26  27
ENDBRANCH  24  26
BRANCH  24  29
ATOM     29  C   UNL     1     -34.868  23.799   1.931  0.00  0.00    +0.057 C 
BRANCH  29  30
ATOM     30  C   UNL     1     -34.680  24.505   3.255  0.00  0.00    -0.020 C 
ATOM     31  C   UNL     1     -35.045  23.870   4.441  0.00  0.00    -0.004 C 
ATOM     32  C   UNL     1     -34.143  25.791   3.289  0.00  0.00    -0.004 C 
ATOM     33  C   UNL     1     -34.873  24.521   5.663  0.00  0.00    -0.000 C 
ATOM     34  C   UNL     1     -33.970  26.442   4.510  0.00  0.00    -0.000 C 
ATOM     35  C   UNL     1     -34.336  25.807   5.698  0.00  0.00    -0.000 C 
ENDBRANCH  29  30
ENDBRANCH  24  29
ENDBRANCH  21  24
ENDBRANCH   3  22
BRANCH   5  36
ATOM     36  O   UNL     1     -37.063  19.171   0.974  0.00  0.00    -0.503 OA
ATOM     37  H   UNL     1     -36.951  19.187   1.904  0.00  0.00    +0.292 HD
ENDBRANCH   5  36
TORSDOF 9
ENDMDL
MODEL 2
REMARK VINA RESULT:      -7.2      5.486      7.721
REMARK  Name = 54679632
REMARK  9 active torsions:
REMARK  status: ('A' for Active; 'I' for Inactive)
REMARK    1  A    between atoms: C_3  and  C_8
REMARK    2  A    between atoms: C_3  and  C_22
REMARK    3  A    between atoms: C_5  and  O_36
REMARK    4  A    between atoms: C_6  and  C_14
REMARK    5  A    between atoms: N_21  and  C_24
REMARK    6  A    between atoms: C_24  and  C_26
REMARK    7  A    between atoms: C_24  and  C_29
REMARK    8  A    between atoms: C_26  and  O_27
REMARK    9  A    between atoms: C_29  and  C_30
REMARK                            x       y       z     vdW  Elec       q    Type
REMARK                         _______ _______ _______ _____ _____    ______ ____
ROOT
ATOM      1  O   UNL     1     -38.376  23.479   3.177  0.00  0.00    -0.418 OA
ATOM      2  O   UNL     1     -40.408  23.040   2.209  0.00  0.00    -0.244 OA
ATOM      3  C   UNL     1     -36.477  24.691   3.941  0.00  0.00    +0.091 C 
ATOM      4  C   UNL     1     -37.655  24.661   3.310  0.00  0.00    +0.187 C 
ATOM      5  C   UNL     1     -38.378  25.718   2.690  0.00  0.00    +0.175 C 
ATOM      6  C   UNL     1     -39.522  25.269   2.177  0.00  0.00    +0.113 C 
ATOM      7  C   UNL     1     -39.518  23.825   2.495  0.00  0.00    +0.349 C 
ENDROOT
BRANCH   3   8
ATOM      8  C   UNL     1     -35.927  23.448   4.508  0.00  0.00    +0.007 C 
ATOM      9  C   UNL     1     -35.643  23.370   5.871  0.00  0.00    +0.000 C 
ATOM     10  C   UNL     1     -35.691  22.350   3.682  0.00  0.00    +0.000 C 
ATOM     11  C   UNL     1     -35.123  22.192   6.409  0.00  0.00    +0.000 C 
ATOM     12  C   UNL     1     -35.171  21.172   4.218  0.00  0.00    +0.000 C 
ATOM     13  C   UNL     1     -34.886  21.094   5.582  0.00  0.00    +0.000 C 
ENDBRANCH   3   8
BRANCH   6  14
ATOM     14  C   UNL     1     -40.555  25.994   1.439  0.00  0.00    +0.009 C 
ATOM     15  C   UNL     1     -41.635  26.552   2.121  0.00  0.00    +0.000 C 
ATOM     16  C   UNL     1     -40.460  26.126   0.054  0.00  0.00    +0.000 C 
ATOM     17  C   UNL     1     -42.622  27.244   1.418  0.00  0.00    +0.000 C 
ATOM     18  C   UNL     1     -41.446  26.817  -0.649  0.00  0.00    +0.000 C 
ATOM     19  C   UNL     1     -42.527  27.376   0.033  0.00  0.00    +0.000 C 
ENDBRANCH   6  14
BRANCH   3  22
ATOM     20  O   UNL     1     -35.939  26.723   5.079  0.00  0.00    -0.270 OA
ATOM     21  N   UNL     1     -35.050  26.395   2.969  0.00  0.00    -0.293 N 
ATOM     22  C   UNL     1     -35.805  26.028   4.072  0.00  0.00    +0.249 C 
ATOM     23  H   UNL     1     -34.994  25.780   2.202  0.00  0.00    +0.150 HD
BRANCH  21  24
ATOM     24  C   UNL     1     -34.344  27.651   2.911  0.00  0.00    +0.176 C 
BRANCH  24  26
ATOM     25  O   UNL     1     -33.484  28.751   0.939  0.00  0.00    -0.248 OA
ATOM     26  C   UNL     1     -34.457  28.316   1.546  0.00  0.00    +0.335 C 
BRANCH  26  27
ATOM     27  O   UNL     1     -35.746  28.378   1.109  0.00  0.00    -0.443 OA
ATOM     28  C   UNL     1     -36.317  29.689   1.042  0.00  0.00    +0.256 C 
ENDBRANCH  26  27
ENDBRANCH  24  26
BRANCH  24  29
ATOM     29  C   UNL     1     -32.883  27.492   3.356  0.00  0.00    +0.057 C 
BRANCH  29  30
ATOM     30  C   UNL     1     -32.462  28.411   4.482  0.00  0.00    -0.020 C 
ATOM     31  C   UNL     1     -32.271  29.770   4.237  0.00  0.00    -0.004 C 
ATOM     32  C   UNL     1     -32.265  27.898   5.763  0.00  0.00    -0.004 C 
ATOM     33  C   UNL     1     -31.882  30.618   5.275  0.00  0.00    -0.000 C 
ATOM     34  C   UNL     1     -31.876  28.745   6.801  0.00  0.00    -0.000 C 
ATOM     35  C   UNL     1     -31.684  30.105   6.556  0.00  0.00    -0.000 C 
ENDBRANCH  29  30
ENDBRANCH  24  29
ENDBRANCH  21  24
ENDBRANCH   3  22
BRANCH   5  36
ATOM     36  O   UNL     1     -37.912  27.001   2.624  0.00  0.00    -0.503 OA
ATOM     37  H   UNL     1     -37.187  27.207   2.067  0.00  0.00    +0.292 HD
ENDBRANCH   5  36
TORSDOF 9
ENDMDL
MODEL 3
REMARK VINA RESULT:      -7.1      5.907     10.065
REMARK  Name = 54679632
REMARK  9 active torsions:
REMARK  status: ('A' for Active; 'I' for Inactive)
REMARK    1  A    between atoms: C_3  and  C_8
REMARK    2  A    between atoms: C_3  and  C_22
REMARK    3  A    between atoms: C_5  and  O_36
REMARK    4  A    between atoms: C_6  and  C_14
REMARK    5  A    between atoms: N_21  and  C_24
REMARK    6  A    between atoms: C_24  and  C_26
REMARK    7  A    between atoms: C_24  and  C_29
REMARK    8  A    between atoms: C_26  and  O_27
REMARK    9  A    between atoms: C_29  and  C_30
REMARK                            x       y       z     vdW  Elec       q    Type
REMARK                         _______ _______ _______ _____ _____    ______ ____
ROOT
ATOM      1  O   UNL     1     -36.441  27.041   2.651  0.00  0.00    -0.418 OA
ATOM      2  O   UNL     1     -37.750  25.172   2.881  0.00  0.00    -0.244 OA
ATOM      3  C   UNL     1     -34.548  28.476   2.779  0.00  0.00    +0.091 C 
ATOM      4  C   UNL     1     -35.130  27.301   3.036  0.00  0.00    +0.187 C 
ATOM      5  C   UNL     1     -34.605  26.155   3.697  0.00  0.00    +0.175 C 
ATOM      6  C   UNL     1     -35.512  25.181   3.743  0.00  0.00    +0.113 C 
ATOM      7  C   UNL     1     -36.693  25.756   3.065  0.00  0.00    +0.349 C 
ENDROOT
BRANCH   3   8
ATOM      8  C   UNL     1     -35.308  29.521   2.072  0.00  0.00    +0.007 C 
ATOM      9  C   UNL     1     -35.661  30.696   2.736  0.00  0.00    +0.000 C 
ATOM     10  C   UNL     1     -35.675  29.336   0.740  0.00  0.00    +0.000 C 
ATOM     11  C   UNL     1     -36.381  31.686   2.066  0.00  0.00    +0.000 C 
ATOM     12  C   UNL     1     -36.394  30.325   0.070  0.00  0.00    +0.000 C 
ATOM     13  C   UNL     1     -36.748  31.500   0.734  0.00  0.00    +0.000 C 
ENDBRANCH   3   8
BRANCH   6  14
ATOM     14  C   UNL     1     -35.412  23.850   4.340  0.00  0.00    +0.009 C 
ATOM     15  C   UNL     1     -35.330  23.712   5.724  0.00  0.00    +0.000 C 
ATOM     16  C   UNL     1     -35.399  22.719   3.523  0.00  0.00    +0.000 C 
ATOM     17  C   UNL     1     -35.235  22.441   6.294  0.00  0.00    +0.000 C 
ATOM     18  C   UNL     1     -35.303  21.450   4.092  0.00  0.00    +0.000 C 
ATOM     19  C   UNL     1     -35.221  21.311   5.478  0.00  0.00    +0.000 C 
ENDBRANCH   6  14
BRANCH   3  22
ATOM     20  O   UNL     1     -32.186  28.343   2.442  0.00  0.00    -0.270 OA
ATOM     21  N   UNL     1     -32.946  29.119   4.484  0.00  0.00    -0.293 N 
ATOM     22  C   UNL     1     -33.113  28.636   3.195  0.00  0.00    +0.249 C 
ATOM     23  H   UNL     1     -33.742  29.330   5.023  0.00  0.00    +0.150 HD
BRANCH  21  24
ATOM     24  C   UNL     1     -31.639  29.324   5.058  0.00  0.00    +0.176 C 
BRANCH  24  26
ATOM     25  O   UNL     1     -32.084  27.396   6.445  0.00  0.00    -0.248 OA
ATOM     26  C   UNL     1     -31.306  28.287   6.123  0.00  0.00    +0.335 C 
BRANCH  26  27
ATOM     27  O   UNL     1     -30.073  28.487   6.666  0.00  0.00    -0.443 OA
ATOM     28  C   UNL     1     -28.964  28.097   5.850  0.00  0.00    +0.256 C 
ENDBRANCH  26  27
ENDBRANCH  24  26
BRANCH  24  29
ATOM     29  C   UNL     1     -31.476  30.759   5.579  0.00  0.00    +0.057 C 
BRANCH  29  30
ATOM     30  C   UNL     1     -30.648  31.662   4.693  0.00  0.00    -0.020 C 
ATOM     31  C   UNL     1     -31.265  32.416   3.695  0.00  0.00    -0.004 C 
ATOM     32  C   UNL     1     -29.267  31.741   4.873  0.00  0.00    -0.004 C 
ATOM     33  C   UNL     1     -30.501  33.250   2.877  0.00  0.00    -0.000 C 
ATOM     34  C   UNL     1     -28.504  32.575   4.057  0.00  0.00    -0.000 C 
ATOM     35  C   UNL     1     -29.121  33.329   3.058  0.00  0.00    -0.000 C 
ENDBRANCH  29  30
ENDBRANCH  24  29
ENDBRANCH  21  24
ENDBRANCH   3  22
BRANCH   5  36
ATOM     36  O   UNL     1     -33.345  26.112   4.225  0.00  0.00    -0.503 OA
ATOM     37  H   UNL     1     -32.613  25.914   3.675  0.00  0.00    +0.292 HD
ENDBRANCH   5  36
TORSDOF 9
ENDMDL
MODEL 4
REMARK VINA RESULT:      -7.0      5.971      9.977
REMARK  Name = 54679632
REMARK  9 active torsions:
REMARK  status: ('A' for Active; 'I' for Inactive)
REMARK    1  A    between atoms: C_3  and  C_8
REMARK    2  A    between atoms: C_3  and  C_22
REMARK    3  A    between atoms: C_5  and  O_36
REMARK    4  A    between atoms: C_6  and  C_14
REMARK    5  A    between atoms: N_21  and  C_24
REMARK    6  A    between atoms: C_24  and  C_26
REMARK    7  A    between atoms: C_24  and  C_29
REMARK    8  A    between atoms: C_26  and  O_27
REMARK    9  A    between atoms: C_29  and  C_30
REMARK                            x       y       z     vdW  Elec       q    Type
REMARK                         _______ _______ _______ _____ _____    ______ ____
ROOT
ATOM      1  O   UNL     1     -36.031  27.179   2.736  0.00  0.00    -0.418 OA
ATOM      2  O   UNL     1     -37.534  25.481   3.076  0.00  0.00    -0.244 OA
ATOM      3  C   UNL     1     -33.974  28.375   2.707  0.00  0.00    +0.091 C 
ATOM      4  C   UNL     1     -34.672  27.277   3.014  0.00  0.00    +0.187 C 
ATOM      5  C   UNL     1     -34.237  26.071   3.635  0.00  0.00    +0.175 C 
ATOM      6  C   UNL     1     -35.249  25.214   3.756  0.00  0.00    +0.113 C 
ATOM      7  C   UNL     1     -36.403  25.931   3.173  0.00  0.00    +0.349 C 
ENDROOT
BRANCH   3   8
ATOM      8  C   UNL     1     -34.656  29.508   2.060  0.00  0.00    +0.007 C 
ATOM      9  C   UNL     1     -34.594  29.661   0.675  0.00  0.00    +0.000 C 
ATOM     10  C   UNL     1     -35.365  30.429   2.831  0.00  0.00    +0.000 C 
ATOM     11  C   UNL     1     -35.240  30.734   0.061  0.00  0.00    +0.000 C 
ATOM     12  C   UNL     1     -36.011  31.502   2.219  0.00  0.00    +0.000 C 
ATOM     13  C   UNL     1     -35.948  31.655   0.833  0.00  0.00    +0.000 C 
ENDBRANCH   3   8
BRANCH   6  14
ATOM     14  C   UNL     1     -35.264  23.877   4.347  0.00  0.00    +0.009 C 
ATOM     15  C   UNL     1     -35.328  22.753   3.525  0.00  0.00    +0.000 C 
ATOM     16  C   UNL     1     -35.215  23.727   5.733  0.00  0.00    +0.000 C 
ATOM     17  C   UNL     1     -35.343  21.477   4.089  0.00  0.00    +0.000 C 
ATOM     18  C   UNL     1     -35.231  22.451   6.297  0.00  0.00    +0.000 C 
ATOM     19  C   UNL     1     -35.294  21.326   5.474  0.00  0.00    +0.000 C 
ENDBRANCH   6  14
BRANCH   3  22
ATOM     20  O   UNL     1     -31.704  27.761   2.285  0.00  0.00    -0.270 OA
ATOM     21  N   UNL     1     -32.147  29.050   4.154  0.00  0.00    -0.293 N 
ATOM     22  C   UNL     1     -32.502  28.357   3.006  0.00  0.00    +0.249 C 
ATOM     23  H   UNL     1     -32.849  29.501   4.677  0.00  0.00    +0.150 HD
BRANCH  21  24
ATOM     24  C   UNL     1     -30.780  29.130   4.604  0.00  0.00    +0.176 C 
BRANCH  24  26
ATOM     25  O   UNL     1     -31.062  29.550   6.967  0.00  0.00    -0.248 OA
ATOM     26  C   UNL     1     -30.639  28.809   6.086  0.00  0.00    +0.335 C 
BRANCH  26  27
ATOM     27  O   UNL     1     -29.985  27.633   6.298  0.00  0.00    -0.443 OA
ATOM     28  C   UNL     1     -28.606  27.744   6.660  0.00  0.00    +0.256 C 
ENDBRANCH  26  27
ENDBRANCH  24  26
BRANCH  24  29
ATOM     29  C   UNL     1     -30.151  30.483   4.245  0.00  0.00    +0.057 C 
BRANCH  29  30
ATOM     30  C   UNL     1     -30.878  31.251   3.163  0.00  0.00    -0.020 C 
ATOM     31  C   UNL     1     -30.565  31.032   1.822  0.00  0.00    -0.004 C 
ATOM     32  C   UNL     1     -31.861  32.179   3.507  0.00  0.00    -0.004 C 
ATOM     33  C   UNL     1     -31.235  31.740   0.824  0.00  0.00    -0.000 C 
ATOM     34  C   UNL     1     -32.531  32.886   2.510  0.00  0.00    -0.000 C 
ATOM     35  C   UNL     1     -32.218  32.667   1.168  0.00  0.00    -0.000 C 
ENDBRANCH  29  30
ENDBRANCH  24  29
ENDBRANCH  21  24
ENDBRANCH   3  22
BRANCH   5  36
ATOM     36  O   UNL     1     -32.955  25.873   4.060  0.00  0.00    -0.503 OA
ATOM     37  H   UNL     1     -32.669  26.242   4.873  0.00  0.00    +0.292 HD
ENDBRANCH   5  36
TORSDOF 9
ENDMDL
MODEL 5
REMARK VINA RESULT:      -6.9      2.084      6.406
REMARK  Name = 54679632
REMARK  9 active torsions:
REMARK  status: ('A' for Active; 'I' for Inactive)
REMARK    1  A    between atoms: C_3  and  C_8
REMARK    2  A    between atoms: C_3  and  C_22
REMARK    3  A    between atoms: C_5  and  O_36
REMARK    4  A    between atoms: C_6  and  C_14
REMARK    5  A    between atoms: N_21  and  C_24
REMARK    6  A    between atoms: C_24  and  C_26
REMARK    7  A    between atoms: C_24  and  C_29
REMARK    8  A    between atoms: C_26  and  O_27
REMARK    9  A    between atoms: C_29  and  C_30
REMARK                            x       y       z     vdW  Elec       q    Type
REMARK                         _______ _______ _______ _____ _____    ______ ____
ROOT
ATOM      1  O   UNL     1     -38.189  22.556   2.579  0.00  0.00    -0.418 OA
ATOM      2  O   UNL     1     -40.362  23.116   2.106  0.00  0.00    -0.244 OA
ATOM      3  C   UNL     1     -35.987  21.701   2.297  0.00  0.00    +0.091 C 
ATOM      4  C   UNL     1     -37.219  21.910   1.821  0.00  0.00    +0.187 C 
ATOM      5  C   UNL     1     -37.774  21.557   0.559  0.00  0.00    +0.175 C 
ATOM      6  C   UNL     1     -39.042  21.953   0.476  0.00  0.00    +0.113 C 
ATOM      7  C   UNL     1     -39.305  22.600   1.779  0.00  0.00    +0.349 C 
ENDROOT
BRANCH   3   8
ATOM      8  C   UNL     1     -35.647  22.165   3.653  0.00  0.00    +0.007 C 
ATOM      9  C   UNL     1     -35.454  21.239   4.679  0.00  0.00    +0.000 C 
ATOM     10  C   UNL     1     -35.518  23.529   3.912  0.00  0.00    +0.000 C 
ATOM     11  C   UNL     1     -35.132  21.678   5.963  0.00  0.00    +0.000 C 
ATOM     12  C   UNL     1     -35.196  23.969   5.196  0.00  0.00    +0.000 C 
ATOM     13  C   UNL     1     -35.004  23.043   6.222  0.00  0.00    +0.000 C 
ENDBRANCH   3   8
BRANCH   6  14
ATOM     14  C   UNL     1     -39.995  21.784  -0.620  0.00  0.00    +0.009 C 
ATOM     15  C   UNL     1     -39.984  22.670  -1.695  0.00  0.00    +0.000 C 
ATOM     16  C   UNL     1     -40.916  20.736  -0.587  0.00  0.00    +0.000 C 
ATOM     17  C   UNL     1     -40.895  22.510  -2.741  0.00  0.00    +0.000 C 
ATOM     18  C   UNL     1     -41.826  20.576  -1.632  0.00  0.00    +0.000 C 
ATOM     19  C   UNL     1     -41.815  21.463  -2.709  0.00  0.00    +0.000 C 
ENDBRANCH   6  14
BRANCH   3  22
ATOM     20  O   UNL     1     -34.269  21.690   0.637  0.00  0.00    -0.270 OA
ATOM     21  N   UNL     1     -35.010  19.652   1.441  0.00  0.00    -0.293 N 
ATOM     22  C   UNL     1     -35.001  21.037   1.379  0.00  0.00    +0.249 C 
ATOM     23  H   UNL     1     -35.629  19.205   2.064  0.00  0.00    +0.150 HD
BRANCH  21  24
ATOM     24  C   UNL     1     -34.141  18.846   0.621  0.00  0.00    +0.176 C 
BRANCH  24  26
ATOM     25  O   UNL     1     -34.444  16.545  -0.051  0.00  0.00    -0.248 OA
ATOM     26  C   UNL     1     -34.878  17.692  -0.044  0.00  0.00    +0.335 C 
BRANCH  26  27
ATOM     27  O   UNL     1     -36.041  18.094  -0.628  0.00  0.00    -0.443 OA
ATOM     28  C   UNL     1     -37.190  17.289  -0.345  0.00  0.00    +0.256 C 
ENDBRANCH  26  27
ENDBRANCH  24  26
BRANCH  24  29
ATOM     29  C   UNL     1     -32.913  18.368   1.411  0.00  0.00    +0.057 C 
BRANCH  29  30
ATOM     30  C   UNL     1     -31.583  18.695   0.770  0.00  0.00    -0.020 C 
ATOM     31  C   UNL     1     -30.506  17.821   0.913  0.00  0.00    -0.004 C 
ATOM     32  C   UNL     1     -31.433  19.872   0.038  0.00  0.00    -0.004 C 
ATOM     33  C   UNL     1     -29.279  18.123   0.323  0.00  0.00    -0.000 C 
ATOM     34  C   UNL     1     -30.207  20.174  -0.553  0.00  0.00    -0.000 C 
ATOM     35  C   UNL     1     -29.129  19.300  -0.410  0.00  0.00    -0.000 C 
ENDBRANCH  29  30
ENDBRANCH  24  29
ENDBRANCH  21  24
ENDBRANCH   3  22
BRANCH   5  36
ATOM     36  O   UNL     1     -37.075  20.877  -0.398  0.00  0.00    -0.503 OA
ATOM     37  H   UNL     1     -37.437  20.771  -1.256  0.00  0.00    +0.292 HD
ENDBRANCH   5  36
TORSDOF 9
ENDMDL
MODEL 6
REMARK VINA RESULT:      -6.7      1.582      7.838
REMARK  Name = 54679632
REMARK  9 active torsions:
REMARK  status: ('A' for Active; 'I' for Inactive)
REMARK    1  A    between atoms: C_3  and  C_8
REMARK    2  A    between atoms: C_3  and  C_22
REMARK    3  A    between atoms: C_5  and  O_36
REMARK    4  A    between atoms: C_6  and  C_14
REMARK    5  A    between atoms: N_21  and  C_24
REMARK    6  A    between atoms: C_24  and  C_26
REMARK    7  A    between atoms: C_24  and  C_29
REMARK    8  A    between atoms: C_26  and  O_27
REMARK    9  A    between atoms: C_29  and  C_30
REMARK                            x       y       z     vdW  Elec       q    Type
REMARK                         _______ _______ _______ _____ _____    ______ ____
ROOT
ATOM      1  O   UNL     1     -38.099  20.993   1.257  0.00  0.00    -0.418 OA
ATOM      2  O   UNL     1     -38.682  22.527   2.859  0.00  0.00    -0.244 OA
ATOM      3  C   UNL     1     -36.750  19.606  -0.127  0.00  0.00    +0.091 C 
ATOM      4  C   UNL     1     -36.858  20.537   0.825  0.00  0.00    +0.187 C 
ATOM      5  C   UNL     1     -35.837  21.215   1.550  0.00  0.00    +0.175 C 
ATOM      6  C   UNL     1     -36.368  22.070   2.422  0.00  0.00    +0.113 C 
ATOM      7  C   UNL     1     -37.827  21.922   2.232  0.00  0.00    +0.349 C 
ENDROOT
BRANCH   3   8
ATOM      8  C   UNL     1     -37.970  19.048  -0.736  0.00  0.00    +0.007 C 
ATOM      9  C   UNL     1     -38.211  17.675  -0.680  0.00  0.00    +0.000 C 
ATOM     10  C   UNL     1     -38.882  19.891  -1.368  0.00  0.00    +0.000 C 
ATOM     11  C   UNL     1     -39.367  17.147  -1.257  0.00  0.00    +0.000 C 
ATOM     12  C   UNL     1     -40.038  19.364  -1.944  0.00  0.00    +0.000 C 
ATOM     13  C   UNL     1     -40.280  17.991  -1.889  0.00  0.00    +0.000 C 
ENDBRANCH   3   8
BRANCH   6  14
ATOM     14  C   UNL     1     -35.700  22.980   3.350  0.00  0.00    +0.009 C 
ATOM     15  C   UNL     1     -35.626  22.663   4.706  0.00  0.00    +0.000 C 
ATOM     16  C   UNL     1     -35.138  24.167   2.880  0.00  0.00    +0.000 C 
ATOM     17  C   UNL     1     -34.989  23.532   5.592  0.00  0.00    +0.000 C 
ATOM     18  C   UNL     1     -34.502  25.036   3.765  0.00  0.00    +0.000 C 
ATOM     19  C   UNL     1     -34.427  24.718   5.122  0.00  0.00    +0.000 C 
ENDBRANCH   6  14
BRANCH   3  22
ATOM     20  O   UNL     1     -34.735  19.658  -1.411  0.00  0.00    -0.270 OA
ATOM     21  N   UNL     1     -34.885  18.115   0.306  0.00  0.00    -0.293 N 
ATOM     22  C   UNL     1     -35.364  19.149  -0.484  0.00  0.00    +0.249 C 
ATOM     23  H   UNL     1     -35.454  17.763   1.029  0.00  0.00    +0.150 HD
BRANCH  21  24
ATOM     24  C   UNL     1     -33.580  17.540   0.100  0.00  0.00    +0.176 C 
BRANCH  24  26
ATOM     25  O   UNL     1     -32.611  15.331  -0.054  0.00  0.00    -0.248 OA
ATOM     26  C   UNL     1     -33.623  16.020   0.019  0.00  0.00    +0.335 C 
BRANCH  26  27
ATOM     27  O   UNL     1     -34.899  15.541   0.020  0.00  0.00    -0.443 OA
ATOM     28  C   UNL     1     -35.227  14.642  -1.043  0.00  0.00    +0.256 C 
ENDBRANCH  26  27
ENDBRANCH  24  26
BRANCH  24  29
ATOM     29  C   UNL     1     -32.579  18.032   1.155  0.00  0.00    +0.057 C 
BRANCH  29  30
ATOM     30  C   UNL     1     -31.304  18.619   0.592  0.00  0.00    -0.020 C 
ATOM     31  C   UNL     1     -31.336  19.841  -0.080  0.00  0.00    -0.004 C 
ATOM     32  C   UNL     1     -30.097  17.939   0.744  0.00  0.00    -0.004 C 
ATOM     33  C   UNL     1     -30.160  20.382  -0.599  0.00  0.00    -0.000 C 
ATOM     34  C   UNL     1     -28.921  18.480   0.226  0.00  0.00    -0.000 C 
ATOM     35  C   UNL     1     -28.953  19.702  -0.447  0.00  0.00    -0.000 C 
ENDBRANCH  29  30
ENDBRANCH  24  29
ENDBRANCH  21  24
ENDBRANCH   3  22
BRANCH   5  36
ATOM     36  O   UNL     1     -34.505  21.009   1.329  0.00  0.00    -0.503 OA
ATOM     37  H   UNL     1     -33.881  21.653   1.600  0.00  0.00    +0.292 HD
ENDBRANCH   5  36
TORSDOF 9
ENDMDL
MODEL 7
REMARK VINA RESULT:      -6.7      4.758      8.536
REMARK  Name = 54679632
REMARK  9 active torsions:
REMARK  status: ('A' for Active; 'I' for Inactive)
REMARK    1  A    between atoms: C_3  and  C_8
REMARK    2  A    between atoms: C_3  and  C_22
REMARK    3  A    between atoms: C_5  and  O_36
REMARK    4  A    between atoms: C_6  and  C_14
REMARK    5  A    between atoms: N_21  and  C_24
REMARK    6  A    between atoms: C_24  and  C_26
REMARK    7  A    between atoms: C_24  and  C_29
REMARK    8  A    between atoms: C_26  and  O_27
REMARK    9  A    between atoms: C_29  and  C_30
REMARK                            x       y       z     vdW  Elec       q    Type
REMARK                         _______ _______ _______ _____ _____    ______ ____
ROOT
ATOM      1  O   UNL     1     -41.290  24.344   1.112  0.00  0.00    -0.418 OA
ATOM      2  O   UNL     1     -43.455  25.043   0.819  0.00  0.00    -0.244 OA
ATOM      3  C   UNL     1     -39.078  24.216   1.978  0.00  0.00    +0.091 C 
ATOM      4  C   UNL     1     -40.283  24.794   1.958  0.00  0.00    +0.187 C 
ATOM      5  C   UNL     1     -40.772  25.894   2.719  0.00  0.00    +0.175 C 
ATOM      6  C   UNL     1     -42.039  26.158   2.402  0.00  0.00    +0.113 C 
ATOM      7  C   UNL     1     -42.370  25.154   1.368  0.00  0.00    +0.349 C 
ENDROOT
BRANCH   3   8
ATOM      8  C   UNL     1     -38.808  23.076   1.084  0.00  0.00    +0.007 C 
ATOM      9  C   UNL     1     -38.923  21.772   1.564  0.00  0.00    +0.000 C 
ATOM     10  C   UNL     1     -38.437  23.302  -0.241  0.00  0.00    +0.000 C 
ATOM     11  C   UNL     1     -38.667  20.692   0.718  0.00  0.00    +0.000 C 
ATOM     12  C   UNL     1     -38.181  22.223  -1.087  0.00  0.00    +0.000 C 
ATOM     13  C   UNL     1     -38.296  20.918  -0.607  0.00  0.00    +0.000 C 
ENDBRANCH   3   8
BRANCH   6  14
ATOM     14  C   UNL     1     -42.923  27.203   2.915  0.00  0.00    +0.009 C 
ATOM     15  C   UNL     1     -42.984  28.439   2.273  0.00  0.00    +0.000 C 
ATOM     16  C   UNL     1     -43.703  26.964   4.046  0.00  0.00    +0.000 C 
ATOM     17  C   UNL     1     -43.828  29.438   2.762  0.00  0.00    +0.000 C 
ATOM     18  C   UNL     1     -44.545  27.962   4.535  0.00  0.00    +0.000 C 
ATOM     19  C   UNL     1     -44.608  29.199   3.893  0.00  0.00    +0.000 C 
ENDBRANCH   6  14
BRANCH   3  22
ATOM     20  O   UNL     1     -38.187  24.538   4.171  0.00  0.00    -0.270 OA
ATOM     21  N   UNL     1     -37.057  25.492   2.393  0.00  0.00    -0.293 N 
ATOM     22  C   UNL     1     -38.078  24.748   2.964  0.00  0.00    +0.249 C 
ATOM     23  H   UNL     1     -37.042  25.613   1.415  0.00  0.00    +0.150 HD
BRANCH  21  24
ATOM     24  C   UNL     1     -36.014  26.093   3.187  0.00  0.00    +0.176 C 
BRANCH  24  26
ATOM     25  O   UNL     1     -34.849  28.207   3.298  0.00  0.00    -0.248 OA
ATOM     26  C   UNL     1     -35.683  27.508   2.733  0.00  0.00    +0.335 C 
BRANCH  26  27
ATOM     27  O   UNL     1     -36.427  27.890   1.657  0.00  0.00    -0.443 OA
ATOM     28  C   UNL     1     -36.278  29.254   1.250  0.00  0.00    +0.256 C 
ENDBRANCH  26  27
ENDBRANCH  24  26
BRANCH  24  29
ATOM     29  C   UNL     1     -34.767  25.198   3.241  0.00  0.00    +0.057 C 
BRANCH  29  30
ATOM     30  C   UNL     1     -34.959  23.890   3.976  0.00  0.00    -0.020 C 
ATOM     31  C   UNL     1     -34.884  23.856   5.368  0.00  0.00    -0.004 C 
ATOM     32  C   UNL     1     -35.210  22.720   3.262  0.00  0.00    -0.004 C 
ATOM     33  C   UNL     1     -35.061  22.649   6.047  0.00  0.00    -0.000 C 
ATOM     34  C   UNL     1     -35.387  21.514   3.939  0.00  0.00    -0.000 C 
ATOM     35  C   UNL     1     -35.312  21.478   5.333  0.00  0.00    -0.000 C 
ENDBRANCH  29  30
ENDBRANCH  24  29
ENDBRANCH  21  24
ENDBRANCH   3  22
BRANCH   5  36
ATOM     36  O   UNL     1     -40.005  26.578   3.618  0.00  0.00    -0.503 OA
ATOM     37  H   UNL     1     -40.202  27.472   3.817  0.00  0.00    +0.292 HD
ENDBRANCH   5  36
TORSDOF 9
ENDMDL
MODEL 8
REMARK VINA RESULT:      -6.5      2.773      7.592
REMARK  Name = 54679632
REMARK  9 active torsions:
REMARK  status: ('A' for Active; 'I' for Inactive)
REMARK    1  A    between atoms: C_3  and  C_8
REMARK    2  A    between atoms: C_3  and  C_22
REMARK    3  A    between atoms: C_5  and  O_36
REMARK    4  A    between atoms: C_6  and  C_14
REMARK    5  A    between atoms: N_21  and  C_24
REMARK    6  A    between atoms: C_24  and  C_26
REMARK    7  A    between atoms: C_24  and  C_29
REMARK    8  A    between atoms: C_26  and  O_27
REMARK    9  A    between atoms: C_29  and  C_30
REMARK                            x       y       z     vdW  Elec       q    Type
REMARK                         _______ _______ _______ _____ _____    ______ ____
ROOT
ATOM      1  O   UNL     1     -38.355  25.754   2.946  0.00  0.00    -0.418 OA
ATOM      2  O   UNL     1     -40.364  26.857   2.847  0.00  0.00    -0.244 OA
ATOM      3  C   UNL     1     -36.581  24.279   2.364  0.00  0.00    +0.091 C 
ATOM      4  C   UNL     1     -37.799  24.778   2.127  0.00  0.00    +0.187 C 
ATOM      5  C   UNL     1     -38.721  24.462   1.088  0.00  0.00    +0.175 C 
ATOM      6  C   UNL     1     -39.828  25.193   1.204  0.00  0.00    +0.113 C 
ATOM      7  C   UNL     1     -39.587  26.027   2.402  0.00  0.00    +0.349 C 
ENDROOT
BRANCH   3   8
ATOM      8  C   UNL     1     -35.810  24.772   3.518  0.00  0.00    +0.007 C 
ATOM      9  C   UNL     1     -35.851  24.082   4.730  0.00  0.00    +0.000 C 
ATOM     10  C   UNL     1     -35.039  25.927   3.399  0.00  0.00    +0.000 C 
ATOM     11  C   UNL     1     -35.121  24.549   5.822  0.00  0.00    +0.000 C 
ATOM     12  C   UNL     1     -34.308  26.394   4.491  0.00  0.00    +0.000 C 
ATOM     13  C   UNL     1     -34.349  25.705   5.703  0.00  0.00    +0.000 C 
ENDBRANCH   3   8
BRANCH   6  14
ATOM     14  C   UNL     1     -41.034  25.185   0.378  0.00  0.00    +0.009 C 
ATOM     15  C   UNL     1     -42.175  24.519   0.820  0.00  0.00    +0.000 C 
ATOM     16  C   UNL     1     -41.041  25.844  -0.852  0.00  0.00    +0.000 C 
ATOM     17  C   UNL     1     -43.327  24.510   0.030  0.00  0.00    +0.000 C 
ATOM     18  C   UNL     1     -42.191  25.835  -1.640  0.00  0.00    +0.000 C 
ATOM     19  C   UNL     1     -43.334  25.168  -1.199  0.00  0.00    +0.000 C 
ENDBRANCH   6  14
BRANCH   3  22
ATOM     20  O   UNL     1     -35.460  23.599   0.366  0.00  0.00    -0.270 OA
ATOM     21  N   UNL     1     -36.314  21.949   1.744  0.00  0.00    -0.293 N 
ATOM     22  C   UNL     1     -36.055  23.264   1.389  0.00  0.00    +0.249 C 
ATOM     23  H   UNL     1     -36.798  21.765   2.582  0.00  0.00    +0.150 HD
BRANCH  21  24
ATOM     24  C   UNL     1     -35.895  20.841   0.922  0.00  0.00    +0.176 C 
BRANCH  24  26
ATOM     25  O   UNL     1     -38.216  20.578   0.303  0.00  0.00    -0.248 OA
ATOM     26  C   UNL     1     -37.068  20.155   0.234  0.00  0.00    +0.335 C 
BRANCH  26  27
ATOM     27  O   UNL     1     -36.685  19.030  -0.434  0.00  0.00    -0.443 OA
ATOM     28  C   UNL     1     -37.583  17.920  -0.348  0.00  0.00    +0.256 C 
ENDBRANCH  26  27
ENDBRANCH  24  26
BRANCH  24  29
ATOM     29  C   UNL     1     -35.032  19.850   1.716  0.00  0.00    +0.057 C 
BRANCH  29  30
ATOM     30  C   UNL     1     -33.641  19.638   1.162  0.00  0.00    -0.020 C 
ATOM     31  C   UNL     1     -33.041  20.629   0.386  0.00  0.00    -0.004 C 
ATOM     32  C   UNL     1     -32.958  18.452   1.428  0.00  0.00    -0.004 C 
ATOM     33  C   UNL     1     -31.758  20.434  -0.126  0.00  0.00    -0.000 C 
ATOM     34  C   UNL     1     -31.675  18.256   0.917  0.00  0.00    -0.000 C 
ATOM     35  C   UNL     1     -31.075  19.247   0.139  0.00  0.00    -0.000 C 
ENDBRANCH  29  30
ENDBRANCH  24  29
ENDBRANCH  21  24
ENDBRANCH   3  22
BRANCH   5  36
ATOM     36  O   UNL     1     -38.477  23.510   0.140  0.00  0.00    -0.503 OA
ATOM     37  H   UNL     1     -37.663  23.046   0.141  0.00  0.00    +0.292 HD
ENDBRANCH   5  36
TORSDOF 9
ENDMDL
MODEL 9
REMARK VINA RESULT:      -6.5      4.475      7.578
REMARK  Name = 54679632
REMARK  9 active torsions:
REMARK  status: ('A' for Active; 'I' for Inactive)
REMARK    1  A    between atoms: C_3  and  C_8
REMARK    2  A    between atoms: C_3  and  C_22
REMARK    3  A    between atoms: C_5  and  O_36
REMARK    4  A    between atoms: C_6  and  C_14
REMARK    5  A    between atoms: N_21  and  C_24
REMARK    6  A    between atoms: C_24  and  C_26
REMARK    7  A    between atoms: C_24  and  C_29
REMARK    8  A    between atoms: C_26  and  O_27
REMARK    9  A    between atoms: C_29  and  C_30
REMARK                            x       y       z     vdW  Elec       q    Type
REMARK                         _______ _______ _______ _____ _____    ______ ____
ROOT
ATOM      1  O   UNL     1     -38.573  23.303   1.965  0.00  0.00    -0.418 OA
ATOM      2  O   UNL     1     -40.800  23.196   1.429  0.00  0.00    -0.244 OA
ATOM      3  C   UNL     1     -36.512  24.139   2.811  0.00  0.00    +0.091 C 
ATOM      4  C   UNL     1     -37.818  24.300   2.572  0.00  0.00    +0.187 C 
ATOM      5  C   UNL     1     -38.660  25.414   2.852  0.00  0.00    +0.175 C 
ATOM      6  C   UNL     1     -39.909  25.170   2.460  0.00  0.00    +0.113 C 
ATOM      7  C   UNL     1     -39.849  23.806   1.891  0.00  0.00    +0.349 C 
ENDROOT
BRANCH   3   8
ATOM      8  C   UNL     1     -35.856  22.878   2.423  0.00  0.00    +0.007 C 
ATOM      9  C   UNL     1     -35.218  22.777   1.187  0.00  0.00    +0.000 C 
ATOM     10  C   UNL     1     -35.874  21.788   3.291  0.00  0.00    +0.000 C 
ATOM     11  C   UNL     1     -34.596  21.583   0.820  0.00  0.00    +0.000 C 
ATOM     12  C   UNL     1     -35.252  20.594   2.925  0.00  0.00    +0.000 C 
ATOM     13  C   UNL     1     -34.614  20.492   1.688  0.00  0.00    +0.000 C 
ENDBRANCH   3   8
BRANCH   6  14
ATOM     14  C   UNL     1     -41.087  26.032   2.533  0.00  0.00    +0.009 C 
ATOM     15  C   UNL     1     -41.654  26.334   3.770  0.00  0.00    +0.000 C 
ATOM     16  C   UNL     1     -41.644  26.550   1.364  0.00  0.00    +0.000 C 
ATOM     17  C   UNL     1     -42.779  27.156   3.839  0.00  0.00    +0.000 C 
ATOM     18  C   UNL     1     -42.769  27.372   1.433  0.00  0.00    +0.000 C 
ATOM     19  C   UNL     1     -43.337  27.675   2.671  0.00  0.00    +0.000 C 
ENDBRANCH   6  14
BRANCH   3  22
ATOM     20  O   UNL     1     -35.703  25.291   4.741  0.00  0.00    -0.270 OA
ATOM     21  N   UNL     1     -35.294  26.232   2.668  0.00  0.00    -0.293 N 
ATOM     22  C   UNL     1     -35.802  25.259   3.515  0.00  0.00    +0.249 C 
ATOM     23  H   UNL     1     -35.417  26.131   1.696  0.00  0.00    +0.150 HD
BRANCH  21  24
ATOM     24  C   UNL     1     -34.593  27.388   3.168  0.00  0.00    +0.176 C 
BRANCH  24  26
ATOM     25  O   UNL     1     -35.789  28.749   1.568  0.00  0.00    -0.248 OA
ATOM     26  C   UNL     1     -35.159  28.691   2.619  0.00  0.00    +0.335 C 
BRANCH  26  27
ATOM     27  O   UNL     1     -34.866  29.756   3.417  0.00  0.00    -0.443 OA
ATOM     28  C   UNL     1     -34.962  31.042   2.798  0.00  0.00    +0.256 C 
ENDBRANCH  26  27
ENDBRANCH  24  26
BRANCH  24  29
ATOM     29  C   UNL     1     -33.081  27.271   2.930  0.00  0.00    +0.057 C 
BRANCH  29  30
ATOM     30  C   UNL     1     -32.221  27.772   4.068  0.00  0.00    -0.020 C 
ATOM     31  C   UNL     1     -30.960  28.306   3.806  0.00  0.00    -0.004 C 
ATOM     32  C   UNL     1     -32.689  27.700   5.380  0.00  0.00    -0.004 C 
ATOM     33  C   UNL     1     -30.166  28.768   4.857  0.00  0.00    -0.000 C 
ATOM     34  C   UNL     1     -31.896  28.162   6.430  0.00  0.00    -0.000 C 
ATOM     35  C   UNL     1     -30.634  28.696   6.168  0.00  0.00    -0.000 C 
ENDBRANCH  29  30
ENDBRANCH  24  29
ENDBRANCH  21  24
ENDBRANCH   3  22
BRANCH   5  36
ATOM     36  O   UNL     1     -38.201  26.569   3.419  0.00  0.00    -0.503 OA
ATOM     37  H   UNL     1     -38.236  26.681   4.349  0.00  0.00    +0.292 HD
ENDBRANCH   5  36
TORSDOF 9
ENDMDL
