MODEL 1
REMARK VINA RESULT:      -6.6      0.000      0.000
REMARK  Name = 196522
REMARK  8 active torsions:
REMARK  status: ('A' for Active; 'I' for Inactive)
REMARK    1  A    between atoms: C_3  and  O_21
REMARK    2  A    between atoms: C_3  and  C_33
REMARK    3  A    between atoms: C_4  and  C_28
REMARK    4  A    between atoms: C_6  and  O_23
REMARK    5  A    between atoms: C_10  and  O_25
REMARK    6  A    between atoms: C_17  and  O_31
REMARK    7  A    between atoms: C_28  and  O_29
REMARK    8  A    between atoms: C_33  and  C_35
REMARK                            x       y       z     vdW  Elec       q    Type
REMARK                         _______ _______ _______ _____ _____    ______ ____
ROOT
ATOM      1  O   UNL     1     -32.503  26.920   6.302  0.00  0.00    -0.287 OA
ATOM      2  O   UNL     1     -33.440  29.748   1.868  0.00  0.00    -0.286 OA
ATOM      3  C   UNL     1     -35.902  23.089   2.190  0.00  0.00    +0.112 C 
ATOM      4  C   UNL     1     -35.418  23.756   3.499  0.00  0.00    +0.146 C 
ATOM      5  C   UNL     1     -36.699  24.085   1.330  0.00  0.00    +0.062 C 
ATOM      6  C   UNL     1     -35.883  25.332   0.974  0.00  0.00    +0.138 C 
ATOM      7  C   UNL     1     -34.843  25.146   3.294  0.00  0.00    -0.008 C 
ATOM      8  C   UNL     1     -35.091  25.892   2.129  0.00  0.00    +0.035 C 
ATOM      9  C   UNL     1     -34.062  25.712   4.319  0.00  0.00    -0.000 C 
ATOM     10  C   UNL     1     -34.553  27.186   2.011  0.00  0.00    +0.135 C 
ATOM     11  C   UNL     1     -33.533  27.002   4.191  0.00  0.00    +0.045 C 
ATOM     12  C   UNL     1     -33.779  27.738   3.037  0.00  0.00    +0.076 C 
ATOM     13  C   UNL     1     -32.717  27.568   5.285  0.00  0.00    +0.196 C 
ATOM     14  C   UNL     1     -33.225  29.101   2.885  0.00  0.00    +0.202 C 
ATOM     15  C   UNL     1     -32.409  29.669   3.976  0.00  0.00    +0.076 C 
ATOM     16  C   UNL     1     -32.163  28.929   5.134  0.00  0.00    +0.045 C 
ATOM     17  C   UNL     1     -31.878  30.957   3.844  0.00  0.00    +0.137 C 
ATOM     18  C   UNL     1     -31.386  29.478   6.162  0.00  0.00    +0.003 C 
ATOM     19  C   UNL     1     -31.103  31.500   4.870  0.00  0.00    +0.037 C 
ATOM     20  C   UNL     1     -30.859  30.763   6.027  0.00  0.00    +0.003 C 
ENDROOT
BRANCH   3  21
ATOM     21  O   UNL     1     -34.731  22.666   1.474  0.00  0.00    -0.385 OA
ATOM     22  H   UNL     1     -34.443  23.374   0.879  0.00  0.00    +0.210 HD
ENDBRANCH   3  21
BRANCH   6  23
ATOM     23  O   UNL     1     -34.965  25.028  -0.076  0.00  0.00    -0.380 OA
ATOM     24  H   UNL     1     -34.698  25.848  -0.519  0.00  0.00    +0.211 HD
ENDBRANCH   6  23
BRANCH  10  25
ATOM     25  O   UNL     1     -34.803  27.883   0.860  0.00  0.00    -0.506 OA
ATOM     26  H   UNL     1     -34.169  27.892   0.171  0.00  0.00    +0.292 HD
ENDBRANCH  10  25
BRANCH   4  28
ATOM     27  O   UNL     1     -37.438  24.632   4.490  0.00  0.00    -0.250 OA
ATOM     28  C   UNL     1     -36.516  23.828   4.526  0.00  0.00    +0.323 C 
BRANCH  28  29
ATOM     29  O   UNL     1     -36.312  22.873   5.478  0.00  0.00    -0.444 OA
ATOM     30  C   UNL     1     -34.947  22.508   5.700  0.00  0.00    +0.256 C 
ENDBRANCH  28  29
ENDBRANCH   4  28
BRANCH  17  31
ATOM     31  O   UNL     1     -32.076  31.734   2.741  0.00  0.00    -0.505 OA
ATOM     32  H   UNL     1     -32.506  31.378   1.989  0.00  0.00    +0.292 HD
ENDBRANCH  17  31
BRANCH   3  33
ATOM     33  C   UNL     1     -36.728  21.820   2.445  0.00  0.00    +0.092 C 
BRANCH  33  35
ATOM     34  O   UNL     1     -34.976  20.250   3.000  0.00  0.00    -0.296 OA
ATOM     35  C   UNL     1     -35.908  20.564   2.262  0.00  0.00    +0.153 C 
ATOM     36  C   UNL     1     -36.305  19.694   1.098  0.00  0.00    +0.072 C 
ENDBRANCH  33  35
ENDBRANCH   3  33
TORSDOF 8
ENDMDL
MODEL 2
REMARK VINA RESULT:      -6.4      1.628      8.418
REMARK  Name = 196522
REMARK  8 active torsions:
REMARK  status: ('A' for Active; 'I' for Inactive)
REMARK    1  A    between atoms: C_3  and  O_21
REMARK    2  A    between atoms: C_3  and  C_33
REMARK    3  A    between atoms: C_4  and  C_28
REMARK    4  A    between atoms: C_6  and  O_23
REMARK    5  A    between atoms: C_10  and  O_25
REMARK    6  A    between atoms: C_17  and  O_31
REMARK    7  A    between atoms: C_28  and  O_29
REMARK    8  A    between atoms: C_33  and  C_35
REMARK                            x       y       z     vdW  Elec       q    Type
REMARK                         _______ _______ _______ _____ _____    ______ ____
ROOT
ATOM      1  O   UNL     1     -34.665  26.255   0.814  0.00  0.00    -0.287 OA
ATOM      2  O   UNL     1     -34.807  24.112   5.705  0.00  0.00    -0.286 OA
ATOM      3  C   UNL     1     -31.088  30.094   4.763  0.00  0.00    +0.112 C 
ATOM      4  C   UNL     1     -32.069  29.658   3.650  0.00  0.00    +0.146 C 
ATOM      5  C   UNL     1     -31.704  29.869   6.155  0.00  0.00    +0.062 C 
ATOM      6  C   UNL     1     -32.095  28.407   6.390  0.00  0.00    +0.138 C 
ATOM      7  C   UNL     1     -32.746  28.328   3.927  0.00  0.00    -0.008 C 
ATOM      8  C   UNL     1     -32.787  27.764   5.214  0.00  0.00    +0.035 C 
ATOM      9  C   UNL     1     -33.379  27.657   2.863  0.00  0.00    -0.000 C 
ATOM     10  C   UNL     1     -33.455  26.543   5.411  0.00  0.00    +0.135 C 
ATOM     11  C   UNL     1     -34.043  26.443   3.072  0.00  0.00    +0.045 C 
ATOM     12  C   UNL     1     -34.081  25.886   4.346  0.00  0.00    +0.076 C 
ATOM     13  C   UNL     1     -34.697  25.763   1.935  0.00  0.00    +0.196 C 
ATOM     14  C   UNL     1     -34.776  24.603   4.584  0.00  0.00    +0.202 C 
ATOM     15  C   UNL     1     -35.429  23.921   3.449  0.00  0.00    +0.076 C 
ATOM     16  C   UNL     1     -35.391  24.480   2.170  0.00  0.00    +0.045 C 
ATOM     17  C   UNL     1     -36.089  22.705   3.660  0.00  0.00    +0.137 C 
ATOM     18  C   UNL     1     -36.013  23.824   1.101  0.00  0.00    +0.003 C 
ATOM     19  C   UNL     1     -36.708  22.053   2.592  0.00  0.00    +0.037 C 
ATOM     20  C   UNL     1     -36.671  22.612   1.315  0.00  0.00    +0.003 C 
ENDROOT
BRANCH   3  21
ATOM     21  O   UNL     1     -29.907  29.289   4.624  0.00  0.00    -0.385 OA
ATOM     22  H   UNL     1     -29.603  29.317   3.705  0.00  0.00    +0.210 HD
ENDBRANCH   3  21
BRANCH   6  23
ATOM     23  O   UNL     1     -30.932  27.634   6.685  0.00  0.00    -0.380 OA
ATOM     24  H   UNL     1     -30.383  28.109   7.330  0.00  0.00    +0.211 HD
ENDBRANCH   6  23
BRANCH  10  25
ATOM     25  O   UNL     1     -33.468  26.015   6.674  0.00  0.00    -0.506 OA
ATOM     26  H   UNL     1     -33.708  26.550   7.403  0.00  0.00    +0.292 HD
ENDBRANCH  10  25
BRANCH   4  28
ATOM     27  O   UNL     1     -34.082  30.899   4.131  0.00  0.00    -0.250 OA
ATOM     28  C   UNL     1     -33.124  30.701   3.397  0.00  0.00    +0.323 C 
BRANCH  28  29
ATOM     29  O   UNL     1     -32.838  31.367   2.242  0.00  0.00    -0.444 OA
ATOM     30  C   UNL     1     -33.298  32.721   2.183  0.00  0.00    +0.256 C 
ENDBRANCH  28  29
ENDBRANCH   4  28
BRANCH  17  31
ATOM     31  O   UNL     1     -36.164  22.100   4.880  0.00  0.00    -0.505 OA
ATOM     32  H   UNL     1     -35.957  21.191   4.965  0.00  0.00    +0.292 HD
ENDBRANCH  17  31
BRANCH   3  33
ATOM     33  C   UNL     1     -30.630  31.551   4.608  0.00  0.00    +0.092 C 
BRANCH  33  35
ATOM     34  O   UNL     1     -28.975  31.273   2.869  0.00  0.00    -0.296 OA
ATOM     35  C   UNL     1     -29.248  31.651   4.007  0.00  0.00    +0.153 C 
ATOM     36  C   UNL     1     -28.195  32.254   4.898  0.00  0.00    +0.072 C 
ENDBRANCH  33  35
ENDBRANCH   3  33
TORSDOF 8
ENDMDL
MODEL 3
REMARK VINA RESULT:      -6.3      1.429      1.524
REMARK  Name = 196522
REMARK  8 active torsions:
REMARK  status: ('A' for Active; 'I' for Inactive)
REMARK    1  A    between atoms: C_3  and  O_21
REMARK    2  A    between atoms: C_3  and  C_33
REMARK    3  A    between atoms: C_4  and  C_28
REMARK    4  A    between atoms: C_6  and  O_23
REMARK    5  A    between atoms: C_10  and  O_25
REMARK    6  A    between atoms: C_17  and  O_31
REMARK    7  A    between atoms: C_28  and  O_29
REMARK    8  A    between atoms: C_33  and  C_35
REMARK                            x       y       z     vdW  Elec       q    Type
REMARK                         _______ _______ _______ _____ _____    ______ ____
ROOT
ATOM      1  O   UNL     1     -31.510  27.459   4.672  0.00  0.00    -0.287 OA
ATOM      2  O   UNL     1     -34.960  30.686   2.179  0.00  0.00    -0.286 OA
ATOM      3  C   UNL     1     -36.455  23.744   2.464  0.00  0.00    +0.112 C 
ATOM      4  C   UNL     1     -35.343  24.293   3.387  0.00  0.00    +0.146 C 
ATOM      5  C   UNL     1     -37.650  24.712   2.412  0.00  0.00    +0.062 C 
ATOM      6  C   UNL     1     -37.249  26.107   1.922  0.00  0.00    +0.138 C 
ATOM      7  C   UNL     1     -35.059  25.770   3.182  0.00  0.00    -0.008 C 
ATOM      8  C   UNL     1     -35.968  26.621   2.529  0.00  0.00    +0.035 C 
ATOM      9  C   UNL     1     -33.861  26.305   3.692  0.00  0.00    -0.000 C 
ATOM     10  C   UNL     1     -35.660  27.987   2.396  0.00  0.00    +0.135 C 
ATOM     11  C   UNL     1     -33.566  27.667   3.555  0.00  0.00    +0.045 C 
ATOM     12  C   UNL     1     -34.466  28.507   2.907  0.00  0.00    +0.076 C 
ATOM     13  C   UNL     1     -32.300  28.198   4.100  0.00  0.00    +0.196 C 
ATOM     14  C   UNL     1     -34.169  29.947   2.751  0.00  0.00    +0.202 C 
ATOM     15  C   UNL     1     -32.904  30.481   3.294  0.00  0.00    +0.076 C 
ATOM     16  C   UNL     1     -32.002  29.637   3.945  0.00  0.00    +0.045 C 
ATOM     17  C   UNL     1     -32.610  31.842   3.153  0.00  0.00    +0.137 C 
ATOM     18  C   UNL     1     -30.804  30.154   4.455  0.00  0.00    +0.003 C 
ATOM     19  C   UNL     1     -31.415  32.353   3.662  0.00  0.00    +0.037 C 
ATOM     20  C   UNL     1     -30.515  31.512   4.313  0.00  0.00    +0.003 C 
ENDROOT
BRANCH   3  21
ATOM     21  O   UNL     1     -35.887  23.610   1.152  0.00  0.00    -0.385 OA
ATOM     22  H   UNL     1     -35.602  24.480   0.833  0.00  0.00    +0.210 HD
ENDBRANCH   3  21
BRANCH   6  23
ATOM     23  O   UNL     1     -37.085  26.097   0.504  0.00  0.00    -0.380 OA
ATOM     24  H   UNL     1     -37.282  26.978   0.149  0.00  0.00    +0.211 HD
ENDBRANCH   6  23
BRANCH  10  25
ATOM     25  O   UNL     1     -36.559  28.787   1.745  0.00  0.00    -0.506 OA
ATOM     26  H   UNL     1     -37.478  28.636   1.845  0.00  0.00    +0.292 HD
ENDBRANCH  10  25
BRANCH   4  28
ATOM     27  O   UNL     1     -36.550  24.618   5.452  0.00  0.00    -0.250 OA
ATOM     28  C   UNL     1     -35.655  24.052   4.840  0.00  0.00    +0.323 C 
BRANCH  28  29
ATOM     29  O   UNL     1     -34.793  23.122   5.343  0.00  0.00    -0.444 OA
ATOM     30  C   UNL     1     -35.366  22.185   6.259  0.00  0.00    +0.256 C 
ENDBRANCH  28  29
ENDBRANCH   4  28
BRANCH  17  31
ATOM     31  O   UNL     1     -33.443  32.722   2.528  0.00  0.00    -0.505 OA
ATOM     32  H   UNL     1     -33.173  33.609   2.396  0.00  0.00    +0.292 HD
ENDBRANCH  17  31
BRANCH   3  33
ATOM     33  C   UNL     1     -36.921  22.340   2.872  0.00  0.00    +0.092 C 
BRANCH  33  35
ATOM     34  O   UNL     1     -36.766  20.960   0.893  0.00  0.00    -0.296 OA
ATOM     35  C   UNL     1     -36.318  21.266   1.997  0.00  0.00    +0.153 C 
ATOM     36  C   UNL     1     -35.108  20.570   2.563  0.00  0.00    +0.072 C 
ENDBRANCH  33  35
ENDBRANCH   3  33
TORSDOF 8
ENDMDL
MODEL 4
REMARK VINA RESULT:      -6.1      1.561      3.847
REMARK  Name = 196522
REMARK  8 active torsions:
REMARK  status: ('A' for Active; 'I' for Inactive)
REMARK    1  A    between atoms: C_3  and  O_21
REMARK    2  A    between atoms: C_3  and  C_33
REMARK    3  A    between atoms: C_4  and  C_28
REMARK    4  A    between atoms: C_6  and  O_23
REMARK    5  A    between atoms: C_10  and  O_25
REMARK    6  A    between atoms: C_17  and  O_31
REMARK    7  A    between atoms: C_28  and  O_29
REMARK    8  A    between atoms: C_33  and  C_35
REMARK                            x       y       z     vdW  Elec       q    Type
REMARK                         _______ _______ _______ _____ _____    ______ ____
ROOT
ATOM      1  O   UNL     1     -34.346  29.026   1.843  0.00  0.00    -0.287 OA
ATOM      2  O   UNL     1     -32.470  26.926   6.382  0.00  0.00    -0.286 OA
ATOM      3  C   UNL     1     -37.065  23.090   2.552  0.00  0.00    +0.112 C 
ATOM      4  C   UNL     1     -36.411  24.325   1.890  0.00  0.00    +0.146 C 
ATOM      5  C   UNL     1     -36.039  22.311   3.392  0.00  0.00    +0.062 C 
ATOM      6  C   UNL     1     -35.404  23.176   4.485  0.00  0.00    +0.138 C 
ATOM      7  C   UNL     1     -35.511  25.109   2.827  0.00  0.00    -0.008 C 
ATOM      8  C   UNL     1     -35.013  24.556   4.020  0.00  0.00    +0.035 C 
ATOM      9  C   UNL     1     -35.139  26.419   2.470  0.00  0.00    -0.000 C 
ATOM     10  C   UNL     1     -34.160  25.324   4.833  0.00  0.00    +0.135 C 
ATOM     11  C   UNL     1     -34.287  27.173   3.286  0.00  0.00    +0.045 C 
ATOM     12  C   UNL     1     -33.798  26.625   4.467  0.00  0.00    +0.076 C 
ATOM     13  C   UNL     1     -33.916  28.545   2.883  0.00  0.00    +0.196 C 
ATOM     14  C   UNL     1     -32.899  27.408   5.341  0.00  0.00    +0.202 C 
ATOM     15  C   UNL     1     -32.528  28.780   4.943  0.00  0.00    +0.076 C 
ATOM     16  C   UNL     1     -33.019  29.329   3.756  0.00  0.00    +0.045 C 
ATOM     17  C   UNL     1     -31.678  29.533   5.762  0.00  0.00    +0.137 C 
ATOM     18  C   UNL     1     -32.661  30.632   3.389  0.00  0.00    +0.003 C 
ATOM     19  C   UNL     1     -31.325  30.831   5.393  0.00  0.00    +0.037 C 
ATOM     20  C   UNL     1     -31.814  31.379   4.208  0.00  0.00    +0.003 C 
ENDROOT
BRANCH   3  21
ATOM     21  O   UNL     1     -38.116  23.574   3.403  0.00  0.00    -0.385 OA
ATOM     22  H   UNL     1     -38.966  23.220   3.101  0.00  0.00    +0.210 HD
ENDBRANCH   3  21
BRANCH   6  23
ATOM     23  O   UNL     1     -36.312  23.324   5.576  0.00  0.00    -0.380 OA
ATOM     24  H   UNL     1     -37.113  22.804   5.403  0.00  0.00    +0.211 HD
ENDBRANCH   6  23
BRANCH  10  25
ATOM     25  O   UNL     1     -33.702  24.762   5.994  0.00  0.00    -0.506 OA
ATOM     26  H   UNL     1     -33.593  23.834   6.054  0.00  0.00    +0.292 HD
ENDBRANCH  10  25
BRANCH   4  28
ATOM     27  O   UNL     1     -34.495  23.488   0.684  0.00  0.00    -0.250 OA
ATOM     28  C   UNL     1     -35.628  23.949   0.660  0.00  0.00    +0.323 C 
BRANCH  28  29
ATOM     29  O   UNL     1     -36.375  24.204  -0.451  0.00  0.00    -0.444 OA
ATOM     30  C   UNL     1     -36.872  25.542  -0.564  0.00  0.00    +0.256 C 
ENDBRANCH  28  29
ENDBRANCH   4  28
BRANCH  17  31
ATOM     31  O   UNL     1     -31.164  29.061   6.933  0.00  0.00    -0.505 OA
ATOM     32  H   UNL     1     -31.533  29.334   7.750  0.00  0.00    +0.292 HD
ENDBRANCH  17  31
BRANCH   3  33
ATOM     33  C   UNL     1     -37.738  22.162   1.531  0.00  0.00    +0.092 C 
BRANCH  33  35
ATOM     34  O   UNL     1     -40.020  21.813   2.250  0.00  0.00    -0.296 OA
ATOM     35  C   UNL     1     -39.235  22.364   1.480  0.00  0.00    +0.153 C 
ATOM     36  C   UNL     1     -39.727  23.301   0.408  0.00  0.00    +0.072 C 
ENDBRANCH  33  35
ENDBRANCH   3  33
TORSDOF 8
ENDMDL
MODEL 5
REMARK VINA RESULT:      -6.1      3.268      5.447
REMARK  Name = 196522
REMARK  8 active torsions:
REMARK  status: ('A' for Active; 'I' for Inactive)
REMARK    1  A    between atoms: C_3  and  O_21
REMARK    2  A    between atoms: C_3  and  C_33
REMARK    3  A    between atoms: C_4  and  C_28
REMARK    4  A    between atoms: C_6  and  O_23
REMARK    5  A    between atoms: C_10  and  O_25
REMARK    6  A    between atoms: C_17  and  O_31
REMARK    7  A    between atoms: C_28  and  O_29
REMARK    8  A    between atoms: C_33  and  C_35
REMARK                            x       y       z     vdW  Elec       q    Type
REMARK                         _______ _______ _______ _____ _____    ______ ____
ROOT
ATOM      1  O   UNL     1     -37.577  31.335   0.927  0.00  0.00    -0.287 OA
ATOM      2  O   UNL     1     -32.784  32.987   2.610  0.00  0.00    -0.286 OA
ATOM      3  C   UNL     1     -34.604  26.216   3.771  0.00  0.00    +0.112 C 
ATOM      4  C   UNL     1     -35.451  27.043   2.776  0.00  0.00    +0.146 C 
ATOM      5  C   UNL     1     -33.105  26.513   3.593  0.00  0.00    +0.062 C 
ATOM      6  C   UNL     1     -32.778  27.998   3.784  0.00  0.00    +0.138 C 
ATOM      7  C   UNL     1     -35.016  28.493   2.669  0.00  0.00    -0.008 C 
ATOM      8  C   UNL     1     -33.754  28.928   3.108  0.00  0.00    +0.035 C 
ATOM      9  C   UNL     1     -35.897  29.421   2.082  0.00  0.00    -0.000 C 
ATOM     10  C   UNL     1     -33.399  30.280   2.956  0.00  0.00    +0.135 C 
ATOM     11  C   UNL     1     -35.532  30.764   1.934  0.00  0.00    +0.045 C 
ATOM     12  C   UNL     1     -34.283  31.194   2.370  0.00  0.00    +0.076 C 
ATOM     13  C   UNL     1     -36.479  31.714   1.314  0.00  0.00    +0.196 C 
ATOM     14  C   UNL     1     -33.882  32.609   2.224  0.00  0.00    +0.202 C 
ATOM     15  C   UNL     1     -34.827  33.561   1.606  0.00  0.00    +0.076 C 
ATOM     16  C   UNL     1     -36.080  33.129   1.167  0.00  0.00    +0.045 C 
ATOM     17  C   UNL     1     -34.461  34.904   1.462  0.00  0.00    +0.137 C 
ATOM     18  C   UNL     1     -36.969  34.041   0.583  0.00  0.00    +0.003 C 
ATOM     19  C   UNL     1     -35.349  35.810   0.881  0.00  0.00    +0.037 C 
ATOM     20  C   UNL     1     -36.600  35.379   0.441  0.00  0.00    +0.003 C 
ENDROOT
BRANCH   3  21
ATOM     21  O   UNL     1     -35.016  26.597   5.093  0.00  0.00    -0.385 OA
ATOM     22  H   UNL     1     -35.082  25.807   5.651  0.00  0.00    +0.210 HD
ENDBRANCH   3  21
BRANCH   6  23
ATOM     23  O   UNL     1     -32.764  28.317   5.175  0.00  0.00    -0.380 OA
ATOM     24  H   UNL     1     -32.843  29.278   5.287  0.00  0.00    +0.211 HD
ENDBRANCH   6  23
BRANCH  10  25
ATOM     25  O   UNL     1     -32.168  30.675   3.404  0.00  0.00    -0.506 OA
ATOM     26  H   UNL     1     -31.859  30.387   4.240  0.00  0.00    +0.292 HD
ENDBRANCH  10  25
BRANCH   4  28
ATOM     27  O   UNL     1     -34.524  26.525   0.608  0.00  0.00    -0.250 OA
ATOM     28  C   UNL     1     -35.450  26.429   1.401  0.00  0.00    +0.323 C 
BRANCH  28  29
ATOM     29  O   UNL     1     -36.626  25.769   1.196  0.00  0.00    -0.444 OA
ATOM     30  C   UNL     1     -37.780  26.371   1.790  0.00  0.00    +0.256 C 
ENDBRANCH  28  29
ENDBRANCH   4  28
BRANCH  17  31
ATOM     31  O   UNL     1     -33.256  35.395   1.869  0.00  0.00    -0.505 OA
ATOM     32  H   UNL     1     -32.678  35.792   1.249  0.00  0.00    +0.292 HD
ENDBRANCH  17  31
BRANCH   3  33
ATOM     33  C   UNL     1     -34.868  24.708   3.660  0.00  0.00    +0.092 C 
BRANCH  33  35
ATOM     34  O   UNL     1     -37.043  24.613   4.712  0.00  0.00    -0.296 OA
ATOM     35  C   UNL     1     -35.874  24.232   4.682  0.00  0.00    +0.153 C 
ATOM     36  C   UNL     1     -35.355  23.240   5.690  0.00  0.00    +0.072 C 
ENDBRANCH  33  35
ENDBRANCH   3  33
TORSDOF 8
ENDMDL
MODEL 6
REMARK VINA RESULT:      -6.0      2.175      4.625
REMARK  Name = 196522
REMARK  8 active torsions:
REMARK  status: ('A' for Active; 'I' for Inactive)
REMARK    1  A    between atoms: C_3  and  O_21
REMARK    2  A    between atoms: C_3  and  C_33
REMARK    3  A    between atoms: C_4  and  C_28
REMARK    4  A    between atoms: C_6  and  O_23
REMARK    5  A    between atoms: C_10  and  O_25
REMARK    6  A    between atoms: C_17  and  O_31
REMARK    7  A    between atoms: C_28  and  O_29
REMARK    8  A    between atoms: C_33  and  C_35
REMARK                            x       y       z     vdW  Elec       q    Type
REMARK                         _______ _______ _______ _____ _____    ______ ____
ROOT
ATOM      1  O   UNL     1     -33.232  30.376   2.178  0.00  0.00    -0.287 OA
ATOM      2  O   UNL     1     -32.110  27.053   6.207  0.00  0.00    -0.286 OA
ATOM      3  C   UNL     1     -37.899  25.757   2.294  0.00  0.00    +0.112 C 
ATOM      4  C   UNL     1     -36.861  26.768   1.755  0.00  0.00    +0.146 C 
ATOM      5  C   UNL     1     -37.200  24.541   2.927  0.00  0.00    +0.062 C 
ATOM      6  C   UNL     1     -36.262  24.939   4.071  0.00  0.00    +0.138 C 
ATOM      7  C   UNL     1     -35.709  27.022   2.710  0.00  0.00    -0.008 C 
ATOM      8  C   UNL     1     -35.411  26.147   3.769  0.00  0.00    +0.035 C 
ATOM      9  C   UNL     1     -34.899  28.155   2.506  0.00  0.00    -0.000 C 
ATOM     10  C   UNL     1     -34.313  26.422   4.603  0.00  0.00    +0.135 C 
ATOM     11  C   UNL     1     -33.807  28.418   3.342  0.00  0.00    +0.045 C 
ATOM     12  C   UNL     1     -33.514  27.551   4.390  0.00  0.00    +0.076 C 
ATOM     13  C   UNL     1     -32.975  29.615   3.102  0.00  0.00    +0.196 C 
ATOM     14  C   UNL     1     -32.367  27.815   5.283  0.00  0.00    +0.202 C 
ATOM     15  C   UNL     1     -31.534  29.011   5.047  0.00  0.00    +0.076 C 
ATOM     16  C   UNL     1     -31.828  29.881   3.994  0.00  0.00    +0.045 C 
ATOM     17  C   UNL     1     -30.445  29.274   5.886  0.00  0.00    +0.137 C 
ATOM     18  C   UNL     1     -31.033  31.013   3.780  0.00  0.00    +0.003 C 
ATOM     19  C   UNL     1     -29.655  30.404   5.670  0.00  0.00    +0.037 C 
ATOM     20  C   UNL     1     -29.947  31.271   4.619  0.00  0.00    +0.003 C 
ENDROOT
BRANCH   3  21
ATOM     21  O   UNL     1     -38.675  26.439   3.290  0.00  0.00    -0.385 OA
ATOM     22  H   UNL     1     -38.610  27.396   3.151  0.00  0.00    +0.210 HD
ENDBRANCH   3  21
BRANCH   6  23
ATOM     23  O   UNL     1     -37.021  25.224   5.246  0.00  0.00    -0.380 OA
ATOM     24  H   UNL     1     -37.268  24.392   5.681  0.00  0.00    +0.211 HD
ENDBRANCH   6  23
BRANCH  10  25
ATOM     25  O   UNL     1     -34.056  25.557   5.632  0.00  0.00    -0.506 OA
ATOM     26  H   UNL     1     -34.709  24.944   5.903  0.00  0.00    +0.292 HD
ENDBRANCH  10  25
BRANCH   4  28
ATOM     27  O   UNL     1     -35.515  25.419   0.273  0.00  0.00    -0.250 OA
ATOM     28  C   UNL     1     -36.306  26.340   0.422  0.00  0.00    +0.323 C 
BRANCH  28  29
ATOM     29  O   UNL     1     -36.819  27.134  -0.561  0.00  0.00    -0.444 OA
ATOM     30  C   UNL     1     -35.917  28.105  -1.100  0.00  0.00    +0.256 C 
ENDBRANCH  28  29
ENDBRANCH   4  28
BRANCH  17  31
ATOM     31  O   UNL     1     -30.102  28.470   6.933  0.00  0.00    -0.505 OA
ATOM     32  H   UNL     1     -29.277  28.027   6.932  0.00  0.00    +0.292 HD
ENDBRANCH  17  31
BRANCH   3  33
ATOM     33  C   UNL     1     -38.894  25.302   1.216  0.00  0.00    +0.092 C 
BRANCH  33  35
ATOM     34  O   UNL     1     -40.137  27.373   1.121  0.00  0.00    -0.296 OA
ATOM     35  C   UNL     1     -40.147  26.146   1.209  0.00  0.00    +0.153 C 
ATOM     36  C   UNL     1     -41.442  25.386   1.318  0.00  0.00    +0.072 C 
ENDBRANCH  33  35
ENDBRANCH   3  33
TORSDOF 8
ENDMDL
MODEL 7
REMARK VINA RESULT:      -6.0      2.539      8.516
REMARK  Name = 196522
REMARK  8 active torsions:
REMARK  status: ('A' for Active; 'I' for Inactive)
REMARK    1  A    between atoms: C_3  and  O_21
REMARK    2  A    between atoms: C_3  and  C_33
REMARK    3  A    between atoms: C_4  and  C_28
REMARK    4  A    between atoms: C_6  and  O_23
REMARK    5  A    between atoms: C_10  and  O_25
REMARK    6  A    between atoms: C_17  and  O_31
REMARK    7  A    between atoms: C_28  and  O_29
REMARK    8  A    between atoms: C_33  and  C_35
REMARK                            x       y       z     vdW  Elec       q    Type
REMARK                         _______ _______ _______ _____ _____    ______ ____
ROOT
ATOM      1  O   UNL     1     -33.693  23.217  -1.510  0.00  0.00    -0.287 OA
ATOM      2  O   UNL     1     -36.144  19.116   0.881  0.00  0.00    -0.286 OA
ATOM      3  C   UNL     1     -34.637  24.865   4.777  0.00  0.00    +0.112 C 
ATOM      4  C   UNL     1     -34.545  24.978   3.238  0.00  0.00    +0.146 C 
ATOM      5  C   UNL     1     -35.871  24.047   5.193  0.00  0.00    +0.062 C 
ATOM      6  C   UNL     1     -35.863  22.636   4.596  0.00  0.00    +0.138 C 
ATOM      7  C   UNL     1     -34.811  23.669   2.517  0.00  0.00    -0.008 C 
ATOM      8  C   UNL     1     -35.459  22.591   3.144  0.00  0.00    +0.035 C 
ATOM      9  C   UNL     1     -34.424  23.549   1.169  0.00  0.00    -0.000 C 
ATOM     10  C   UNL     1     -35.703  21.414   2.414  0.00  0.00    +0.135 C 
ATOM     11  C   UNL     1     -34.673  22.373   0.452  0.00  0.00    +0.045 C 
ATOM     12  C   UNL     1     -35.313  21.306   1.074  0.00  0.00    +0.076 C 
ATOM     13  C   UNL     1     -34.255  22.277  -0.961  0.00  0.00    +0.196 C 
ATOM     14  C   UNL     1     -35.583  20.056   0.332  0.00  0.00    +0.202 C 
ATOM     15  C   UNL     1     -35.164  19.957  -1.080  0.00  0.00    +0.076 C 
ATOM     16  C   UNL     1     -34.522  21.028  -1.705  0.00  0.00    +0.045 C 
ATOM     17  C   UNL     1     -35.412  18.779  -1.794  0.00  0.00    +0.137 C 
ATOM     18  C   UNL     1     -34.128  20.923  -3.044  0.00  0.00    +0.003 C 
ATOM     19  C   UNL     1     -35.017  18.677  -3.129  0.00  0.00    +0.037 C 
ATOM     20  C   UNL     1     -34.378  19.747  -3.753  0.00  0.00    +0.003 C 
ENDROOT
BRANCH   3  21
ATOM     21  O   UNL     1     -33.445  24.199   5.224  0.00  0.00    -0.385 OA
ATOM     22  H   UNL     1     -33.625  23.742   6.059  0.00  0.00    +0.210 HD
ENDBRANCH   3  21
BRANCH   6  23
ATOM     23  O   UNL     1     -34.960  21.805   5.325  0.00  0.00    -0.380 OA
ATOM     24  H   UNL     1     -35.250  21.745   6.249  0.00  0.00    +0.211 HD
ENDBRANCH   6  23
BRANCH  10  25
ATOM     25  O   UNL     1     -36.325  20.378   3.056  0.00  0.00    -0.506 OA
ATOM     26  H   UNL     1     -35.985  19.508   2.981  0.00  0.00    +0.292 HD
ENDBRANCH  10  25
BRANCH   4  28
ATOM     27  O   UNL     1     -36.696  25.963   2.759  0.00  0.00    -0.250 OA
ATOM     28  C   UNL     1     -35.476  26.032   2.700  0.00  0.00    +0.323 C 
BRANCH  28  29
ATOM     29  O   UNL     1     -34.748  27.045   2.150  0.00  0.00    -0.444 OA
ATOM     30  C   UNL     1     -35.294  28.357   2.321  0.00  0.00    +0.256 C 
ENDBRANCH  28  29
ENDBRANCH   4  28
BRANCH  17  31
ATOM     31  O   UNL     1     -36.031  17.694  -1.248  0.00  0.00    -0.505 OA
ATOM     32  H   UNL     1     -35.784  16.830  -1.514  0.00  0.00    +0.292 HD
ENDBRANCH  17  31
BRANCH   3  33
ATOM     33  C   UNL     1     -34.644  26.235   5.470  0.00  0.00    +0.092 C 
BRANCH  33  35
ATOM     34  O   UNL     1     -32.534  27.055   4.623  0.00  0.00    -0.296 OA
ATOM     35  C   UNL     1     -33.255  26.818   5.590  0.00  0.00    +0.153 C 
ATOM     36  C   UNL     1     -32.789  27.099   6.994  0.00  0.00    +0.072 C 
ENDBRANCH  33  35
ENDBRANCH   3  33
TORSDOF 8
ENDMDL
MODEL 8
REMARK VINA RESULT:      -5.9      3.683      9.723
REMARK  Name = 196522
REMARK  8 active torsions:
REMARK  status: ('A' for Active; 'I' for Inactive)
REMARK    1  A    between atoms: C_3  and  O_21
REMARK    2  A    between atoms: C_3  and  C_33
REMARK    3  A    between atoms: C_4  and  C_28
REMARK    4  A    between atoms: C_6  and  O_23
REMARK    5  A    between atoms: C_10  and  O_25
REMARK    6  A    between atoms: C_17  and  O_31
REMARK    7  A    between atoms: C_28  and  O_29
REMARK    8  A    between atoms: C_33  and  C_35
REMARK                            x       y       z     vdW  Elec       q    Type
REMARK                         _______ _______ _______ _____ _____    ______ ____
ROOT
ATOM      1  O   UNL     1     -32.116  18.875   0.955  0.00  0.00    -0.287 OA
ATOM      2  O   UNL     1     -36.831  16.915  -0.612  0.00  0.00    -0.286 OA
ATOM      3  C   UNL     1     -36.715  23.299   2.508  0.00  0.00    +0.112 C 
ATOM      4  C   UNL     1     -35.376  22.696   2.023  0.00  0.00    +0.146 C 
ATOM      5  C   UNL     1     -37.833  23.047   1.482  0.00  0.00    +0.062 C 
ATOM      6  C   UNL     1     -38.039  21.555   1.201  0.00  0.00    +0.138 C 
ATOM      7  C   UNL     1     -35.515  21.299   1.446  0.00  0.00    -0.008 C 
ATOM      8  C   UNL     1     -36.755  20.783   1.030  0.00  0.00    +0.035 C 
ATOM      9  C   UNL     1     -34.358  20.511   1.296  0.00  0.00    -0.000 C 
ATOM     10  C   UNL     1     -36.814  19.492   0.476  0.00  0.00    +0.135 C 
ATOM     11  C   UNL     1     -34.429  19.228   0.741  0.00  0.00    +0.045 C 
ATOM     12  C   UNL     1     -35.657  18.719   0.331  0.00  0.00    +0.076 C 
ATOM     13  C   UNL     1     -33.197  18.426   0.596  0.00  0.00    +0.196 C 
ATOM     14  C   UNL     1     -35.750  17.365  -0.254  0.00  0.00    +0.202 C 
ATOM     15  C   UNL     1     -34.521  16.560  -0.398  0.00  0.00    +0.076 C 
ATOM     16  C   UNL     1     -33.288  17.072   0.012  0.00  0.00    +0.045 C 
ATOM     17  C   UNL     1     -34.595  15.276  -0.950  0.00  0.00    +0.137 C 
ATOM     18  C   UNL     1     -32.128  16.300  -0.128  0.00  0.00    +0.003 C 
ATOM     19  C   UNL     1     -33.437  14.508  -1.087  0.00  0.00    +0.037 C 
ATOM     20  C   UNL     1     -32.206  15.020  -0.679  0.00  0.00    +0.003 C 
ENDROOT
BRANCH   3  21
ATOM     21  O   UNL     1     -37.045  22.654   3.748  0.00  0.00    -0.385 OA
ATOM     22  H   UNL     1     -36.836  21.709   3.686  0.00  0.00    +0.210 HD
ENDBRANCH   3  21
BRANCH   6  23
ATOM     23  O   UNL     1     -38.769  20.955   2.271  0.00  0.00    -0.380 OA
ATOM     24  H   UNL     1     -39.178  20.132   1.962  0.00  0.00    +0.211 HD
ENDBRANCH   6  23
BRANCH  10  25
ATOM     25  O   UNL     1     -38.037  19.014   0.092  0.00  0.00    -0.506 OA
ATOM     26  H   UNL     1     -38.264  18.121   0.257  0.00  0.00    +0.292 HD
ENDBRANCH  10  25
BRANCH   4  28
ATOM     27  O   UNL     1     -35.102  23.739  -0.136  0.00  0.00    -0.250 OA
ATOM     28  C   UNL     1     -34.701  23.580   1.009  0.00  0.00    +0.323 C 
BRANCH  28  29
ATOM     29  O   UNL     1     -33.598  24.154   1.567  0.00  0.00    -0.444 OA
ATOM     30  C   UNL     1     -33.098  25.312   0.890  0.00  0.00    +0.256 C 
ENDBRANCH  28  29
ENDBRANCH   4  28
BRANCH  17  31
ATOM     31  O   UNL     1     -35.763  14.712  -1.369  0.00  0.00    -0.505 OA
ATOM     32  H   UNL     1     -36.467  14.588  -0.764  0.00  0.00    +0.292 HD
ENDBRANCH  17  31
BRANCH   3  33
ATOM     33  C   UNL     1     -36.606  24.798   2.824  0.00  0.00    +0.092 C 
BRANCH  33  35
ATOM     34  O   UNL     1     -36.869  24.905   5.225  0.00  0.00    -0.296 OA
ATOM     35  C   UNL     1     -36.144  25.047   4.241  0.00  0.00    +0.153 C 
ATOM     36  C   UNL     1     -34.712  25.490   4.388  0.00  0.00    +0.072 C 
ENDBRANCH  33  35
ENDBRANCH   3  33
TORSDOF 8
ENDMDL
MODEL 9
REMARK VINA RESULT:      -5.9      2.840      7.499
REMARK  Name = 196522
REMARK  8 active torsions:
REMARK  status: ('A' for Active; 'I' for Inactive)
REMARK    1  A    between atoms: C_3  and  O_21
REMARK    2  A    between atoms: C_3  and  C_33
REMARK    3  A    between atoms: C_4  and  C_28
REMARK    4  A    between atoms: C_6  and  O_23
REMARK    5  A    between atoms: C_10  and  O_25
REMARK    6  A    between atoms: C_17  and  O_31
REMARK    7  A    between atoms: C_28  and  O_29
REMARK    8  A    between atoms: C_33  and  C_35
REMARK                            x       y       z     vdW  Elec       q    Type
REMARK                         _______ _______ _______ _____ _____    ______ ____
ROOT
ATOM      1  O   UNL     1     -35.410  26.193   5.524  0.00  0.00    -0.287 OA
ATOM      2  O   UNL     1     -36.055  22.675   1.557  0.00  0.00    -0.286 OA
ATOM      3  C   UNL     1     -36.930  29.576   0.104  0.00  0.00    +0.112 C 
ATOM      4  C   UNL     1     -36.254  29.188   1.440  0.00  0.00    +0.146 C 
ATOM      5  C   UNL     1     -36.429  28.682  -1.043  0.00  0.00    +0.062 C 
ATOM      6  C   UNL     1     -36.685  27.195  -0.777  0.00  0.00    +0.138 C 
ATOM      7  C   UNL     1     -36.193  27.690   1.675  0.00  0.00    -0.008 C 
ATOM      8  C   UNL     1     -36.359  26.763   0.631  0.00  0.00    +0.035 C 
ATOM      9  C   UNL     1     -35.931  27.220   2.976  0.00  0.00    -0.000 C 
ATOM     10  C   UNL     1     -36.263  25.388   0.908  0.00  0.00    +0.135 C 
ATOM     11  C   UNL     1     -35.835  25.848   3.239  0.00  0.00    +0.045 C 
ATOM     12  C   UNL     1     -36.001  24.933   2.205  0.00  0.00    +0.076 C 
ATOM     13  C   UNL     1     -35.559  25.387   4.615  0.00  0.00    +0.196 C 
ATOM     14  C   UNL     1     -35.906  23.481   2.466  0.00  0.00    +0.202 C 
ATOM     15  C   UNL     1     -35.631  23.016   3.840  0.00  0.00    +0.076 C 
ATOM     16  C   UNL     1     -35.464  23.936   4.878  0.00  0.00    +0.045 C 
ATOM     17  C   UNL     1     -35.540  21.644   4.102  0.00  0.00    +0.137 C 
ATOM     18  C   UNL     1     -35.205  23.484   6.178  0.00  0.00    +0.003 C 
ATOM     19  C   UNL     1     -35.283  21.197   5.399  0.00  0.00    +0.037 C 
ATOM     20  C   UNL     1     -35.114  22.115   6.434  0.00  0.00    +0.003 C 
ENDROOT
BRANCH   3  21
ATOM     21  O   UNL     1     -38.343  29.391   0.276  0.00  0.00    -0.385 OA
ATOM     22  H   UNL     1     -38.501  28.628   0.853  0.00  0.00    +0.210 HD
ENDBRANCH   3  21
BRANCH   6  23
ATOM     23  O   UNL     1     -38.057  26.887  -1.020  0.00  0.00    -0.380 OA
ATOM     24  H   UNL     1     -38.286  26.056  -0.574  0.00  0.00    +0.211 HD
ENDBRANCH   6  23
BRANCH  10  25
ATOM     25  O   UNL     1     -36.441  24.511  -0.127  0.00  0.00    -0.506 OA
ATOM     26  H   UNL     1     -36.258  23.600  -0.006  0.00  0.00    +0.292 HD
ENDBRANCH  10  25
BRANCH   4  28
ATOM     27  O   UNL     1     -33.923  29.402   0.851  0.00  0.00    -0.250 OA
ATOM     28  C   UNL     1     -34.865  29.757   1.547  0.00  0.00    +0.323 C 
BRANCH  28  29
ATOM     29  O   UNL     1     -34.836  30.707   2.525  0.00  0.00    -0.444 OA
ATOM     30  C   UNL     1     -33.993  31.833   2.264  0.00  0.00    +0.256 C 
ENDBRANCH  28  29
ENDBRANCH   4  28
BRANCH  17  31
ATOM     31  O   UNL     1     -35.695  20.691   3.139  0.00  0.00    -0.505 OA
ATOM     32  H   UNL     1     -35.174  20.723   2.361  0.00  0.00    +0.292 HD
ENDBRANCH  17  31
BRANCH   3  33
ATOM     33  C   UNL     1     -36.734  31.058  -0.247  0.00  0.00    +0.092 C 
BRANCH  33  35
ATOM     34  O   UNL     1     -38.905  32.109  -0.412  0.00  0.00    -0.296 OA
ATOM     35  C   UNL     1     -37.881  31.913   0.240  0.00  0.00    +0.153 C 
ATOM     36  C   UNL     1     -37.698  32.528   1.602  0.00  0.00    +0.072 C 
ENDBRANCH  33  35
ENDBRANCH   3  33
TORSDOF 8
ENDMDL
