MODEL 1
REMARK VINA RESULT:      -7.6      0.000      0.000
REMARK  Name = 5489391
REMARK  5 active torsions:
REMARK  status: ('A' for Active; 'I' for Inactive)
REMARK    1  A    between atoms: C_5  and  C_36
REMARK    2  A    between atoms: C_9  and  O_32
REMARK    3  A    between atoms: C_15  and  O_34
REMARK    4  A    between atoms: C_19  and  C_27
REMARK    5  A    between atoms: C_36  and  O_37
REMARK                            x       y       z     vdW  Elec       q    Type
REMARK                         _______ _______ _______ _____ _____    ______ ____
ROOT
ATOM      1  O   UNL     1     -35.931  20.173  -1.123  0.00  0.00    -0.317 OA
ATOM      2  O   UNL     1     -37.911  19.605   0.077  0.00  0.00    -0.315 OA
ATOM      3  O   UNL     1     -38.078  20.597  -2.070  0.00  0.00    -0.315 OA
ATOM      4  O   UNL     1     -37.585  24.751   4.310  0.00  0.00    -0.293 OA
ATOM      5  C   UNL     1     -36.457  21.366   0.951  0.00  0.00    +0.078 C 
ATOM      6  C   UNL     1     -36.296  22.763   1.687  0.00  0.00    +0.043 C 
ATOM      7  C   UNL     1     -35.862  21.473  -0.500  0.00  0.00    +0.104 C 
ATOM      8  C   UNL     1     -34.812  23.255   1.673  0.00  0.00    +0.028 C 
ATOM      9  C   UNL     1     -34.620  24.642   2.353  0.00  0.00    +0.095 C 
ATOM     10  C   UNL     1     -37.933  20.883   0.750  0.00  0.00    +0.127 C 
ATOM     11  C   UNL     1     -35.213  24.739   3.780  0.00  0.00    +0.080 C 
ATOM     12  C   UNL     1     -34.396  21.907  -0.470  0.00  0.00    +0.028 C 
ATOM     13  C   UNL     1     -34.198  23.233   0.255  0.00  0.00    +0.005 C 
ATOM     14  C   UNL     1     -36.688  22.427  -1.406  0.00  0.00    +0.057 C 
ATOM     15  C   UNL     1     -36.836  22.795   3.131  0.00  0.00    +0.168 C 
ATOM     16  C   UNL     1     -38.124  21.914  -1.505  0.00  0.00    +0.125 C 
ATOM     17  C   UNL     1     -38.770  21.828  -0.122  0.00  0.00    +0.060 C 
ATOM     18  C   UNL     1     -35.289  25.820   1.627  0.00  0.00    +0.028 C 
ATOM     19  C   UNL     1     -35.246  26.280   4.053  0.00  0.00    +0.034 C 
ATOM     20  C   UNL     1     -36.644  24.168   3.767  0.00  0.00    +0.179 C 
ATOM     21  C   UNL     1     -37.301  19.740  -1.216  0.00  0.00    +0.296 C 
ATOM     22  C   UNL     1     -35.388  26.937   2.667  0.00  0.00    +0.007 C 
ATOM     23  C   UNL     1     -34.433  23.954   4.848  0.00  0.00    +0.010 C 
ATOM     24  C   UNL     1     -37.290  18.359  -1.855  0.00  0.00    +0.096 C 
ENDROOT
BRANCH  19  27
ATOM     25  O   UNL     1     -32.577  27.045   6.666  0.00  0.00    -0.418 OA
ATOM     26  O   UNL     1     -30.816  28.482   6.584  0.00  0.00    -0.244 OA
ATOM     27  C   UNL     1     -34.054  26.857   4.765  0.00  0.00    +0.016 C 
ATOM     28  C   UNL     1     -33.257  27.843   4.085  0.00  0.00    +0.006 C 
ATOM     29  C   UNL     1     -33.688  26.508   6.003  0.00  0.00    +0.179 C 
ATOM     30  C   UNL     1     -32.187  28.386   4.674  0.00  0.00    +0.082 C 
ATOM     31  C   UNL     1     -31.798  27.985   6.042  0.00  0.00    +0.346 C 
ENDBRANCH  19  27
BRANCH   9  32
ATOM     32  O   UNL     1     -33.211  24.904   2.434  0.00  0.00    -0.386 OA
ATOM     33  H   UNL     1     -33.021  25.399   3.246  0.00  0.00    +0.210 HD
ENDBRANCH   9  32
BRANCH  15  34
ATOM     34  O   UNL     1     -38.232  22.542   3.151  0.00  0.00    -0.377 OA
ATOM     35  H   UNL     1     -38.584  22.603   2.249  0.00  0.00    +0.211 HD
ENDBRANCH  15  34
BRANCH   5  36
ATOM     36  C   UNL     1     -35.734  20.250   1.766  0.00  0.00    +0.142 C 
BRANCH  36  37
ATOM     37  O   UNL     1     -36.687  19.677   2.625  0.00  0.00    -0.382 OA
ATOM     38  H   UNL     1     -36.408  18.782   2.868  0.00  0.00    +0.210 HD
ENDBRANCH  36  37
ENDBRANCH   5  36
TORSDOF 5
ENDMDL
MODEL 2
REMARK VINA RESULT:      -6.9      2.288      8.364
REMARK  Name = 5489391
REMARK  5 active torsions:
REMARK  status: ('A' for Active; 'I' for Inactive)
REMARK    1  A    between atoms: C_5  and  C_36
REMARK    2  A    between atoms: C_9  and  O_32
REMARK    3  A    between atoms: C_15  and  O_34
REMARK    4  A    between atoms: C_19  and  C_27
REMARK    5  A    between atoms: C_36  and  O_37
REMARK                            x       y       z     vdW  Elec       q    Type
REMARK                         _______ _______ _______ _____ _____    ______ ____
ROOT
ATOM      1  O   UNL     1     -33.293  26.013   3.207  0.00  0.00    -0.317 OA
ATOM      2  O   UNL     1     -34.667  27.629   4.295  0.00  0.00    -0.315 OA
ATOM      3  O   UNL     1     -33.505  26.010   5.581  0.00  0.00    -0.315 OA
ATOM      4  O   UNL     1     -40.452  24.710   2.707  0.00  0.00    -0.293 OA
ATOM      5  C   UNL     1     -35.716  25.958   2.850  0.00  0.00    +0.078 C 
ATOM      6  C   UNL     1     -36.933  24.983   2.550  0.00  0.00    +0.043 C 
ATOM      7  C   UNL     1     -34.404  25.110   3.026  0.00  0.00    +0.104 C 
ATOM      8  C   UNL     1     -36.639  24.055   1.326  0.00  0.00    +0.028 C 
ATOM      9  C   UNL     1     -37.794  23.057   1.024  0.00  0.00    +0.095 C 
ATOM     10  C   UNL     1     -35.840  26.794   4.169  0.00  0.00    +0.127 C 
ATOM     11  C   UNL     1     -39.187  23.719   0.885  0.00  0.00    +0.080 C 
ATOM     12  C   UNL     1     -34.124  24.255   1.790  0.00  0.00    +0.028 C 
ATOM     13  C   UNL     1     -35.283  23.324   1.454  0.00  0.00    +0.005 C 
ATOM     14  C   UNL     1     -34.444  24.221   4.300  0.00  0.00    +0.057 C 
ATOM     15  C   UNL     1     -38.287  25.690   2.347  0.00  0.00    +0.168 C 
ATOM     16  C   UNL     1     -34.620  25.108   5.532  0.00  0.00    +0.125 C 
ATOM     17  C   UNL     1     -35.906  25.929   5.434  0.00  0.00    +0.060 C 
ATOM     18  C   UNL     1     -38.033  21.992   2.105  0.00  0.00    +0.028 C 
ATOM     19  C   UNL     1     -40.175  22.509   0.989  0.00  0.00    +0.034 C 
ATOM     20  C   UNL     1     -39.402  24.688   2.064  0.00  0.00    +0.179 C 
ATOM     21  C   UNL     1     -33.490  26.812   4.388  0.00  0.00    +0.296 C 
ATOM     22  C   UNL     1     -39.445  21.461   1.852  0.00  0.00    +0.007 C 
ATOM     23  C   UNL     1     -39.375  24.540  -0.402  0.00  0.00    +0.010 C 
ATOM     24  C   UNL     1     -32.298  27.752   4.495  0.00  0.00    +0.096 C 
ENDROOT
BRANCH  19  27
ATOM     25  O   UNL     1     -41.909  21.843  -2.340  0.00  0.00    -0.418 OA
ATOM     26  O   UNL     1     -41.683  20.104  -3.787  0.00  0.00    -0.244 OA
ATOM     27  C   UNL     1     -40.604  21.884  -0.308  0.00  0.00    +0.016 C 
ATOM     28  C   UNL     1     -40.015  20.630  -0.697  0.00  0.00    +0.006 C 
ATOM     29  C   UNL     1     -41.509  22.426  -1.131  0.00  0.00    +0.179 C 
ATOM     30  C   UNL     1     -40.363  20.033  -1.841  0.00  0.00    +0.082 C 
ATOM     31  C   UNL     1     -41.363  20.650  -2.736  0.00  0.00    +0.346 C 
ENDBRANCH  19  27
BRANCH   9  32
ATOM     32  O   UNL     1     -37.491  22.388  -0.209  0.00  0.00    -0.386 OA
ATOM     33  H   UNL     1     -36.531  22.270  -0.285  0.00  0.00    +0.210 HD
ENDBRANCH   9  32
BRANCH  15  34
ATOM     34  O   UNL     1     -38.671  26.385   3.523  0.00  0.00    -0.377 OA
ATOM     35  H   UNL     1     -39.511  26.026   3.851  0.00  0.00    +0.211 HD
ENDBRANCH  15  34
BRANCH   5  36
ATOM     36  C   UNL     1     -35.560  26.987   1.688  0.00  0.00    +0.142 C 
BRANCH  36  37
ATOM     37  O   UNL     1     -36.257  28.148   2.063  0.00  0.00    -0.382 OA
ATOM     38  H   UNL     1     -35.741  28.638   2.721  0.00  0.00    +0.210 HD
ENDBRANCH  36  37
ENDBRANCH   5  36
TORSDOF 5
ENDMDL
MODEL 3
REMARK VINA RESULT:      -6.8      2.426      4.123
REMARK  Name = 5489391
REMARK  5 active torsions:
REMARK  status: ('A' for Active; 'I' for Inactive)
REMARK    1  A    between atoms: C_5  and  C_36
REMARK    2  A    between atoms: C_9  and  O_32
REMARK    3  A    between atoms: C_15  and  O_34
REMARK    4  A    between atoms: C_19  and  C_27
REMARK    5  A    between atoms: C_36  and  O_37
REMARK                            x       y       z     vdW  Elec       q    Type
REMARK                         _______ _______ _______ _____ _____    ______ ____
ROOT
ATOM      1  O   UNL     1     -41.186  24.031   1.066  0.00  0.00    -0.317 OA
ATOM      2  O   UNL     1     -40.133  23.605  -1.030  0.00  0.00    -0.315 OA
ATOM      3  O   UNL     1     -40.959  21.798   0.265  0.00  0.00    -0.315 OA
ATOM      4  O   UNL     1     -33.913  24.577   1.178  0.00  0.00    -0.293 OA
ATOM      5  C   UNL     1     -38.798  24.516   0.806  0.00  0.00    +0.078 C 
ATOM      6  C   UNL     1     -37.422  24.574   1.595  0.00  0.00    +0.043 C 
ATOM      7  C   UNL     1     -39.925  23.993   1.769  0.00  0.00    +0.104 C 
ATOM      8  C   UNL     1     -37.544  25.418   2.906  0.00  0.00    +0.028 C 
ATOM      9  C   UNL     1     -36.224  25.468   3.727  0.00  0.00    +0.095 C 
ATOM     10  C   UNL     1     -38.825  23.540  -0.419  0.00  0.00    +0.127 C 
ATOM     11  C   UNL     1     -34.982  25.903   2.911  0.00  0.00    +0.080 C 
ATOM     12  C   UNL     1     -40.048  24.872   3.013  0.00  0.00    +0.028 C 
ATOM     13  C   UNL     1     -38.737  24.975   3.782  0.00  0.00    +0.005 C 
ATOM     14  C   UNL     1     -39.709  22.509   2.176  0.00  0.00    +0.057 C 
ATOM     15  C   UNL     1     -36.226  25.082   0.765  0.00  0.00    +0.168 C 
ATOM     16  C   UNL     1     -39.695  21.635   0.923  0.00  0.00    +0.125 C 
ATOM     17  C   UNL     1     -38.587  22.074  -0.036  0.00  0.00    +0.060 C 
ATOM     18  C   UNL     1     -35.780  24.124   4.326  0.00  0.00    +0.028 C 
ATOM     19  C   UNL     1     -33.783  25.488   3.829  0.00  0.00    +0.034 C 
ATOM     20  C   UNL     1     -34.945  25.108   1.592  0.00  0.00    +0.179 C 
ATOM     21  C   UNL     1     -41.134  23.179  -0.093  0.00  0.00    +0.296 C 
ATOM     22  C   UNL     1     -34.296  24.291   4.653  0.00  0.00    +0.007 C 
ATOM     23  C   UNL     1     -34.961  27.393   2.531  0.00  0.00    +0.010 C 
ATOM     24  C   UNL     1     -42.481  23.294  -0.792  0.00  0.00    +0.096 C 
ENDROOT
BRANCH  19  27
ATOM     25  O   UNL     1     -32.923  27.514   6.943  0.00  0.00    -0.418 OA
ATOM     26  O   UNL     1     -31.772  29.464   7.149  0.00  0.00    -0.244 OA
ATOM     27  C   UNL     1     -33.252  26.548   4.754  0.00  0.00    +0.016 C 
ATOM     28  C   UNL     1     -32.524  27.653   4.189  0.00  0.00    +0.006 C 
ATOM     29  C   UNL     1     -33.417  26.526   6.081  0.00  0.00    +0.179 C 
ATOM     30  C   UNL     1     -32.032  28.621   4.968  0.00  0.00    +0.082 C 
ATOM     31  C   UNL     1     -32.224  28.577   6.432  0.00  0.00    +0.346 C 
ENDBRANCH  19  27
BRANCH   9  32
ATOM     32  O   UNL     1     -36.404  26.402   4.802  0.00  0.00    -0.386 OA
ATOM     33  H   UNL     1     -35.933  27.225   4.597  0.00  0.00    +0.210 HD
ENDBRANCH   9  32
BRANCH  15  34
ATOM     34  O   UNL     1     -35.972  24.215  -0.329  0.00  0.00    -0.377 OA
ATOM     35  H   UNL     1     -35.213  24.546  -0.835  0.00  0.00    +0.211 HD
ENDBRANCH  15  34
BRANCH   5  36
ATOM     36  C   UNL     1     -39.154  25.929   0.253  0.00  0.00    +0.142 C 
BRANCH  36  37
ATOM     37  O   UNL     1     -38.688  25.988  -1.072  0.00  0.00    -0.382 OA
ATOM     38  H   UNL     1     -38.869  26.866  -1.440  0.00  0.00    +0.210 HD
ENDBRANCH  36  37
ENDBRANCH   5  36
TORSDOF 5
ENDMDL
MODEL 4
REMARK VINA RESULT:      -6.7      1.148      1.400
REMARK  Name = 5489391
REMARK  5 active torsions:
REMARK  status: ('A' for Active; 'I' for Inactive)
REMARK    1  A    between atoms: C_5  and  C_36
REMARK    2  A    between atoms: C_9  and  O_32
REMARK    3  A    between atoms: C_15  and  O_34
REMARK    4  A    between atoms: C_19  and  C_27
REMARK    5  A    between atoms: C_36  and  O_37
REMARK                            x       y       z     vdW  Elec       q    Type
REMARK                         _______ _______ _______ _____ _____    ______ ____
ROOT
ATOM      1  O   UNL     1     -36.291  19.821  -2.110  0.00  0.00    -0.317 OA
ATOM      2  O   UNL     1     -38.180  19.000  -0.909  0.00  0.00    -0.315 OA
ATOM      3  O   UNL     1     -38.492  20.123  -2.974  0.00  0.00    -0.315 OA
ATOM      4  O   UNL     1     -38.166  23.845   3.677  0.00  0.00    -0.293 OA
ATOM      5  C   UNL     1     -36.855  20.815   0.057  0.00  0.00    +0.078 C 
ATOM      6  C   UNL     1     -36.791  22.165   0.889  0.00  0.00    +0.043 C 
ATOM      7  C   UNL     1     -36.313  21.074  -1.395  0.00  0.00    +0.104 C 
ATOM      8  C   UNL     1     -35.355  22.783   0.876  0.00  0.00    +0.028 C 
ATOM      9  C   UNL     1     -35.261  24.129   1.650  0.00  0.00    +0.095 C 
ATOM     10  C   UNL     1     -38.290  20.222  -0.145  0.00  0.00    +0.127 C 
ATOM     11  C   UNL     1     -35.819  24.074   3.094  0.00  0.00    +0.080 C 
ATOM     12  C   UNL     1     -34.889  21.630  -1.368  0.00  0.00    +0.028 C 
ATOM     13  C   UNL     1     -34.783  22.914  -0.554  0.00  0.00    +0.005 C 
ATOM     14  C   UNL     1     -37.243  22.015  -2.211  0.00  0.00    +0.057 C 
ATOM     15  C   UNL     1     -37.289  22.048   2.343  0.00  0.00    +0.168 C 
ATOM     16  C   UNL     1     -38.633  21.389  -2.315  0.00  0.00    +0.125 C 
ATOM     17  C   UNL     1     -39.229  21.150  -0.926  0.00  0.00    +0.060 C 
ATOM     18  C   UNL     1     -36.048  25.293   1.028  0.00  0.00    +0.028 C 
ATOM     19  C   UNL     1     -35.973  25.584   3.479  0.00  0.00    +0.034 C 
ATOM     20  C   UNL     1     -37.196  23.384   3.073  0.00  0.00    +0.179 C 
ATOM     21  C   UNL     1     -37.622  19.279  -2.202  0.00  0.00    +0.296 C 
ATOM     22  C   UNL     1     -36.210  26.322   2.148  0.00  0.00    +0.007 C 
ATOM     23  C   UNL     1     -34.945  23.287   4.084  0.00  0.00    +0.010 C 
ATOM     24  C   UNL     1     -37.513  17.952  -2.940  0.00  0.00    +0.096 C 
ENDROOT
BRANCH  19  27
ATOM     25  O   UNL     1     -32.833  27.588   4.293  0.00  0.00    -0.418 OA
ATOM     26  O   UNL     1     -31.730  27.844   6.265  0.00  0.00    -0.244 OA
ATOM     27  C   UNL     1     -34.814  26.210   4.204  0.00  0.00    +0.016 C 
ATOM     28  C   UNL     1     -34.657  25.944   5.609  0.00  0.00    +0.006 C 
ATOM     29  C   UNL     1     -33.913  27.005   3.617  0.00  0.00    +0.179 C 
ATOM     30  C   UNL     1     -33.644  26.476   6.299  0.00  0.00    +0.082 C 
ATOM     31  C   UNL     1     -32.660  27.353   5.632  0.00  0.00    +0.346 C 
ENDBRANCH  19  27
BRANCH   9  32
ATOM     32  O   UNL     1     -33.877  24.506   1.718  0.00  0.00    -0.386 OA
ATOM     33  H   UNL     1     -33.411  24.167   0.939  0.00  0.00    +0.210 HD
ENDBRANCH   9  32
BRANCH  15  34
ATOM     34  O   UNL     1     -38.658  21.675   2.376  0.00  0.00    -0.377 OA
ATOM     35  H   UNL     1     -39.195  22.440   2.636  0.00  0.00    +0.211 HD
ENDBRANCH  15  34
BRANCH   5  36
ATOM     36  C   UNL     1     -36.018  19.710   0.772  0.00  0.00    +0.142 C 
BRANCH  36  37
ATOM     37  O   UNL     1     -36.912  18.929   1.523  0.00  0.00    -0.382 OA
ATOM     38  H   UNL     1     -36.795  19.118   2.466  0.00  0.00    +0.210 HD
ENDBRANCH  36  37
ENDBRANCH   5  36
TORSDOF 5
ENDMDL
MODEL 5
REMARK VINA RESULT:      -6.5      3.815      5.822
REMARK  Name = 5489391
REMARK  5 active torsions:
REMARK  status: ('A' for Active; 'I' for Inactive)
REMARK    1  A    between atoms: C_5  and  C_36
REMARK    2  A    between atoms: C_9  and  O_32
REMARK    3  A    between atoms: C_15  and  O_34
REMARK    4  A    between atoms: C_19  and  C_27
REMARK    5  A    between atoms: C_36  and  O_37
REMARK                            x       y       z     vdW  Elec       q    Type
REMARK                         _______ _______ _______ _____ _____    ______ ____
ROOT
ATOM      1  O   UNL     1     -33.728  21.144   0.751  0.00  0.00    -0.317 OA
ATOM      2  O   UNL     1     -34.950  19.099   0.837  0.00  0.00    -0.315 OA
ATOM      3  O   UNL     1     -33.832  19.722  -1.160  0.00  0.00    -0.315 OA
ATOM      4  O   UNL     1     -40.969  21.941   0.375  0.00  0.00    -0.293 OA
ATOM      5  C   UNL     1     -36.163  21.216   1.004  0.00  0.00    +0.078 C 
ATOM      6  C   UNL     1     -37.449  22.083   0.665  0.00  0.00    +0.043 C 
ATOM      7  C   UNL     1     -34.899  21.891   0.359  0.00  0.00    +0.104 C 
ATOM      8  C   UNL     1     -37.269  23.575   1.096  0.00  0.00    +0.028 C 
ATOM      9  C   UNL     1     -38.495  24.466   0.745  0.00  0.00    +0.095 C 
ATOM     10  C   UNL     1     -36.176  19.755   0.441  0.00  0.00    +0.127 C 
ATOM     11  C   UNL     1     -39.850  23.912   1.251  0.00  0.00    +0.080 C 
ATOM     12  C   UNL     1     -34.728  23.331   0.843  0.00  0.00    +0.028 C 
ATOM     13  C   UNL     1     -35.955  24.188   0.559  0.00  0.00    +0.005 C 
ATOM     14  C   UNL     1     -34.935  21.844  -1.194  0.00  0.00    +0.057 C 
ATOM     15  C   UNL     1     -38.767  21.534   1.249  0.00  0.00    +0.168 C 
ATOM     16  C   UNL     1     -35.000  20.390  -1.657  0.00  0.00    +0.125 C 
ATOM     17  C   UNL     1     -36.238  19.691  -1.090  0.00  0.00    +0.060 C 
ATOM     18  C   UNL     1     -38.749  24.661  -0.758  0.00  0.00    +0.028 C 
ATOM     19  C   UNL     1     -40.904  24.746   0.446  0.00  0.00    +0.034 C 
ATOM     20  C   UNL     1     -39.951  22.420   0.879  0.00  0.00    +0.179 C 
ATOM     21  C   UNL     1     -33.822  19.788   0.276  0.00  0.00    +0.296 C 
ATOM     22  C   UNL     1     -40.201  25.129  -0.870  0.00  0.00    +0.007 C 
ATOM     23  C   UNL     1     -40.046  24.003   2.773  0.00  0.00    +0.010 C 
ATOM     24  C   UNL     1     -32.571  19.062   0.750  0.00  0.00    +0.096 C 
ENDROOT
BRANCH  19  27
ATOM     25  O   UNL     1     -41.554  28.379   1.403  0.00  0.00    -0.418 OA
ATOM     26  O   UNL     1     -42.918  29.250   3.000  0.00  0.00    -0.244 OA
ATOM     27  C   UNL     1     -41.429  25.984   1.117  0.00  0.00    +0.016 C 
ATOM     28  C   UNL     1     -42.380  25.836   2.187  0.00  0.00    +0.006 C 
ATOM     29  C   UNL     1     -41.064  27.225   0.778  0.00  0.00    +0.179 C 
ATOM     30  C   UNL     1     -42.877  26.905   2.816  0.00  0.00    +0.082 C 
ATOM     31  C   UNL     1     -42.462  28.268   2.424  0.00  0.00    +0.346 C 
ENDBRANCH  19  27
BRANCH   9  32
ATOM     32  O   UNL     1     -38.289  25.757   1.338  0.00  0.00    -0.386 OA
ATOM     33  H   UNL     1     -38.937  26.384   0.981  0.00  0.00    +0.210 HD
ENDBRANCH   9  32
BRANCH  15  34
ATOM     34  O   UNL     1     -39.054  20.250   0.717  0.00  0.00    -0.377 OA
ATOM     35  H   UNL     1     -38.225  19.804   0.484  0.00  0.00    +0.211 HD
ENDBRANCH  15  34
BRANCH   5  36
ATOM     36  C   UNL     1     -35.998  21.093   2.550  0.00  0.00    +0.142 C 
BRANCH  36  37
ATOM     37  O   UNL     1     -36.603  19.886   2.939  0.00  0.00    -0.382 OA
ATOM     38  H   UNL     1     -37.553  19.923   2.750  0.00  0.00    +0.210 HD
ENDBRANCH  36  37
ENDBRANCH   5  36
TORSDOF 5
ENDMDL
MODEL 6
REMARK VINA RESULT:      -6.4      2.448      8.232
REMARK  Name = 5489391
REMARK  5 active torsions:
REMARK  status: ('A' for Active; 'I' for Inactive)
REMARK    1  A    between atoms: C_5  and  C_36
REMARK    2  A    between atoms: C_9  and  O_32
REMARK    3  A    between atoms: C_15  and  O_34
REMARK    4  A    between atoms: C_19  and  C_27
REMARK    5  A    between atoms: C_36  and  O_37
REMARK                            x       y       z     vdW  Elec       q    Type
REMARK                         _______ _______ _______ _____ _____    ______ ____
ROOT
ATOM      1  O   UNL     1     -32.261  29.104   1.206  0.00  0.00    -0.317 OA
ATOM      2  O   UNL     1     -32.825  29.894   3.383  0.00  0.00    -0.315 OA
ATOM      3  O   UNL     1     -30.691  28.937   2.991  0.00  0.00    -0.315 OA
ATOM      4  O   UNL     1     -36.748  24.725   4.933  0.00  0.00    -0.293 OA
ATOM      5  C   UNL     1     -34.028  27.972   2.468  0.00  0.00    +0.078 C 
ATOM      6  C   UNL     1     -34.722  26.562   2.694  0.00  0.00    +0.043 C 
ATOM      7  C   UNL     1     -32.824  27.803   1.473  0.00  0.00    +0.104 C 
ATOM      8  C   UNL     1     -35.139  25.901   1.340  0.00  0.00    +0.028 C 
ATOM      9  C   UNL     1     -35.790  24.499   1.518  0.00  0.00    +0.095 C 
ATOM     10  C   UNL     1     -33.408  28.624   3.750  0.00  0.00    +0.127 C 
ATOM     11  C   UNL     1     -36.964  24.465   2.527  0.00  0.00    +0.080 C 
ATOM     12  C   UNL     1     -33.280  27.201   0.143  0.00  0.00    +0.028 C 
ATOM     13  C   UNL     1     -33.977  25.858   0.323  0.00  0.00    +0.005 C 
ATOM     14  C   UNL     1     -31.672  26.955   2.081  0.00  0.00    +0.057 C 
ATOM     15  C   UNL     1     -35.932  26.587   3.650  0.00  0.00    +0.168 C 
ATOM     16  C   UNL     1     -31.161  27.632   3.352  0.00  0.00    +0.125 C 
ATOM     17  C   UNL     1     -32.286  27.787   4.378  0.00  0.00    +0.060 C 
ATOM     18  C   UNL     1     -34.849  23.410   2.057  0.00  0.00    +0.028 C 
ATOM     19  C   UNL     1     -37.153  22.936   2.810  0.00  0.00    +0.034 C 
ATOM     20  C   UNL     1     -36.540  25.198   3.814  0.00  0.00    +0.179 C 
ATOM     21  C   UNL     1     -31.774  29.694   2.425  0.00  0.00    +0.296 C 
ATOM     22  C   UNL     1     -35.764  22.307   2.591  0.00  0.00    +0.007 C 
ATOM     23  C   UNL     1     -38.249  25.149   2.031  0.00  0.00    +0.010 C 
ATOM     24  C   UNL     1     -31.224  31.067   2.069  0.00  0.00    +0.096 C 
ENDROOT
BRANCH  19  27
ATOM     25  O   UNL     1     -40.437  21.626   1.382  0.00  0.00    -0.418 OA
ATOM     26  O   UNL     1     -40.819  20.250  -0.387  0.00  0.00    -0.244 OA
ATOM     27  C   UNL     1     -38.170  22.222   1.964  0.00  0.00    +0.016 C 
ATOM     28  C   UNL     1     -37.707  21.413   0.868  0.00  0.00    +0.006 C 
ATOM     29  C   UNL     1     -39.489  22.292   2.171  0.00  0.00    +0.179 C 
ATOM     30  C   UNL     1     -38.571  20.757   0.086  0.00  0.00    +0.082 C 
ATOM     31  C   UNL     1     -40.025  20.850   0.330  0.00  0.00    +0.346 C 
ENDBRANCH  19  27
BRANCH   9  32
ATOM     32  O   UNL     1     -36.285  24.074   0.240  0.00  0.00    -0.386 OA
ATOM     33  H   UNL     1     -36.891  23.327   0.360  0.00  0.00    +0.210 HD
ENDBRANCH   9  32
BRANCH  15  34
ATOM     34  O   UNL     1     -35.536  27.000   4.949  0.00  0.00    -0.377 OA
ATOM     35  H   UNL     1     -36.324  27.181   5.485  0.00  0.00    +0.211 HD
ENDBRANCH  15  34
BRANCH   5  36
ATOM     36  C   UNL     1     -35.068  28.993   1.913  0.00  0.00    +0.142 C 
BRANCH  36  37
ATOM     37  O   UNL     1     -35.563  29.722   3.008  0.00  0.00    -0.382 OA
ATOM     38  H   UNL     1     -36.182  29.171   3.510  0.00  0.00    +0.210 HD
ENDBRANCH  36  37
ENDBRANCH   5  36
TORSDOF 5
ENDMDL
MODEL 7
REMARK VINA RESULT:      -6.3      3.526      7.396
REMARK  Name = 5489391
REMARK  5 active torsions:
REMARK  status: ('A' for Active; 'I' for Inactive)
REMARK    1  A    between atoms: C_5  and  C_36
REMARK    2  A    between atoms: C_9  and  O_32
REMARK    3  A    between atoms: C_15  and  O_34
REMARK    4  A    between atoms: C_19  and  C_27
REMARK    5  A    between atoms: C_36  and  O_37
REMARK                            x       y       z     vdW  Elec       q    Type
REMARK                         _______ _______ _______ _____ _____    ______ ____
ROOT
ATOM      1  O   UNL     1     -39.396  25.511   0.091  0.00  0.00    -0.317 OA
ATOM      2  O   UNL     1     -39.807  25.157   2.412  0.00  0.00    -0.315 OA
ATOM      3  O   UNL     1     -38.620  27.084   1.705  0.00  0.00    -0.315 OA
ATOM      4  O   UNL     1     -35.131  20.460   3.174  0.00  0.00    -0.293 OA
ATOM      5  C   UNL     1     -38.330  23.616   1.219  0.00  0.00    +0.078 C 
ATOM      6  C   UNL     1     -37.034  22.699   1.211  0.00  0.00    +0.043 C 
ATOM      7  C   UNL     1     -38.175  24.743   0.135  0.00  0.00    +0.104 C 
ATOM      8  C   UNL     1     -36.738  22.134  -0.217  0.00  0.00    +0.028 C 
ATOM      9  C   UNL     1     -35.452  21.260  -0.274  0.00  0.00    +0.095 C 
ATOM     10  C   UNL     1     -38.599  24.378   2.561  0.00  0.00    +0.127 C 
ATOM     11  C   UNL     1     -35.403  20.129   0.782  0.00  0.00    +0.080 C 
ATOM     12  C   UNL     1     -37.938  24.150  -1.255  0.00  0.00    +0.028 C 
ATOM     13  C   UNL     1     -36.716  23.240  -1.296  0.00  0.00    +0.005 C 
ATOM     14  C   UNL     1     -37.048  25.752   0.491  0.00  0.00    +0.057 C 
ATOM     15  C   UNL     1     -37.058  21.542   2.229  0.00  0.00    +0.168 C 
ATOM     16  C   UNL     1     -37.361  26.409   1.834  0.00  0.00    +0.125 C 
ATOM     17  C   UNL     1     -37.483  25.360   2.940  0.00  0.00    +0.060 C 
ATOM     18  C   UNL     1     -34.139  22.017  -0.020  0.00  0.00    +0.028 C 
ATOM     19  C   UNL     1     -33.899  19.691   0.772  0.00  0.00    +0.034 C 
ATOM     20  C   UNL     1     -35.782  20.711   2.157  0.00  0.00    +0.179 C 
ATOM     21  C   UNL     1     -39.640  26.129   1.368  0.00  0.00    +0.296 C 
ATOM     22  C   UNL     1     -33.112  20.945   0.347  0.00  0.00    +0.007 C 
ATOM     23  C   UNL     1     -36.371  18.965   0.513  0.00  0.00    +0.010 C 
ATOM     24  C   UNL     1     -40.950  26.894   1.252  0.00  0.00    +0.096 C 
ENDROOT
BRANCH  19  27
ATOM     25  O   UNL     1     -32.745  17.618  -2.213  0.00  0.00    -0.418 OA
ATOM     26  O   UNL     1     -32.619  15.362  -2.467  0.00  0.00    -0.244 OA
ATOM     27  C   UNL     1     -33.545  18.542  -0.129  0.00  0.00    +0.016 C 
ATOM     28  C   UNL     1     -33.716  17.201   0.365  0.00  0.00    +0.006 C 
ATOM     29  C   UNL     1     -33.076  18.690  -1.373  0.00  0.00    +0.179 C 
ATOM     30  C   UNL     1     -33.415  16.145  -0.396  0.00  0.00    +0.082 C 
ATOM     31  C   UNL     1     -32.897  16.331  -1.767  0.00  0.00    +0.346 C 
ENDBRANCH  19  27
BRANCH   9  32
ATOM     32  O   UNL     1     -35.381  20.660  -1.577  0.00  0.00    -0.386 OA
ATOM     33  H   UNL     1     -35.916  19.852  -1.590  0.00  0.00    +0.210 HD
ENDBRANCH   9  32
BRANCH  15  34
ATOM     34  O   UNL     1     -37.130  22.042   3.555  0.00  0.00    -0.377 OA
ATOM     35  H   UNL     1     -38.056  22.061   3.844  0.00  0.00    +0.211 HD
ENDBRANCH  15  34
BRANCH   5  36
ATOM     36  C   UNL     1     -39.596  22.749   0.942  0.00  0.00    +0.142 C 
BRANCH  36  37
ATOM     37  O   UNL     1     -40.159  22.422   2.187  0.00  0.00    -0.382 OA
ATOM     38  H   UNL     1     -39.479  22.483   2.876  0.00  0.00    +0.210 HD
ENDBRANCH  36  37
ENDBRANCH   5  36
TORSDOF 5
ENDMDL
MODEL 8
REMARK VINA RESULT:      -6.2      4.038      6.301
REMARK  Name = 5489391
REMARK  5 active torsions:
REMARK  status: ('A' for Active; 'I' for Inactive)
REMARK    1  A    between atoms: C_5  and  C_36
REMARK    2  A    between atoms: C_9  and  O_32
REMARK    3  A    between atoms: C_15  and  O_34
REMARK    4  A    between atoms: C_19  and  C_27
REMARK    5  A    between atoms: C_36  and  O_37
REMARK                            x       y       z     vdW  Elec       q    Type
REMARK                         _______ _______ _______ _____ _____    ______ ____
ROOT
ATOM      1  O   UNL     1     -34.295  23.668   4.594  0.00  0.00    -0.317 OA
ATOM      2  O   UNL     1     -36.611  23.775   5.149  0.00  0.00    -0.315 OA
ATOM      3  O   UNL     1     -35.762  21.892   3.983  0.00  0.00    -0.315 OA
ATOM      4  O   UNL     1     -38.205  28.154   0.375  0.00  0.00    -0.293 OA
ATOM      5  C   UNL     1     -35.700  25.377   3.541  0.00  0.00    +0.078 C 
ATOM      6  C   UNL     1     -35.880  26.234   2.217  0.00  0.00    +0.043 C 
ATOM      7  C   UNL     1     -34.505  24.375   3.353  0.00  0.00    +0.104 C 
ATOM      8  C   UNL     1     -34.549  26.943   1.805  0.00  0.00    +0.028 C 
ATOM      9  C   UNL     1     -34.675  27.764   0.489  0.00  0.00    +0.095 C 
ATOM     10  C   UNL     1     -36.925  24.481   3.928  0.00  0.00    +0.127 C 
ATOM     11  C   UNL     1     -35.855  28.765   0.472  0.00  0.00    +0.080 C 
ATOM     12  C   UNL     1     -33.211  25.110   3.001  0.00  0.00    +0.028 C 
ATOM     13  C   UNL     1     -33.353  25.966   1.748  0.00  0.00    +0.005 C 
ATOM     14  C   UNL     1     -34.813  23.286   2.288  0.00  0.00    +0.057 C 
ATOM     15  C   UNL     1     -37.021  27.268   2.270  0.00  0.00    +0.168 C 
ATOM     16  C   UNL     1     -36.048  22.494   2.714  0.00  0.00    +0.125 C 
ATOM     17  C   UNL     1     -37.258  23.416   2.874  0.00  0.00    +0.060 C 
ATOM     18  C   UNL     1     -34.923  26.927  -0.777  0.00  0.00    +0.028 C 
ATOM     19  C   UNL     1     -35.992  29.138  -1.043  0.00  0.00    +0.034 C 
ATOM     20  C   UNL     1     -37.128  28.048   0.964  0.00  0.00    +0.179 C 
ATOM     21  C   UNL     1     -35.474  22.921   4.944  0.00  0.00    +0.296 C 
ATOM     22  C   UNL     1     -35.475  27.908  -1.813  0.00  0.00    +0.007 C 
ATOM     23  C   UNL     1     -35.662  29.992   1.379  0.00  0.00    +0.010 C 
ATOM     24  C   UNL     1     -35.187  22.230   6.270  0.00  0.00    +0.096 C 
ENDROOT
BRANCH  19  27
ATOM     25  O   UNL     1     -34.957  32.758  -1.643  0.00  0.00    -0.418 OA
ATOM     26  O   UNL     1     -33.177  33.602  -2.778  0.00  0.00    -0.244 OA
ATOM     27  C   UNL     1     -35.254  30.365  -1.497  0.00  0.00    +0.016 C 
ATOM     28  C   UNL     1     -34.056  30.199  -2.277  0.00  0.00    +0.006 C 
ATOM     29  C   UNL     1     -35.646  31.613  -1.220  0.00  0.00    +0.179 C 
ATOM     30  C   UNL     1     -33.364  31.259  -2.706  0.00  0.00    +0.082 C 
ATOM     31  C   UNL     1     -33.813  32.629  -2.386  0.00  0.00    +0.346 C 
ENDBRANCH  19  27
BRANCH   9  32
ATOM     32  O   UNL     1     -33.457  28.503   0.309  0.00  0.00    -0.386 OA
ATOM     33  H   UNL     1     -33.105  28.335  -0.579  0.00  0.00    +0.210 HD
ENDBRANCH   9  32
BRANCH  15  34
ATOM     34  O   UNL     1     -38.273  26.625   2.449  0.00  0.00    -0.377 OA
ATOM     35  H   UNL     1     -38.420  26.460   3.393  0.00  0.00    +0.211 HD
ENDBRANCH  15  34
BRANCH   5  36
ATOM     36  C   UNL     1     -35.445  26.322   4.755  0.00  0.00    +0.142 C 
BRANCH  36  37
ATOM     37  O   UNL     1     -36.688  26.560   5.367  0.00  0.00    -0.382 OA
ATOM     38  H   UNL     1     -37.340  26.802   4.693  0.00  0.00    +0.210 HD
ENDBRANCH  36  37
ENDBRANCH   5  36
TORSDOF 5
ENDMDL
MODEL 9
REMARK VINA RESULT:      -6.2      2.934      7.692
REMARK  Name = 5489391
REMARK  5 active torsions:
REMARK  status: ('A' for Active; 'I' for Inactive)
REMARK    1  A    between atoms: C_5  and  C_36
REMARK    2  A    between atoms: C_9  and  O_32
REMARK    3  A    between atoms: C_15  and  O_34
REMARK    4  A    between atoms: C_19  and  C_27
REMARK    5  A    between atoms: C_36  and  O_37
REMARK                            x       y       z     vdW  Elec       q    Type
REMARK                         _______ _______ _______ _____ _____    ______ ____
ROOT
ATOM      1  O   UNL     1     -38.170  24.864   1.314  0.00  0.00    -0.317 OA
ATOM      2  O   UNL     1     -38.445  23.738   3.398  0.00  0.00    -0.315 OA
ATOM      3  O   UNL     1     -37.292  25.808   3.319  0.00  0.00    -0.315 OA
ATOM      4  O   UNL     1     -33.756  19.133   2.251  0.00  0.00    -0.293 OA
ATOM      5  C   UNL     1     -37.049  22.715   1.670  0.00  0.00    +0.078 C 
ATOM      6  C   UNL     1     -35.761  21.875   1.276  0.00  0.00    +0.043 C 
ATOM      7  C   UNL     1     -36.953  24.145   1.025  0.00  0.00    +0.104 C 
ATOM      8  C   UNL     1     -35.552  21.832  -0.273  0.00  0.00    +0.028 C 
ATOM      9  C   UNL     1     -34.277  21.048  -0.697  0.00  0.00    +0.095 C 
ATOM     10  C   UNL     1     -37.235  22.973   3.204  0.00  0.00    +0.127 C 
ATOM     11  C   UNL     1     -34.171  19.627  -0.092  0.00  0.00    +0.080 C 
ATOM     12  C   UNL     1     -36.801  24.061  -0.495  0.00  0.00    +0.028 C 
ATOM     13  C   UNL     1     -35.589  23.238  -0.912  0.00  0.00    +0.005 C 
ATOM     14  C   UNL     1     -35.801  24.990   1.636  0.00  0.00    +0.057 C 
ATOM     15  C   UNL     1     -35.731  20.441   1.841  0.00  0.00    +0.168 C 
ATOM     16  C   UNL     1     -36.031  25.149   3.138  0.00  0.00    +0.125 C 
ATOM     17  C   UNL     1     -36.093  23.785   3.828  0.00  0.00    +0.060 C 
ATOM     18  C   UNL     1     -32.947  21.695  -0.277  0.00  0.00    +0.028 C 
ATOM     19  C   UNL     1     -32.673  19.241  -0.336  0.00  0.00    +0.034 C 
ATOM     20  C   UNL     1     -34.465  19.703   1.419  0.00  0.00    +0.179 C 
ATOM     21  C   UNL     1     -38.335  25.008   2.737  0.00  0.00    +0.296 C 
ATOM     22  C   UNL     1     -31.906  20.577  -0.356  0.00  0.00    +0.007 C 
ATOM     23  C   UNL     1     -35.159  18.608  -0.684  0.00  0.00    +0.010 C 
ATOM     24  C   UNL     1     -39.646  25.747   2.963  0.00  0.00    +0.096 C 
ENDROOT
BRANCH  19  27
ATOM     25  O   UNL     1     -32.377  16.453  -2.920  0.00  0.00    -0.418 OA
ATOM     26  O   UNL     1     -31.539  16.499  -5.033  0.00  0.00    -0.244 OA
ATOM     27  C   UNL     1     -32.379  18.471  -1.592  0.00  0.00    +0.016 C 
ATOM     28  C   UNL     1     -31.768  19.162  -2.696  0.00  0.00    +0.006 C 
ATOM     29  C   UNL     1     -32.651  17.171  -1.748  0.00  0.00    +0.179 C 
ATOM     30  C   UNL     1     -31.485  18.523  -3.835  0.00  0.00    +0.082 C 
ATOM     31  C   UNL     1     -31.796  17.087  -3.987  0.00  0.00    +0.346 C 
ENDBRANCH  19  27
BRANCH   9  32
ATOM     32  O   UNL     1     -34.286  20.927  -2.128  0.00  0.00    -0.386 OA
ATOM     33  H   UNL     1     -33.374  20.910  -2.457  0.00  0.00    +0.210 HD
ENDBRANCH   9  32
BRANCH  15  34
ATOM     34  O   UNL     1     -35.721  20.461   3.260  0.00  0.00    -0.377 OA
ATOM     35  H   UNL     1     -36.114  21.290   3.574  0.00  0.00    +0.211 HD
ENDBRANCH  15  34
BRANCH   5  36
ATOM     36  C   UNL     1     -38.334  21.974   1.189  0.00  0.00    +0.142 C 
BRANCH  36  37
ATOM     37  O   UNL     1     -38.771  21.164   2.250  0.00  0.00    -0.382 OA
ATOM     38  H   UNL     1     -38.263  21.373   3.048  0.00  0.00    +0.210 HD
ENDBRANCH  36  37
ENDBRANCH   5  36
TORSDOF 5
ENDMDL
