MODEL 1
REMARK VINA RESULT:      -6.7      0.000      0.000
REMARK  Name = 5353631
REMARK  16 active torsions:
REMARK  status: ('A' for Active; 'I' for Inactive)
REMARK    1  A    between atoms: C_1  and  C_2
REMARK    2  A    between atoms: C_1  and  O_15
REMARK    3  A    between atoms: C_1  and  C_22
REMARK    4  A    between atoms: C_2  and  O_4
REMARK    5  A    between atoms: C_2  and  C_6
REMARK    6  A    between atoms: C_7  and  C_10
REMARK    7  A    between atoms: O_15  and  P_16
REMARK    8  A    between atoms: P_16  and  O_18
REMARK    9  A    between atoms: P_16  and  O_20
REMARK   10  A    between atoms: C_22  and  C_23
REMARK   11  A    between atoms: C_23  and  O_24
REMARK   12  A    between atoms: C_23  and  C_26
REMARK   13  A    between atoms: C_27  and  C_28
REMARK   14  A    between atoms: C_29  and  C_30
REMARK   15  A    between atoms: C_31  and  C_32
REMARK   16  A    between atoms: C_32  and  O_33
REMARK                            x       y       z     vdW  Elec       q    Type
REMARK                         _______ _______ _______ _____ _____    ______ ____
ROOT
ATOM      1  C   UNL     1     -36.852  22.676   2.842  0.00  0.00    +0.157 C 
ENDROOT
BRANCH   1   2
ATOM      2  C   UNL     1     -37.122  21.457   1.917  0.00  0.00    +0.132 C 
ATOM      3  C   UNL     1     -37.324  21.886   0.457  0.00  0.00    +0.036 C 
BRANCH   2   4
ATOM      4  O   UNL     1     -38.370  20.896   2.352  0.00  0.00    -0.380 OA
ATOM      5  H   UNL     1     -38.245  19.959   2.572  0.00  0.00    +0.211 HD
ENDBRANCH   2   4
BRANCH   2   6
ATOM      6  C   UNL     1     -36.009  20.425   1.989  0.00  0.00    +0.001 C 
ATOM      7  C   UNL     1     -35.008  20.268   1.111  0.00  0.00    +0.015 C 
BRANCH   7  10
ATOM      8  O   UNL     1     -34.360  18.063   0.499  0.00  0.00    -0.444 OA
ATOM      9  O   UNL     1     -33.856  15.921  -0.050  0.00  0.00    -0.245 OA
ATOM     10  C   UNL     1     -33.944  19.228   1.246  0.00  0.00    +0.195 C 
ATOM     11  C   UNL     1     -32.598  19.732   0.742  0.00  0.00    +0.075 C 
ATOM     12  C   UNL     1     -31.643  18.588   0.677  0.00  0.00    -0.015 C 
ATOM     13  C   UNL     1     -33.490  17.035   0.309  0.00  0.00    +0.341 C 
ATOM     14  C   UNL     1     -32.061  17.330   0.517  0.00  0.00    +0.077 C 
ENDBRANCH   7  10
ENDBRANCH   2   6
ENDBRANCH   1   2
BRANCH   1  15
ATOM     15  O   UNL     1     -37.298  23.858   2.166  0.00  0.00    -0.273 OA
BRANCH  15  16
ATOM     16  P   UNL     1     -38.444  24.746   2.871  0.00  0.00    +0.473 P 
ATOM     17  O   UNL     1     -38.814  26.006   2.145  0.00  0.00    -0.227 OA
BRANCH  16  18
ATOM     18  O   UNL     1     -39.648  23.681   3.050  0.00  0.00    -0.303 OA
ATOM     19  H   UNL     1     -39.327  22.910   3.543  0.00  0.00    +0.222 HD
ENDBRANCH  16  18
BRANCH  16  20
ATOM     20  O   UNL     1     -37.901  24.951   4.381  0.00  0.00    -0.303 OA
ATOM     21  H   UNL     1     -38.567  25.425   4.902  0.00  0.00    +0.222 HD
ENDBRANCH  16  20
ENDBRANCH  15  16
ENDBRANCH   1  15
BRANCH   1  22
ATOM     22  C   UNL     1     -35.381  22.876   3.262  0.00  0.00    +0.067 C 
BRANCH  22  23
ATOM     23  C   UNL     1     -35.127  22.859   4.783  0.00  0.00    +0.135 C 
BRANCH  23  24
ATOM     24  O   UNL     1     -36.340  22.483   5.431  0.00  0.00    -0.380 OA
ATOM     25  H   UNL     1     -36.928  22.051   4.791  0.00  0.00    +0.211 HD
ENDBRANCH  23  24
BRANCH  23  26
ATOM     26  C   UNL     1     -34.555  24.147   5.319  0.00  0.00    +0.003 C 
ATOM     27  C   UNL     1     -34.394  25.292   4.635  0.00  0.00    -0.002 C 
BRANCH  27  28
ATOM     28  C   UNL     1     -33.837  26.490   5.224  0.00  0.00    -0.000 C 
ATOM     29  C   UNL     1     -33.163  26.488   6.384  0.00  0.00    -0.000 C 
BRANCH  29  30
ATOM     30  C   UNL     1     -32.604  27.685   6.973  0.00  0.00    -0.002 C 
ATOM     31  C   UNL     1     -31.659  28.424   6.375  0.00  0.00    +0.005 C 
BRANCH  31  32
ATOM     32  C   UNL     1     -31.080  29.666   6.973  0.00  0.00    +0.163 C 
BRANCH  32  33
ATOM     33  O   UNL     1     -29.825  29.349   7.558  0.00  0.00    -0.377 OA
ATOM     34  H   UNL     1     -29.144  29.943   7.206  0.00  0.00    +0.211 HD
ENDBRANCH  32  33
ENDBRANCH  31  32
ENDBRANCH  29  30
ENDBRANCH  27  28
ENDBRANCH  23  26
ENDBRANCH  22  23
ENDBRANCH   1  22
TORSDOF 16
ENDMDL
MODEL 2
REMARK VINA RESULT:      -6.7      2.261      8.460
REMARK  Name = 5353631
REMARK  16 active torsions:
REMARK  status: ('A' for Active; 'I' for Inactive)
REMARK    1  A    between atoms: C_1  and  C_2
REMARK    2  A    between atoms: C_1  and  O_15
REMARK    3  A    between atoms: C_1  and  C_22
REMARK    4  A    between atoms: C_2  and  O_4
REMARK    5  A    between atoms: C_2  and  C_6
REMARK    6  A    between atoms: C_7  and  C_10
REMARK    7  A    between atoms: O_15  and  P_16
REMARK    8  A    between atoms: P_16  and  O_18
REMARK    9  A    between atoms: P_16  and  O_20
REMARK   10  A    between atoms: C_22  and  C_23
REMARK   11  A    between atoms: C_23  and  O_24
REMARK   12  A    between atoms: C_23  and  C_26
REMARK   13  A    between atoms: C_27  and  C_28
REMARK   14  A    between atoms: C_29  and  C_30
REMARK   15  A    between atoms: C_31  and  C_32
REMARK   16  A    between atoms: C_32  and  O_33
REMARK                            x       y       z     vdW  Elec       q    Type
REMARK                         _______ _______ _______ _____ _____    ______ ____
ROOT
ATOM      1  C   UNL     1     -35.836  22.834   3.834  0.00  0.00    +0.157 C 
ENDROOT
BRANCH   1   2
ATOM      2  C   UNL     1     -35.542  23.569   5.171  0.00  0.00    +0.132 C 
ATOM      3  C   UNL     1     -35.254  22.583   6.311  0.00  0.00    +0.036 C 
BRANCH   2   4
ATOM      4  O   UNL     1     -36.755  24.254   5.522  0.00  0.00    -0.380 OA
ATOM      5  H   UNL     1     -37.518  23.713   5.268  0.00  0.00    +0.211 HD
ENDBRANCH   2   4
BRANCH   2   6
ATOM      6  C   UNL     1     -34.386  24.546   5.046  0.00  0.00    +0.001 C 
ATOM      7  C   UNL     1     -34.325  25.782   5.564  0.00  0.00    +0.015 C 
BRANCH   7  10
ATOM      8  O   UNL     1     -33.530  27.752   4.495  0.00  0.00    -0.444 OA
ATOM      9  O   UNL     1     -32.816  29.585   3.367  0.00  0.00    -0.245 OA
ATOM     10  C   UNL     1     -33.152  26.692   5.401  0.00  0.00    +0.195 C 
ATOM     11  C   UNL     1     -32.697  27.268   6.736  0.00  0.00    +0.075 C 
ATOM     12  C   UNL     1     -31.692  28.341   6.486  0.00  0.00    -0.015 C 
ATOM     13  C   UNL     1     -32.702  28.815   4.314  0.00  0.00    +0.341 C 
ATOM     14  C   UNL     1     -31.668  29.032   5.343  0.00  0.00    +0.077 C 
ENDBRANCH   7  10
ENDBRANCH   2   6
ENDBRANCH   1   2
BRANCH   1  15
ATOM     15  O   UNL     1     -37.256  22.801   3.644  0.00  0.00    -0.273 OA
BRANCH  15  16
ATOM     16  P   UNL     1     -37.914  23.901   2.667  0.00  0.00    +0.473 P 
ATOM     17  O   UNL     1     -38.561  23.352   1.430  0.00  0.00    -0.227 OA
BRANCH  16  18
ATOM     18  O   UNL     1     -38.908  24.699   3.662  0.00  0.00    -0.303 OA
ATOM     19  H   UNL     1     -38.433  24.936   4.473  0.00  0.00    +0.222 HD
ENDBRANCH  16  18
BRANCH  16  20
ATOM     20  O   UNL     1     -36.717  24.958   2.411  0.00  0.00    -0.303 OA
ATOM     21  H   UNL     1     -35.947  24.494   2.047  0.00  0.00    +0.222 HD
ENDBRANCH  16  20
ENDBRANCH  15  16
ENDBRANCH   1  15
BRANCH   1  22
ATOM     22  C   UNL     1     -35.294  21.392   3.739  0.00  0.00    +0.067 C 
BRANCH  22  23
ATOM     23  C   UNL     1     -35.597  20.666   2.413  0.00  0.00    +0.135 C 
BRANCH  23  24
ATOM     24  O   UNL     1     -36.756  19.858   2.605  0.00  0.00    -0.380 OA
ATOM     25  H   UNL     1     -37.457  20.391   3.012  0.00  0.00    +0.211 HD
ENDBRANCH  23  24
BRANCH  23  26
ATOM     26  C   UNL     1     -34.428  19.887   1.865  0.00  0.00    +0.003 C 
ATOM     27  C   UNL     1     -33.713  20.190   0.770  0.00  0.00    -0.002 C 
BRANCH  27  28
ATOM     28  C   UNL     1     -32.600  19.389   0.308  0.00  0.00    -0.000 C 
ATOM     29  C   UNL     1     -32.054  18.407   1.041  0.00  0.00    -0.000 C 
BRANCH  29  30
ATOM     30  C   UNL     1     -30.943  17.604   0.579  0.00  0.00    -0.002 C 
ATOM     31  C   UNL     1     -29.718  17.667   1.119  0.00  0.00    +0.005 C 
BRANCH  31  32
ATOM     32  C   UNL     1     -28.565  16.836   0.653  0.00  0.00    +0.163 C 
BRANCH  32  33
ATOM     33  O   UNL     1     -27.644  16.690   1.725  0.00  0.00    -0.377 OA
ATOM     34  H   UNL     1     -28.048  17.014   2.545  0.00  0.00    +0.211 HD
ENDBRANCH  32  33
ENDBRANCH  31  32
ENDBRANCH  29  30
ENDBRANCH  27  28
ENDBRANCH  23  26
ENDBRANCH  22  23
ENDBRANCH   1  22
TORSDOF 16
ENDMDL
MODEL 3
REMARK VINA RESULT:      -6.6      1.997      2.871
REMARK  Name = 5353631
REMARK  16 active torsions:
REMARK  status: ('A' for Active; 'I' for Inactive)
REMARK    1  A    between atoms: C_1  and  C_2
REMARK    2  A    between atoms: C_1  and  O_15
REMARK    3  A    between atoms: C_1  and  C_22
REMARK    4  A    between atoms: C_2  and  O_4
REMARK    5  A    between atoms: C_2  and  C_6
REMARK    6  A    between atoms: C_7  and  C_10
REMARK    7  A    between atoms: O_15  and  P_16
REMARK    8  A    between atoms: P_16  and  O_18
REMARK    9  A    between atoms: P_16  and  O_20
REMARK   10  A    between atoms: C_22  and  C_23
REMARK   11  A    between atoms: C_23  and  O_24
REMARK   12  A    between atoms: C_23  and  C_26
REMARK   13  A    between atoms: C_27  and  C_28
REMARK   14  A    between atoms: C_29  and  C_30
REMARK   15  A    between atoms: C_31  and  C_32
REMARK   16  A    between atoms: C_32  and  O_33
REMARK                            x       y       z     vdW  Elec       q    Type
REMARK                         _______ _______ _______ _____ _____    ______ ____
ROOT
ATOM      1  C   UNL     1     -36.137  24.463   3.653  0.00  0.00    +0.157 C 
ENDROOT
BRANCH   1   2
ATOM      2  C   UNL     1     -36.472  22.969   3.389  0.00  0.00    +0.132 C 
ATOM      3  C   UNL     1     -37.864  22.800   2.766  0.00  0.00    +0.036 C 
BRANCH   2   4
ATOM      4  O   UNL     1     -36.525  22.340   4.680  0.00  0.00    -0.380 OA
ATOM      5  H   UNL     1     -37.436  22.356   5.011  0.00  0.00    +0.211 HD
ENDBRANCH   2   4
BRANCH   2   6
ATOM      6  C   UNL     1     -35.438  22.297   2.502  0.00  0.00    +0.001 C 
ATOM      7  C   UNL     1     -35.624  21.205   1.745  0.00  0.00    +0.015 C 
BRANCH   7  10
ATOM      8  O   UNL     1     -33.638  21.642   0.513  0.00  0.00    -0.444 OA
ATOM      9  O   UNL     1     -31.802  22.155  -0.717  0.00  0.00    -0.245 OA
ATOM     10  C   UNL     1     -34.558  20.596   0.894  0.00  0.00    +0.195 C 
ATOM     11  C   UNL     1     -33.824  19.480   1.626  0.00  0.00    +0.075 C 
ATOM     12  C   UNL     1     -32.629  19.078   0.828  0.00  0.00    -0.015 C 
ATOM     13  C   UNL     1     -32.475  21.324  -0.117  0.00  0.00    +0.341 C 
ATOM     14  C   UNL     1     -32.027  19.923  -0.013  0.00  0.00    +0.077 C 
ENDBRANCH   7  10
ENDBRANCH   2   6
ENDBRANCH   1   2
BRANCH   1  15
ATOM     15  O   UNL     1     -36.077  25.137   2.390  0.00  0.00    -0.273 OA
BRANCH  15  16
ATOM     16  P   UNL     1     -36.999  26.443   2.185  0.00  0.00    +0.473 P 
ATOM     17  O   UNL     1     -37.593  26.599   0.816  0.00  0.00    -0.227 OA
BRANCH  16  18
ATOM     18  O   UNL     1     -38.074  26.301   3.385  0.00  0.00    -0.303 OA
ATOM     19  H   UNL     1     -38.071  27.109   3.920  0.00  0.00    +0.222 HD
ENDBRANCH  16  18
BRANCH  16  20
ATOM     20  O   UNL     1     -36.056  27.663   2.674  0.00  0.00    -0.303 OA
ATOM     21  H   UNL     1     -35.819  27.536   3.605  0.00  0.00    +0.222 HD
ENDBRANCH  16  20
ENDBRANCH  15  16
ENDBRANCH   1  15
BRANCH   1  22
ATOM     22  C   UNL     1     -34.817  24.721   4.411  0.00  0.00    +0.067 C 
BRANCH  22  23
ATOM     23  C   UNL     1     -34.933  25.674   5.618  0.00  0.00    +0.135 C 
BRANCH  23  24
ATOM     24  O   UNL     1     -36.128  26.436   5.469  0.00  0.00    -0.380 OA
ATOM     25  H   UNL     1     -36.690  26.027   4.792  0.00  0.00    +0.211 HD
ENDBRANCH  23  24
BRANCH  23  26
ATOM     26  C   UNL     1     -33.714  26.536   5.831  0.00  0.00    +0.003 C 
ATOM     27  C   UNL     1     -33.141  27.342   4.924  0.00  0.00    -0.002 C 
BRANCH  27  28
ATOM     28  C   UNL     1     -31.969  28.142   5.209  0.00  0.00    -0.000 C 
ATOM     29  C   UNL     1     -31.775  28.761   6.383  0.00  0.00    -0.000 C 
BRANCH  29  30
ATOM     30  C   UNL     1     -30.603  29.559   6.670  0.00  0.00    -0.002 C 
ATOM     31  C   UNL     1     -29.431  29.031   7.050  0.00  0.00    +0.005 C 
BRANCH  31  32
ATOM     32  C   UNL     1     -28.213  29.847   7.342  0.00  0.00    +0.163 C 
BRANCH  32  33
ATOM     33  O   UNL     1     -28.028  29.905   8.750  0.00  0.00    -0.377 OA
ATOM     34  H   UNL     1     -28.481  30.686   9.104  0.00  0.00    +0.211 HD
ENDBRANCH  32  33
ENDBRANCH  31  32
ENDBRANCH  29  30
ENDBRANCH  27  28
ENDBRANCH  23  26
ENDBRANCH  22  23
ENDBRANCH   1  22
TORSDOF 16
ENDMDL
MODEL 4
REMARK VINA RESULT:      -6.5      2.503      8.874
REMARK  Name = 5353631
REMARK  16 active torsions:
REMARK  status: ('A' for Active; 'I' for Inactive)
REMARK    1  A    between atoms: C_1  and  C_2
REMARK    2  A    between atoms: C_1  and  O_15
REMARK    3  A    between atoms: C_1  and  C_22
REMARK    4  A    between atoms: C_2  and  O_4
REMARK    5  A    between atoms: C_2  and  C_6
REMARK    6  A    between atoms: C_7  and  C_10
REMARK    7  A    between atoms: O_15  and  P_16
REMARK    8  A    between atoms: P_16  and  O_18
REMARK    9  A    between atoms: P_16  and  O_20
REMARK   10  A    between atoms: C_22  and  C_23
REMARK   11  A    between atoms: C_23  and  O_24
REMARK   12  A    between atoms: C_23  and  C_26
REMARK   13  A    between atoms: C_27  and  C_28
REMARK   14  A    between atoms: C_29  and  C_30
REMARK   15  A    between atoms: C_31  and  C_32
REMARK   16  A    between atoms: C_32  and  O_33
REMARK                            x       y       z     vdW  Elec       q    Type
REMARK                         _______ _______ _______ _____ _____    ______ ____
ROOT
ATOM      1  C   UNL     1     -36.116  24.866   3.609  0.00  0.00    +0.157 C 
ENDROOT
BRANCH   1   2
ATOM      2  C   UNL     1     -35.536  25.800   4.706  0.00  0.00    +0.132 C 
ATOM      3  C   UNL     1     -34.543  25.062   5.615  0.00  0.00    +0.036 C 
BRANCH   2   4
ATOM      4  O   UNL     1     -36.646  26.175   5.537  0.00  0.00    -0.380 OA
ATOM      5  H   UNL     1     -37.431  25.670   5.276  0.00  0.00    +0.211 HD
ENDBRANCH   2   4
BRANCH   2   6
ATOM      6  C   UNL     1     -34.863  27.028   4.117  0.00  0.00    +0.001 C 
ATOM      7  C   UNL     1     -33.544  27.274   4.077  0.00  0.00    +0.015 C 
BRANCH   7  10
ATOM      8  O   UNL     1     -33.969  29.530   3.458  0.00  0.00    -0.444 OA
ATOM      9  O   UNL     1     -34.477  31.643   2.810  0.00  0.00    -0.245 OA
ATOM     10  C   UNL     1     -32.950  28.507   3.480  0.00  0.00    +0.195 C 
ATOM     11  C   UNL     1     -31.733  28.981   4.265  0.00  0.00    +0.075 C 
ATOM     12  C   UNL     1     -31.333  30.331   3.773  0.00  0.00    -0.015 C 
ATOM     13  C   UNL     1     -33.638  30.807   3.127  0.00  0.00    +0.341 C 
ATOM     14  C   UNL     1     -32.210  31.163   3.206  0.00  0.00    +0.077 C 
ENDBRANCH   7  10
ENDBRANCH   2   6
ENDBRANCH   1   2
BRANCH   1  15
ATOM     15  O   UNL     1     -37.445  24.495   3.995  0.00  0.00    -0.273 OA
BRANCH  15  16
ATOM     16  P   UNL     1     -38.669  25.009   3.082  0.00  0.00    +0.473 P 
ATOM     17  O   UNL     1     -38.762  24.380   1.722  0.00  0.00    -0.227 OA
BRANCH  16  18
ATOM     18  O   UNL     1     -39.947  24.757   4.040  0.00  0.00    -0.303 OA
ATOM     19  H   UNL     1     -39.895  25.344   4.810  0.00  0.00    +0.222 HD
ENDBRANCH  16  18
BRANCH  16  20
ATOM     20  O   UNL     1     -38.510  26.618   3.090  0.00  0.00    -0.303 OA
ATOM     21  H   UNL     1     -39.242  27.013   3.587  0.00  0.00    +0.222 HD
ENDBRANCH  16  20
ENDBRANCH  15  16
ENDBRANCH   1  15
BRANCH   1  22
ATOM     22  C   UNL     1     -35.306  23.580   3.339  0.00  0.00    +0.067 C 
BRANCH  22  23
ATOM     23  C   UNL     1     -36.047  22.263   3.645  0.00  0.00    +0.135 C 
BRANCH  23  24
ATOM     24  O   UNL     1     -36.235  22.178   5.056  0.00  0.00    -0.380 OA
ATOM     25  H   UNL     1     -37.171  22.011   5.247  0.00  0.00    +0.211 HD
ENDBRANCH  23  24
BRANCH  23  26
ATOM     26  C   UNL     1     -35.377  21.040   3.071  0.00  0.00    +0.003 C 
ATOM     27  C   UNL     1     -35.312  20.704   1.773  0.00  0.00    -0.002 C 
BRANCH  27  28
ATOM     28  C   UNL     1     -34.647  19.509   1.302  0.00  0.00    -0.000 C 
ATOM     29  C   UNL     1     -33.337  19.282   1.483  0.00  0.00    -0.000 C 
BRANCH  29  30
ATOM     30  C   UNL     1     -32.671  18.086   1.014  0.00  0.00    -0.002 C 
ATOM     31  C   UNL     1     -31.369  18.048   0.698  0.00  0.00    +0.005 C 
BRANCH  31  32
ATOM     32  C   UNL     1     -30.671  16.815   0.218  0.00  0.00    +0.163 C 
BRANCH  32  33
ATOM     33  O   UNL     1     -31.557  15.711   0.342  0.00  0.00    -0.377 OA
ATOM     34  H   UNL     1     -32.432  16.027   0.613  0.00  0.00    +0.211 HD
ENDBRANCH  32  33
ENDBRANCH  31  32
ENDBRANCH  29  30
ENDBRANCH  27  28
ENDBRANCH  23  26
ENDBRANCH  22  23
ENDBRANCH   1  22
TORSDOF 16
ENDMDL
MODEL 5
REMARK VINA RESULT:      -6.5      3.878      9.488
REMARK  Name = 5353631
REMARK  16 active torsions:
REMARK  status: ('A' for Active; 'I' for Inactive)
REMARK    1  A    between atoms: C_1  and  C_2
REMARK    2  A    between atoms: C_1  and  O_15
REMARK    3  A    between atoms: C_1  and  C_22
REMARK    4  A    between atoms: C_2  and  O_4
REMARK    5  A    between atoms: C_2  and  C_6
REMARK    6  A    between atoms: C_7  and  C_10
REMARK    7  A    between atoms: O_15  and  P_16
REMARK    8  A    between atoms: P_16  and  O_18
REMARK    9  A    between atoms: P_16  and  O_20
REMARK   10  A    between atoms: C_22  and  C_23
REMARK   11  A    between atoms: C_23  and  O_24
REMARK   12  A    between atoms: C_23  and  C_26
REMARK   13  A    between atoms: C_27  and  C_28
REMARK   14  A    between atoms: C_29  and  C_30
REMARK   15  A    between atoms: C_31  and  C_32
REMARK   16  A    between atoms: C_32  and  O_33
REMARK                            x       y       z     vdW  Elec       q    Type
REMARK                         _______ _______ _______ _____ _____    ______ ____
ROOT
ATOM      1  C   UNL     1     -36.512  24.997   3.083  0.00  0.00    +0.157 C 
ENDROOT
BRANCH   1   2
ATOM      2  C   UNL     1     -37.364  25.972   2.225  0.00  0.00    +0.132 C 
ATOM      3  C   UNL     1     -37.530  25.466   0.786  0.00  0.00    +0.036 C 
BRANCH   2   4
ATOM      4  O   UNL     1     -36.610  27.192   2.143  0.00  0.00    -0.380 OA
ATOM      5  H   UNL     1     -36.247  27.408   3.016  0.00  0.00    +0.211 HD
ENDBRANCH   2   4
BRANCH   2   6
ATOM      6  C   UNL     1     -38.734  26.223   2.832  0.00  0.00    +0.001 C 
ATOM      7  C   UNL     1     -39.909  25.781   2.360  0.00  0.00    +0.015 C 
BRANCH   7  10
ATOM      8  O   UNL     1     -41.168  27.400   3.563  0.00  0.00    -0.444 OA
ATOM      9  O   UNL     1     -42.272  28.959   4.786  0.00  0.00    -0.245 OA
ATOM     10  C   UNL     1     -41.223  26.066   3.011  0.00  0.00    +0.195 C 
ATOM     11  C   UNL     1     -42.377  25.944   2.024  0.00  0.00    +0.075 C 
ATOM     12  C   UNL     1     -43.620  26.469   2.661  0.00  0.00    -0.015 C 
ATOM     13  C   UNL     1     -42.298  27.975   4.056  0.00  0.00    +0.341 C 
ATOM     14  C   UNL     1     -43.581  27.383   3.634  0.00  0.00    +0.077 C 
ENDBRANCH   7  10
ENDBRANCH   2   6
ENDBRANCH   1   2
BRANCH   1  15
ATOM     15  O   UNL     1     -35.373  25.713   3.576  0.00  0.00    -0.273 OA
BRANCH  15  16
ATOM     16  P   UNL     1     -35.201  25.857   5.172  0.00  0.00    +0.473 P 
ATOM     17  O   UNL     1     -33.978  26.601   5.620  0.00  0.00    -0.227 OA
BRANCH  16  18
ATOM     18  O   UNL     1     -36.607  26.524   5.613  0.00  0.00    -0.303 OA
ATOM     19  H   UNL     1     -37.322  26.165   5.065  0.00  0.00    +0.222 HD
ENDBRANCH  16  18
BRANCH  16  20
ATOM     20  O   UNL     1     -35.325  24.338   5.713  0.00  0.00    -0.303 OA
ATOM     21  H   UNL     1     -35.866  23.819   5.099  0.00  0.00    +0.222 HD
ENDBRANCH  16  20
ENDBRANCH  15  16
ENDBRANCH   1  15
BRANCH   1  22
ATOM     22  C   UNL     1     -36.018  23.731   2.352  0.00  0.00    +0.067 C 
BRANCH  22  23
ATOM     23  C   UNL     1     -36.720  22.422   2.764  0.00  0.00    +0.135 C 
BRANCH  23  24
ATOM     24  O   UNL     1     -36.652  22.310   4.184  0.00  0.00    -0.380 OA
ATOM     25  H   UNL     1     -37.132  21.516   4.469  0.00  0.00    +0.211 HD
ENDBRANCH  23  24
BRANCH  23  26
ATOM     26  C   UNL     1     -36.191  21.199   2.058  0.00  0.00    +0.003 C 
ATOM     27  C   UNL     1     -34.972  20.657   2.209  0.00  0.00    -0.002 C 
BRANCH  27  28
ATOM     28  C   UNL     1     -34.540  19.477   1.493  0.00  0.00    -0.000 C 
ATOM     29  C   UNL     1     -33.263  19.066   1.465  0.00  0.00    -0.000 C 
BRANCH  29  30
ATOM     30  C   UNL     1     -32.830  17.885   0.751  0.00  0.00    -0.002 C 
ATOM     31  C   UNL     1     -33.679  16.966   0.270  0.00  0.00    +0.005 C 
BRANCH  31  32
ATOM     32  C   UNL     1     -33.241  15.745  -0.474  0.00  0.00    +0.163 C 
BRANCH  32  33
ATOM     33  O   UNL     1     -32.228  15.091   0.276  0.00  0.00    -0.377 OA
ATOM     34  H   UNL     1     -32.554  14.230   0.579  0.00  0.00    +0.211 HD
ENDBRANCH  32  33
ENDBRANCH  31  32
ENDBRANCH  29  30
ENDBRANCH  27  28
ENDBRANCH  23  26
ENDBRANCH  22  23
ENDBRANCH   1  22
TORSDOF 16
ENDMDL
MODEL 6
REMARK VINA RESULT:      -6.3      2.061      8.367
REMARK  Name = 5353631
REMARK  16 active torsions:
REMARK  status: ('A' for Active; 'I' for Inactive)
REMARK    1  A    between atoms: C_1  and  C_2
REMARK    2  A    between atoms: C_1  and  O_15
REMARK    3  A    between atoms: C_1  and  C_22
REMARK    4  A    between atoms: C_2  and  O_4
REMARK    5  A    between atoms: C_2  and  C_6
REMARK    6  A    between atoms: C_7  and  C_10
REMARK    7  A    between atoms: O_15  and  P_16
REMARK    8  A    between atoms: P_16  and  O_18
REMARK    9  A    between atoms: P_16  and  O_20
REMARK   10  A    between atoms: C_22  and  C_23
REMARK   11  A    between atoms: C_23  and  O_24
REMARK   12  A    between atoms: C_23  and  C_26
REMARK   13  A    between atoms: C_27  and  C_28
REMARK   14  A    between atoms: C_29  and  C_30
REMARK   15  A    between atoms: C_31  and  C_32
REMARK   16  A    between atoms: C_32  and  O_33
REMARK                            x       y       z     vdW  Elec       q    Type
REMARK                         _______ _______ _______ _____ _____    ______ ____
ROOT
ATOM      1  C   UNL     1     -36.094  24.933   3.636  0.00  0.00    +0.157 C 
ENDROOT
BRANCH   1   2
ATOM      2  C   UNL     1     -35.510  25.881   4.720  0.00  0.00    +0.132 C 
ATOM      3  C   UNL     1     -34.943  25.099   5.913  0.00  0.00    +0.036 C 
BRANCH   2   4
ATOM      4  O   UNL     1     -36.620  26.642   5.222  0.00  0.00    -0.380 OA
ATOM      5  H   UNL     1     -36.414  26.965   6.113  0.00  0.00    +0.211 HD
ENDBRANCH   2   4
BRANCH   2   6
ATOM      6  C   UNL     1     -34.435  26.797   4.161  0.00  0.00    +0.001 C 
ATOM      7  C   UNL     1     -33.248  27.072   4.724  0.00  0.00    +0.015 C 
BRANCH   7  10
ATOM      8  O   UNL     1     -31.032  27.913   4.912  0.00  0.00    -0.444 OA
ATOM      9  O   UNL     1     -28.941  28.738   5.212  0.00  0.00    -0.245 OA
ATOM     10  C   UNL     1     -32.236  27.987   4.116  0.00  0.00    +0.195 C 
ATOM     11  C   UNL     1     -31.942  27.617   2.668  0.00  0.00    +0.075 C 
ATOM     12  C   UNL     1     -30.764  28.400   2.195  0.00  0.00    -0.015 C 
ATOM     13  C   UNL     1     -29.893  28.514   4.473  0.00  0.00    +0.341 C 
ATOM     14  C   UNL     1     -29.833  28.853   3.040  0.00  0.00    +0.077 C 
ENDBRANCH   7  10
ENDBRANCH   2   6
ENDBRANCH   1   2
BRANCH   1  15
ATOM     15  O   UNL     1     -37.411  24.546   4.043  0.00  0.00    -0.273 OA
BRANCH  15  16
ATOM     16  P   UNL     1     -38.647  24.950   3.091  0.00  0.00    +0.473 P 
ATOM     17  O   UNL     1     -38.818  24.098   1.868  0.00  0.00    -0.227 OA
BRANCH  16  18
ATOM     18  O   UNL     1     -39.897  24.931   4.118  0.00  0.00    -0.303 OA
ATOM     19  H   UNL     1     -40.475  25.688   3.937  0.00  0.00    +0.222 HD
ENDBRANCH  16  18
BRANCH  16  20
ATOM     20  O   UNL     1     -38.421  26.527   2.811  0.00  0.00    -0.303 OA
ATOM     21  H   UNL     1     -37.747  26.870   3.418  0.00  0.00    +0.222 HD
ENDBRANCH  16  20
ENDBRANCH  15  16
ENDBRANCH   1  15
BRANCH   1  22
ATOM     22  C   UNL     1     -35.270  23.658   3.359  0.00  0.00    +0.067 C 
BRANCH  22  23
ATOM     23  C   UNL     1     -36.036  22.332   3.542  0.00  0.00    +0.135 C 
BRANCH  23  24
ATOM     24  O   UNL     1     -36.288  22.154   4.933  0.00  0.00    -0.380 OA
ATOM     25  H   UNL     1     -35.906  22.895   5.429  0.00  0.00    +0.211 HD
ENDBRANCH  23  24
BRANCH  23  26
ATOM     26  C   UNL     1     -35.352  21.143   2.916  0.00  0.00    +0.003 C 
ATOM     27  C   UNL     1     -35.511  20.705   1.657  0.00  0.00    -0.002 C 
BRANCH  27  28
ATOM     28  C   UNL     1     -34.814  19.551   1.130  0.00  0.00    -0.000 C 
ATOM     29  C   UNL     1     -33.562  19.229   1.487  0.00  0.00    -0.000 C 
BRANCH  29  30
ATOM     30  C   UNL     1     -32.865  18.074   0.963  0.00  0.00    -0.002 C 
ATOM     31  C   UNL     1     -31.541  18.047   0.757  0.00  0.00    +0.005 C 
BRANCH  31  32
ATOM     32  C   UNL     1     -30.812  16.857   0.221  0.00  0.00    +0.163 C 
BRANCH  32  33
ATOM     33  O   UNL     1     -29.606  16.693   0.953  0.00  0.00    -0.377 OA
ATOM     34  H   UNL     1     -29.598  17.303   1.707  0.00  0.00    +0.211 HD
ENDBRANCH  32  33
ENDBRANCH  31  32
ENDBRANCH  29  30
ENDBRANCH  27  28
ENDBRANCH  23  26
ENDBRANCH  22  23
ENDBRANCH   1  22
TORSDOF 16
ENDMDL
MODEL 7
REMARK VINA RESULT:      -6.3      1.941      2.602
REMARK  Name = 5353631
REMARK  16 active torsions:
REMARK  status: ('A' for Active; 'I' for Inactive)
REMARK    1  A    between atoms: C_1  and  C_2
REMARK    2  A    between atoms: C_1  and  O_15
REMARK    3  A    between atoms: C_1  and  C_22
REMARK    4  A    between atoms: C_2  and  O_4
REMARK    5  A    between atoms: C_2  and  C_6
REMARK    6  A    between atoms: C_7  and  C_10
REMARK    7  A    between atoms: O_15  and  P_16
REMARK    8  A    between atoms: P_16  and  O_18
REMARK    9  A    between atoms: P_16  and  O_20
REMARK   10  A    between atoms: C_22  and  C_23
REMARK   11  A    between atoms: C_23  and  O_24
REMARK   12  A    between atoms: C_23  and  C_26
REMARK   13  A    between atoms: C_27  and  C_28
REMARK   14  A    between atoms: C_29  and  C_30
REMARK   15  A    between atoms: C_31  and  C_32
REMARK   16  A    between atoms: C_32  and  O_33
REMARK                            x       y       z     vdW  Elec       q    Type
REMARK                         _______ _______ _______ _____ _____    ______ ____
ROOT
ATOM      1  C   UNL     1     -35.895  22.118   2.562  0.00  0.00    +0.157 C 
ENDROOT
BRANCH   1   2
ATOM      2  C   UNL     1     -36.208  20.798   1.804  0.00  0.00    +0.132 C 
ATOM      3  C   UNL     1     -37.394  20.962   0.844  0.00  0.00    +0.036 C 
BRANCH   2   4
ATOM      4  O   UNL     1     -36.622  19.854   2.805  0.00  0.00    -0.380 OA
ATOM      5  H   UNL     1     -37.097  19.122   2.383  0.00  0.00    +0.211 HD
ENDBRANCH   2   4
BRANCH   2   6
ATOM      6  C   UNL     1     -35.005  20.279   1.035  0.00  0.00    +0.001 C 
ATOM      7  C   UNL     1     -34.020  19.508   1.520  0.00  0.00    +0.015 C 
BRANCH   7  10
ATOM      8  O   UNL     1     -32.047  20.178   0.375  0.00  0.00    -0.444 OA
ATOM      9  O   UNL     1     -30.231  20.908  -0.773  0.00  0.00    -0.245 OA
ATOM     10  C   UNL     1     -32.863  19.033   0.703  0.00  0.00    +0.195 C 
ATOM     11  C   UNL     1     -32.041  17.988   1.448  0.00  0.00    +0.075 C 
ATOM     12  C   UNL     1     -30.781  17.732   0.693  0.00  0.00    -0.015 C 
ATOM     13  C   UNL     1     -30.833  19.998  -0.213  0.00  0.00    +0.341 C 
ATOM     14  C   UNL     1     -30.242  18.652  -0.111  0.00  0.00    +0.077 C 
ENDBRANCH   7  10
ENDBRANCH   2   6
ENDBRANCH   1   2
BRANCH   1  15
ATOM     15  O   UNL     1     -34.881  22.821   1.834  0.00  0.00    -0.273 OA
BRANCH  15  16
ATOM     16  P   UNL     1     -35.196  24.330   1.364  0.00  0.00    +0.473 P 
ATOM     17  O   UNL     1     -36.508  24.886   1.832  0.00  0.00    -0.227 OA
BRANCH  16  18
ATOM     18  O   UNL     1     -33.890  25.134   1.878  0.00  0.00    -0.303 OA
ATOM     19  H   UNL     1     -34.112  26.071   1.994  0.00  0.00    +0.222 HD
ENDBRANCH  16  18
BRANCH  16  20
ATOM     20  O   UNL     1     -34.997  24.285  -0.241  0.00  0.00    -0.303 OA
ATOM     21  H   UNL     1     -34.118  23.932  -0.448  0.00  0.00    +0.222 HD
ENDBRANCH  16  20
ENDBRANCH  15  16
ENDBRANCH   1  15
BRANCH   1  22
ATOM     22  C   UNL     1     -35.423  21.947   4.022  0.00  0.00    +0.067 C 
BRANCH  22  23
ATOM     23  C   UNL     1     -35.869  23.063   4.987  0.00  0.00    +0.135 C 
BRANCH  23  24
ATOM     24  O   UNL     1     -37.047  23.666   4.456  0.00  0.00    -0.380 OA
ATOM     25  H   UNL     1     -37.135  23.432   3.519  0.00  0.00    +0.211 HD
ENDBRANCH  23  24
BRANCH  23  26
ATOM     26  C   UNL     1     -34.789  24.069   5.295  0.00  0.00    +0.003 C 
ATOM     27  C   UNL     1     -34.938  25.402   5.359  0.00  0.00    -0.002 C 
BRANCH  27  28
ATOM     28  C   UNL     1     -33.847  26.303   5.663  0.00  0.00    -0.000 C 
ATOM     29  C   UNL     1     -33.328  27.152   4.763  0.00  0.00    -0.000 C 
BRANCH  29  30
ATOM     30  C   UNL     1     -32.239  28.054   5.067  0.00  0.00    -0.002 C 
ATOM     31  C   UNL     1     -31.846  28.335   6.317  0.00  0.00    +0.005 C 
BRANCH  31  32
ATOM     32  C   UNL     1     -30.717  29.261   6.640  0.00  0.00    +0.163 C 
BRANCH  32  33
ATOM     33  O   UNL     1     -29.644  28.503   7.180  0.00  0.00    -0.377 OA
ATOM     34  H   UNL     1     -28.942  29.102   7.477  0.00  0.00    +0.211 HD
ENDBRANCH  32  33
ENDBRANCH  31  32
ENDBRANCH  29  30
ENDBRANCH  27  28
ENDBRANCH  23  26
ENDBRANCH  22  23
ENDBRANCH   1  22
TORSDOF 16
ENDMDL
MODEL 8
REMARK VINA RESULT:      -6.3      2.399      8.088
REMARK  Name = 5353631
REMARK  16 active torsions:
REMARK  status: ('A' for Active; 'I' for Inactive)
REMARK    1  A    between atoms: C_1  and  C_2
REMARK    2  A    between atoms: C_1  and  O_15
REMARK    3  A    between atoms: C_1  and  C_22
REMARK    4  A    between atoms: C_2  and  O_4
REMARK    5  A    between atoms: C_2  and  C_6
REMARK    6  A    between atoms: C_7  and  C_10
REMARK    7  A    between atoms: O_15  and  P_16
REMARK    8  A    between atoms: P_16  and  O_18
REMARK    9  A    between atoms: P_16  and  O_20
REMARK   10  A    between atoms: C_22  and  C_23
REMARK   11  A    between atoms: C_23  and  O_24
REMARK   12  A    between atoms: C_23  and  C_26
REMARK   13  A    between atoms: C_27  and  C_28
REMARK   14  A    between atoms: C_29  and  C_30
REMARK   15  A    between atoms: C_31  and  C_32
REMARK   16  A    between atoms: C_32  and  O_33
REMARK                            x       y       z     vdW  Elec       q    Type
REMARK                         _______ _______ _______ _____ _____    ______ ____
ROOT
ATOM      1  C   UNL     1     -36.509  23.984   3.614  0.00  0.00    +0.157 C 
ENDROOT
BRANCH   1   2
ATOM      2  C   UNL     1     -35.661  24.643   4.738  0.00  0.00    +0.132 C 
ATOM      3  C   UNL     1     -35.103  23.599   5.715  0.00  0.00    +0.036 C 
BRANCH   2   4
ATOM      4  O   UNL     1     -36.569  25.461   5.492  0.00  0.00    -0.380 OA
ATOM      5  H   UNL     1     -36.683  25.086   6.379  0.00  0.00    +0.211 HD
ENDBRANCH   2   4
BRANCH   2   6
ATOM      6  C   UNL     1     -34.519  25.474   4.181  0.00  0.00    +0.001 C 
ATOM      7  C   UNL     1     -34.047  26.624   4.687  0.00  0.00    +0.015 C 
BRANCH   7  10
ATOM      8  O   UNL     1     -32.035  26.451   3.432  0.00  0.00    -0.444 OA
ATOM      9  O   UNL     1     -30.078  26.196   2.313  0.00  0.00    -0.245 OA
ATOM     10  C   UNL     1     -32.916  27.391   4.085  0.00  0.00    +0.195 C 
ATOM     11  C   UNL     1     -33.411  28.436   3.092  0.00  0.00    +0.075 C 
ATOM     12  C   UNL     1     -32.243  28.997   2.354  0.00  0.00    -0.015 C 
ATOM     13  C   UNL     1     -31.018  26.907   2.651  0.00  0.00    +0.341 C 
ATOM     14  C   UNL     1     -31.116  28.302   2.185  0.00  0.00    +0.077 C 
ENDBRANCH   7  10
ENDBRANCH   2   6
ENDBRANCH   1   2
BRANCH   1  15
ATOM     15  O   UNL     1     -37.887  24.044   4.000  0.00  0.00    -0.273 OA
BRANCH  15  16
ATOM     16  P   UNL     1     -38.874  24.980   3.136  0.00  0.00    +0.473 P 
ATOM     17  O   UNL     1     -39.136  24.512   1.735  0.00  0.00    -0.227 OA
BRANCH  16  18
ATOM     18  O   UNL     1     -40.183  25.071   4.082  0.00  0.00    -0.303 OA
ATOM     19  H   UNL     1     -40.918  25.457   3.581  0.00  0.00    +0.222 HD
ENDBRANCH  16  18
BRANCH  16  20
ATOM     20  O   UNL     1     -38.221  26.454   3.263  0.00  0.00    -0.303 OA
ATOM     21  H   UNL     1     -38.722  26.976   3.908  0.00  0.00    +0.222 HD
ENDBRANCH  16  20
ENDBRANCH  15  16
ENDBRANCH   1  15
BRANCH   1  22
ATOM     22  C   UNL     1     -36.153  22.517   3.291  0.00  0.00    +0.067 C 
BRANCH  22  23
ATOM     23  C   UNL     1     -36.812  21.950   2.018  0.00  0.00    +0.135 C 
BRANCH  23  24
ATOM     24  O   UNL     1     -38.116  21.489   2.361  0.00  0.00    -0.380 OA
ATOM     25  H   UNL     1     -38.134  20.519   2.336  0.00  0.00    +0.211 HD
ENDBRANCH  23  24
BRANCH  23  26
ATOM     26  C   UNL     1     -35.987  20.897   1.322  0.00  0.00    +0.003 C 
ATOM     27  C   UNL     1     -34.902  20.279   1.818  0.00  0.00    -0.002 C 
BRANCH  27  28
ATOM     28  C   UNL     1     -34.163  19.274   1.085  0.00  0.00    -0.000 C 
ATOM     29  C   UNL     1     -33.054  18.691   1.563  0.00  0.00    -0.000 C 
BRANCH  29  30
ATOM     30  C   UNL     1     -32.316  17.684   0.831  0.00  0.00    -0.002 C 
ATOM     31  C   UNL     1     -30.984  17.714   0.683  0.00  0.00    +0.005 C 
BRANCH  31  32
ATOM     32  C   UNL     1     -30.212  16.675  -0.065  0.00  0.00    +0.163 C 
BRANCH  32  33
ATOM     33  O   UNL     1     -30.638  15.390   0.366  0.00  0.00    -0.377 OA
ATOM     34  H   UNL     1     -30.187  15.160   1.193  0.00  0.00    +0.211 HD
ENDBRANCH  32  33
ENDBRANCH  31  32
ENDBRANCH  29  30
ENDBRANCH  27  28
ENDBRANCH  23  26
ENDBRANCH  22  23
ENDBRANCH   1  22
TORSDOF 16
ENDMDL
MODEL 9
REMARK VINA RESULT:      -6.3      1.967      8.497
REMARK  Name = 5353631
REMARK  16 active torsions:
REMARK  status: ('A' for Active; 'I' for Inactive)
REMARK    1  A    between atoms: C_1  and  C_2
REMARK    2  A    between atoms: C_1  and  O_15
REMARK    3  A    between atoms: C_1  and  C_22
REMARK    4  A    between atoms: C_2  and  O_4
REMARK    5  A    between atoms: C_2  and  C_6
REMARK    6  A    between atoms: C_7  and  C_10
REMARK    7  A    between atoms: O_15  and  P_16
REMARK    8  A    between atoms: P_16  and  O_18
REMARK    9  A    between atoms: P_16  and  O_20
REMARK   10  A    between atoms: C_22  and  C_23
REMARK   11  A    between atoms: C_23  and  O_24
REMARK   12  A    between atoms: C_23  and  C_26
REMARK   13  A    between atoms: C_27  and  C_28
REMARK   14  A    between atoms: C_29  and  C_30
REMARK   15  A    between atoms: C_31  and  C_32
REMARK   16  A    between atoms: C_32  and  O_33
REMARK                            x       y       z     vdW  Elec       q    Type
REMARK                         _______ _______ _______ _____ _____    ______ ____
ROOT
ATOM      1  C   UNL     1     -36.345  23.005   3.303  0.00  0.00    +0.157 C 
ENDROOT
BRANCH   1   2
ATOM      2  C   UNL     1     -36.031  24.034   4.424  0.00  0.00    +0.132 C 
ATOM      3  C   UNL     1     -35.591  23.343   5.722  0.00  0.00    +0.036 C 
BRANCH   2   4
ATOM      4  O   UNL     1     -37.273  24.695   4.717  0.00  0.00    -0.380 OA
ATOM      5  H   UNL     1     -37.400  24.735   5.677  0.00  0.00    +0.211 HD
ENDBRANCH   2   4
BRANCH   2   6
ATOM      6  C   UNL     1     -34.971  25.037   4.002  0.00  0.00    +0.001 C 
ATOM      7  C   UNL     1     -34.886  26.319   4.388  0.00  0.00    +0.015 C 
BRANCH   7  10
ATOM      8  O   UNL     1     -33.183  27.817   5.102  0.00  0.00    -0.444 OA
ATOM      9  O   UNL     1     -31.642  29.299   5.859  0.00  0.00    -0.245 OA
ATOM     10  C   UNL     1     -33.812  27.251   3.931  0.00  0.00    +0.195 C 
ATOM     11  C   UNL     1     -32.783  26.540   3.062  0.00  0.00    +0.075 C 
ATOM     12  C   UNL     1     -31.623  27.451   2.839  0.00  0.00    -0.015 C 
ATOM     13  C   UNL     1     -32.054  28.563   4.969  0.00  0.00    +0.341 C 
ATOM     14  C   UNL     1     -31.309  28.418   3.705  0.00  0.00    +0.077 C 
ENDBRANCH   7  10
ENDBRANCH   2   6
ENDBRANCH   1   2
BRANCH   1  15
ATOM     15  O   UNL     1     -37.759  22.771   3.294  0.00  0.00    -0.273 OA
BRANCH  15  16
ATOM     16  P   UNL     1     -38.594  23.237   1.997  0.00  0.00    +0.473 P 
ATOM     17  O   UNL     1     -37.895  23.047   0.683  0.00  0.00    -0.227 OA
BRANCH  16  18
ATOM     18  O   UNL     1     -39.977  22.414   2.161  0.00  0.00    -0.303 OA
ATOM     19  H   UNL     1     -40.499  22.800   2.881  0.00  0.00    +0.222 HD
ENDBRANCH  16  18
BRANCH  16  20
ATOM     20  O   UNL     1     -39.024  24.759   2.339  0.00  0.00    -0.303 OA
ATOM     21  H   UNL     1     -39.418  25.168   1.553  0.00  0.00    +0.222 HD
ENDBRANCH  16  20
ENDBRANCH  15  16
ENDBRANCH   1  15
BRANCH   1  22
ATOM     22  C   UNL     1     -35.623  21.647   3.430  0.00  0.00    +0.067 C 
BRANCH  22  23
ATOM     23  C   UNL     1     -35.861  20.669   2.263  0.00  0.00    +0.135 C 
BRANCH  23  24
ATOM     24  O   UNL     1     -36.919  19.787   2.631  0.00  0.00    -0.380 OA
ATOM     25  H   UNL     1     -37.772  20.217   2.459  0.00  0.00    +0.211 HD
ENDBRANCH  23  24
BRANCH  23  26
ATOM     26  C   UNL     1     -34.620  19.935   1.820  0.00  0.00    +0.003 C 
ATOM     27  C   UNL     1     -33.721  20.364   0.920  0.00  0.00    -0.002 C 
BRANCH  27  28
ATOM     28  C   UNL     1     -32.550  19.598   0.549  0.00  0.00    -0.000 C 
ATOM     29  C   UNL     1     -32.199  18.458   1.162  0.00  0.00    -0.000 C 
BRANCH  29  30
ATOM     30  C   UNL     1     -31.030  17.691   0.791  0.00  0.00    -0.002 C 
ATOM     31  C   UNL     1     -31.069  16.666  -0.072  0.00  0.00    +0.005 C 
BRANCH  31  32
ATOM     32  C   UNL     1     -29.865  15.872  -0.466  0.00  0.00    +0.163 C 
BRANCH  32  33
ATOM     33  O   UNL     1     -29.736  14.768   0.419  0.00  0.00    -0.377 OA
ATOM     34  H   UNL     1     -30.401  14.836   1.121  0.00  0.00    +0.211 HD
ENDBRANCH  32  33
ENDBRANCH  31  32
ENDBRANCH  29  30
ENDBRANCH  27  28
ENDBRANCH  23  26
ENDBRANCH  22  23
ENDBRANCH   1  22
TORSDOF 16
ENDMDL
