MODEL 1
REMARK VINA RESULT:      -7.5      0.000      0.000
REMARK  Name = 50919367
REMARK  5 active torsions:
REMARK  status: ('A' for Active; 'I' for Inactive)
REMARK    1  A    between atoms: N_1  and  S_3
REMARK    2  A    between atoms: N_1  and  C_17
REMARK    3  A    between atoms: S_3  and  C_9
REMARK    4  A    between atoms: C_17  and  C_20
REMARK    5  A    between atoms: N_19  and  C_22
REMARK                            x       y       z     vdW  Elec       q    Type
REMARK                         _______ _______ _______ _____ _____    ______ ____
ROOT
ATOM      1  N   UNL     1     -41.125  26.983   4.074  0.00  0.00    -0.170 NA
ATOM      2  H   UNL     1     -41.403  26.476   4.914  0.00  0.00    +0.149 HD
ENDROOT
BRANCH   1   3
ATOM      3  S   UNL     1     -42.392  28.072   3.715  0.00  0.00    +0.061 S 
ATOM      4  O   UNL     1     -42.238  28.530   2.340  0.00  0.00    -0.153 OA
ATOM      5  O   UNL     1     -42.483  29.051   4.788  0.00  0.00    -0.153 OA
BRANCH   3   9
ATOM      6  O   UNL     1     -45.728  24.529   1.914  0.00  0.00    -0.407 OA
ATOM      7  O   UNL     1     -47.594  23.166   2.016  0.00  0.00    -0.223 OA
ATOM      8  N   UNL     1     -47.049  24.570   3.795  0.00  0.00    -0.287 N 
ATOM      9  C   UNL     1     -43.804  27.047   3.808  0.00  0.00    +0.125 C 
ATOM     10  C   UNL     1     -45.247  25.422   2.859  0.00  0.00    +0.167 A 
ATOM     11  C   UNL     1     -46.027  25.460   3.995  0.00  0.00    +0.096 A 
ATOM     12  C   UNL     1     -44.123  26.208   2.735  0.00  0.00    +0.059 C 
ATOM     13  C   UNL     1     -44.610  27.079   4.966  0.00  0.00    +0.022 C 
ATOM     14  C   UNL     1     -45.746  26.273   5.070  0.00  0.00    +0.022 C 
ATOM     15  C   UNL     1     -46.874  24.006   2.541  0.00  0.00    +0.419 A 
ATOM     16  H   UNL     1     -47.776  24.368   4.427  0.00  0.00    +0.172 HD
ENDBRANCH   3   9
ENDBRANCH   1   3
BRANCH   1  17
ATOM     17  C   UNL     1     -40.721  25.975   3.083  0.00  0.00    +0.176 C 
BRANCH  17  20
ATOM     18  O   UNL     1     -38.594  26.685   2.221  0.00  0.00    -0.273 OA
ATOM     19  N   UNL     1     -38.687  24.989   3.844  0.00  0.00    -0.283 N 
ATOM     20  C   UNL     1     -39.214  25.946   2.980  0.00  0.00    +0.244 C 
ATOM     21  H   UNL     1     -39.338  24.484   4.382  0.00  0.00    +0.155 HD
BRANCH  19  22
ATOM     22  C   UNL     1     -37.325  24.660   4.038  0.00  0.00    +0.046 C 
ATOM     23  C   UNL     1     -36.774  23.521   3.450  0.00  0.00    -0.008 C 
ATOM     24  C   UNL     1     -36.530  25.488   4.831  0.00  0.00    +0.010 C 
ATOM     25  C   UNL     1     -35.186  25.180   5.033  0.00  0.00    -0.021 C 
ATOM     26  C   UNL     1     -35.429  23.212   3.652  0.00  0.00    -0.003 C 
ATOM     27  C   UNL     1     -34.635  24.042   4.444  0.00  0.00    -0.004 C 
ATOM     28  C   UNL     1     -37.600  22.615   2.596  0.00  0.00    +0.032 C 
ATOM     29  C   UNL     1     -34.336  26.066   5.880  0.00  0.00    +0.031 C 
ENDBRANCH  19  22
ENDBRANCH  17  20
ENDBRANCH   1  17
TORSDOF 5
ENDMDL
MODEL 2
REMARK VINA RESULT:      -7.5      6.117      9.022
REMARK  Name = 50919367
REMARK  5 active torsions:
REMARK  status: ('A' for Active; 'I' for Inactive)
REMARK    1  A    between atoms: N_1  and  S_3
REMARK    2  A    between atoms: N_1  and  C_17
REMARK    3  A    between atoms: S_3  and  C_9
REMARK    4  A    between atoms: C_17  and  C_20
REMARK    5  A    between atoms: N_19  and  C_22
REMARK                            x       y       z     vdW  Elec       q    Type
REMARK                         _______ _______ _______ _____ _____    ______ ____
ROOT
ATOM      1  N   UNL     1     -37.440  22.496   3.378  0.00  0.00    -0.170 NA
ATOM      2  H   UNL     1     -38.246  22.162   3.906  0.00  0.00    +0.149 HD
ENDROOT
BRANCH   1   3
ATOM      3  S   UNL     1     -37.726  24.145   3.032  0.00  0.00    +0.061 S 
ATOM      4  O   UNL     1     -38.972  24.547   3.670  0.00  0.00    -0.153 OA
ATOM      5  O   UNL     1     -37.556  24.356   1.601  0.00  0.00    -0.153 OA
BRANCH   3   9
ATOM      6  O   UNL     1     -34.281  27.957   3.749  0.00  0.00    -0.407 OA
ATOM      7  O   UNL     1     -32.523  29.020   4.813  0.00  0.00    -0.223 OA
ATOM      8  N   UNL     1     -33.314  26.968   5.585  0.00  0.00    -0.287 N 
ATOM      9  C   UNL     1     -36.398  24.935   3.848  0.00  0.00    +0.125 C 
ATOM     10  C   UNL     1     -34.883  26.747   4.055  0.00  0.00    +0.167 A 
ATOM     11  C   UNL     1     -34.316  26.139   5.155  0.00  0.00    +0.096 A 
ATOM     12  C   UNL     1     -35.932  26.167   3.377  0.00  0.00    +0.059 C 
ATOM     13  C   UNL     1     -35.811  24.321   4.974  0.00  0.00    +0.022 C 
ATOM     14  C   UNL     1     -34.747  24.927   5.646  0.00  0.00    +0.022 C 
ATOM     15  C   UNL     1     -33.288  28.066   4.740  0.00  0.00    +0.419 A 
ATOM     16  H   UNL     1     -32.720  26.812   6.354  0.00  0.00    +0.172 HD
ENDBRANCH   3   9
ENDBRANCH   1   3
BRANCH   1  17
ATOM     17  C   UNL     1     -37.227  21.542   2.280  0.00  0.00    +0.176 C 
BRANCH  17  20
ATOM     18  O   UNL     1     -35.291  20.634   3.375  0.00  0.00    -0.273 OA
ATOM     19  N   UNL     1     -35.233  21.057   1.065  0.00  0.00    -0.283 N 
ATOM     20  C   UNL     1     -35.810  21.021   2.332  0.00  0.00    +0.244 C 
ATOM     21  H   UNL     1     -35.801  21.401   0.338  0.00  0.00    +0.155 HD
BRANCH  19  22
ATOM     22  C   UNL     1     -33.926  20.657   0.701  0.00  0.00    +0.046 C 
ATOM     23  C   UNL     1     -33.093  21.509  -0.024  0.00  0.00    -0.008 C 
ATOM     24  C   UNL     1     -33.473  19.391   1.074  0.00  0.00    +0.010 C 
ATOM     25  C   UNL     1     -32.188  18.978   0.724  0.00  0.00    -0.021 C 
ATOM     26  C   UNL     1     -31.807  21.097  -0.374  0.00  0.00    -0.003 C 
ATOM     27  C   UNL     1     -31.355  19.831   0.000  0.00  0.00    -0.004 C 
ATOM     28  C   UNL     1     -33.550  22.870  -0.438  0.00  0.00    +0.032 C 
ATOM     29  C   UNL     1     -31.704  17.626   1.123  0.00  0.00    +0.031 C 
ENDBRANCH  19  22
ENDBRANCH  17  20
ENDBRANCH   1  17
TORSDOF 5
ENDMDL
MODEL 3
REMARK VINA RESULT:      -7.4      2.099      3.653
REMARK  Name = 50919367
REMARK  5 active torsions:
REMARK  status: ('A' for Active; 'I' for Inactive)
REMARK    1  A    between atoms: N_1  and  S_3
REMARK    2  A    between atoms: N_1  and  C_17
REMARK    3  A    between atoms: S_3  and  C_9
REMARK    4  A    between atoms: C_17  and  C_20
REMARK    5  A    between atoms: N_19  and  C_22
REMARK                            x       y       z     vdW  Elec       q    Type
REMARK                         _______ _______ _______ _____ _____    ______ ____
ROOT
ATOM      1  N   UNL     1     -40.924  26.965   2.332  0.00  0.00    -0.170 NA
ATOM      2  H   UNL     1     -40.778  27.819   2.868  0.00  0.00    +0.149 HD
ENDROOT
BRANCH   1   3
ATOM      3  S   UNL     1     -42.565  26.954   1.856  0.00  0.00    +0.061 S 
ATOM      4  O   UNL     1     -42.988  25.573   1.667  0.00  0.00    -0.153 OA
ATOM      5  O   UNL     1     -42.742  27.910   0.772  0.00  0.00    -0.153 OA
BRANCH   3   9
ATOM      6  O   UNL     1     -43.019  30.113   5.947  0.00  0.00    -0.407 OA
ATOM      7  O   UNL     1     -44.063  30.976   7.822  0.00  0.00    -0.223 OA
ATOM      8  N   UNL     1     -45.050  29.255   6.598  0.00  0.00    -0.287 N 
ATOM      9  C   UNL     1     -43.369  27.597   3.269  0.00  0.00    +0.125 C 
ATOM     10  C   UNL     1     -43.442  29.100   5.101  0.00  0.00    +0.167 A 
ATOM     11  C   UNL     1     -44.660  28.573   5.476  0.00  0.00    +0.096 A 
ATOM     12  C   UNL     1     -42.768  28.630   3.996  0.00  0.00    +0.059 C 
ATOM     13  C   UNL     1     -44.614  27.065   3.662  0.00  0.00    +0.022 C 
ATOM     14  C   UNL     1     -45.281  27.556   4.786  0.00  0.00    +0.022 C 
ATOM     15  C   UNL     1     -44.063  30.184   6.888  0.00  0.00    +0.419 A 
ATOM     16  H   UNL     1     -45.880  29.111   7.107  0.00  0.00    +0.172 HD
ENDBRANCH   3   9
ENDBRANCH   1   3
BRANCH   1  17
ATOM     17  C   UNL     1     -40.387  25.859   3.139  0.00  0.00    +0.176 C 
BRANCH  17  20
ATOM     18  O   UNL     1     -38.264  26.586   2.284  0.00  0.00    -0.273 OA
ATOM     19  N   UNL     1     -38.344  24.964   3.981  0.00  0.00    -0.283 N 
ATOM     20  C   UNL     1     -38.879  25.866   3.064  0.00  0.00    +0.244 C 
ATOM     21  H   UNL     1     -38.992  24.467   4.531  0.00  0.00    +0.155 HD
BRANCH  19  22
ATOM     22  C   UNL     1     -36.978  24.681   4.215  0.00  0.00    +0.046 C 
ATOM     23  C   UNL     1     -36.384  23.536   3.683  0.00  0.00    -0.008 C 
ATOM     24  C   UNL     1     -36.223  25.561   4.990  0.00  0.00    +0.010 C 
ATOM     25  C   UNL     1     -34.875  25.298   5.231  0.00  0.00    -0.021 C 
ATOM     26  C   UNL     1     -35.035  23.273   3.924  0.00  0.00    -0.003 C 
ATOM     27  C   UNL     1     -34.281  24.154   4.698  0.00  0.00    -0.004 C 
ATOM     28  C   UNL     1     -37.168  22.575   2.848  0.00  0.00    +0.032 C 
ATOM     29  C   UNL     1     -34.068  26.239   6.059  0.00  0.00    +0.031 C 
ENDBRANCH  19  22
ENDBRANCH  17  20
ENDBRANCH   1  17
TORSDOF 5
ENDMDL
MODEL 4
REMARK VINA RESULT:      -7.4      4.668      9.141
REMARK  Name = 50919367
REMARK  5 active torsions:
REMARK  status: ('A' for Active; 'I' for Inactive)
REMARK    1  A    between atoms: N_1  and  S_3
REMARK    2  A    between atoms: N_1  and  C_17
REMARK    3  A    between atoms: S_3  and  C_9
REMARK    4  A    between atoms: C_17  and  C_20
REMARK    5  A    between atoms: N_19  and  C_22
REMARK                            x       y       z     vdW  Elec       q    Type
REMARK                         _______ _______ _______ _____ _____    ______ ____
ROOT
ATOM      1  N   UNL     1     -37.262  20.669   2.280  0.00  0.00    -0.170 NA
ATOM      2  H   UNL     1     -37.576  21.244   3.061  0.00  0.00    +0.149 HD
ENDROOT
BRANCH   1   3
ATOM      3  S   UNL     1     -35.610  21.026   2.035  0.00  0.00    +0.061 S 
ATOM      4  O   UNL     1     -35.442  21.561   0.690  0.00  0.00    -0.153 OA
ATOM      5  O   UNL     1     -34.818  19.877   2.450  0.00  0.00    -0.153 OA
BRANCH   3   9
ATOM      6  O   UNL     1     -34.204  25.816   3.449  0.00  0.00    -0.407 OA
ATOM      7  O   UNL     1     -33.823  27.529   4.957  0.00  0.00    -0.223 OA
ATOM      8  N   UNL     1     -34.599  25.455   5.685  0.00  0.00    -0.287 N 
ATOM      9  C   UNL     1     -35.329  22.310   3.187  0.00  0.00    +0.125 C 
ATOM     10  C   UNL     1     -34.658  24.529   3.688  0.00  0.00    +0.167 A 
ATOM     11  C   UNL     1     -34.901  24.294   5.024  0.00  0.00    +0.096 A 
ATOM     12  C   UNL     1     -34.864  23.552   2.739  0.00  0.00    +0.059 C 
ATOM     13  C   UNL     1     -35.574  22.080   4.557  0.00  0.00    +0.022 C 
ATOM     14  C   UNL     1     -35.358  23.086   5.501  0.00  0.00    +0.022 C 
ATOM     15  C   UNL     1     -34.177  26.377   4.739  0.00  0.00    +0.419 A 
ATOM     16  H   UNL     1     -34.669  25.608   6.654  0.00  0.00    +0.172 HD
ENDBRANCH   3   9
ENDBRANCH   1   3
BRANCH   1  17
ATOM     17  C   UNL     1     -38.227  20.873   1.189  0.00  0.00    +0.176 C 
BRANCH  17  20
ATOM     18  O   UNL     1     -40.370  21.174   2.232  0.00  0.00    -0.273 OA
ATOM     19  N   UNL     1     -39.179  23.043   1.452  0.00  0.00    -0.283 N 
ATOM     20  C   UNL     1     -39.394  21.688   1.693  0.00  0.00    +0.244 C 
ATOM     21  H   UNL     1     -38.333  23.276   1.006  0.00  0.00    +0.155 HD
BRANCH  19  22
ATOM     22  C   UNL     1     -40.035  24.122   1.774  0.00  0.00    +0.046 C 
ATOM     23  C   UNL     1     -39.683  25.045   2.759  0.00  0.00    -0.008 C 
ATOM     24  C   UNL     1     -41.246  24.257   1.094  0.00  0.00    +0.010 C 
ATOM     25  C   UNL     1     -42.102  25.315   1.397  0.00  0.00    -0.021 C 
ATOM     26  C   UNL     1     -40.540  26.104   3.062  0.00  0.00    -0.003 C 
ATOM     27  C   UNL     1     -41.749  26.238   2.381  0.00  0.00    -0.004 C 
ATOM     28  C   UNL     1     -38.393  24.927   3.504  0.00  0.00    +0.032 C 
ATOM     29  C   UNL     1     -43.396  25.459   0.669  0.00  0.00    +0.031 C 
ENDBRANCH  19  22
ENDBRANCH  17  20
ENDBRANCH   1  17
TORSDOF 5
ENDMDL
MODEL 5
REMARK VINA RESULT:      -7.3      8.152     11.197
REMARK  Name = 50919367
REMARK  5 active torsions:
REMARK  status: ('A' for Active; 'I' for Inactive)
REMARK    1  A    between atoms: N_1  and  S_3
REMARK    2  A    between atoms: N_1  and  C_17
REMARK    3  A    between atoms: S_3  and  C_9
REMARK    4  A    between atoms: C_17  and  C_20
REMARK    5  A    between atoms: N_19  and  C_22
REMARK                            x       y       z     vdW  Elec       q    Type
REMARK                         _______ _______ _______ _____ _____    ______ ____
ROOT
ATOM      1  N   UNL     1     -34.189  28.571   3.294  0.00  0.00    -0.170 NA
ATOM      2  H   UNL     1     -35.157  28.874   3.189  0.00  0.00    +0.149 HD
ENDROOT
BRANCH   1   3
ATOM      3  S   UNL     1     -33.235  29.986   3.376  0.00  0.00    +0.061 S 
ATOM      4  O   UNL     1     -34.052  31.071   3.901  0.00  0.00    -0.153 OA
ATOM      5  O   UNL     1     -32.549  30.160   2.104  0.00  0.00    -0.153 OA
BRANCH   3   9
ATOM      6  O   UNL     1     -28.991  27.532   5.076  0.00  0.00    -0.407 OA
ATOM      7  O   UNL     1     -27.393  26.951   6.645  0.00  0.00    -0.223 OA
ATOM      8  N   UNL     1     -29.123  28.415   7.194  0.00  0.00    -0.287 N 
ATOM      9  C   UNL     1     -32.035  29.559   4.573  0.00  0.00    +0.125 C 
ATOM     10  C   UNL     1     -30.082  28.376   5.213  0.00  0.00    +0.167 A 
ATOM     11  C   UNL     1     -30.177  28.915   6.477  0.00  0.00    +0.096 A 
ATOM     12  C   UNL     1     -31.001  28.680   4.232  0.00  0.00    +0.059 C 
ATOM     13  C   UNL     1     -32.123  30.105   5.870  0.00  0.00    +0.022 C 
ATOM     14  C   UNL     1     -31.180  29.782   6.849  0.00  0.00    +0.022 C 
ATOM     15  C   UNL     1     -28.404  27.579   6.354  0.00  0.00    +0.419 A 
ATOM     16  H   UNL     1     -28.913  28.612   8.135  0.00  0.00    +0.172 HD
ENDBRANCH   3   9
ENDBRANCH   1   3
BRANCH   1  17
ATOM     17  C   UNL     1     -33.938  27.578   2.239  0.00  0.00    +0.176 C 
BRANCH  17  20
ATOM     18  O   UNL     1     -32.534  25.792   3.019  0.00  0.00    -0.273 OA
ATOM     19  N   UNL     1     -34.868  25.613   3.220  0.00  0.00    -0.283 N 
ATOM     20  C   UNL     1     -33.670  26.231   2.867  0.00  0.00    +0.244 C 
ATOM     21  H   UNL     1     -35.691  26.116   3.022  0.00  0.00    +0.155 HD
BRANCH  19  22
ATOM     22  C   UNL     1     -35.039  24.349   3.830  0.00  0.00    +0.046 C 
ATOM     23  C   UNL     1     -35.014  24.216   5.219  0.00  0.00    -0.008 C 
ATOM     24  C   UNL     1     -35.233  23.225   3.026  0.00  0.00    +0.010 C 
ATOM     25  C   UNL     1     -35.404  21.970   3.610  0.00  0.00    -0.021 C 
ATOM     26  C   UNL     1     -35.185  22.960   5.803  0.00  0.00    -0.003 C 
ATOM     27  C   UNL     1     -35.380  21.838   4.998  0.00  0.00    -0.004 C 
ATOM     28  C   UNL     1     -34.808  25.401   6.106  0.00  0.00    +0.032 C 
ATOM     29  C   UNL     1     -35.612  20.770   2.750  0.00  0.00    +0.031 C 
ENDBRANCH  19  22
ENDBRANCH  17  20
ENDBRANCH   1  17
TORSDOF 5
ENDMDL
MODEL 6
REMARK VINA RESULT:      -7.3      2.359      3.990
REMARK  Name = 50919367
REMARK  5 active torsions:
REMARK  status: ('A' for Active; 'I' for Inactive)
REMARK    1  A    between atoms: N_1  and  S_3
REMARK    2  A    between atoms: N_1  and  C_17
REMARK    3  A    between atoms: S_3  and  C_9
REMARK    4  A    between atoms: C_17  and  C_20
REMARK    5  A    between atoms: N_19  and  C_22
REMARK                            x       y       z     vdW  Elec       q    Type
REMARK                         _______ _______ _______ _____ _____    ______ ____
ROOT
ATOM      1  N   UNL     1     -40.945  24.072   1.591  0.00  0.00    -0.170 NA
ATOM      2  H   UNL     1     -41.068  23.080   1.388  0.00  0.00    +0.149 HD
ENDROOT
BRANCH   1   3
ATOM      3  S   UNL     1     -42.146  24.909   0.711  0.00  0.00    +0.061 S 
ATOM      4  O   UNL     1     -43.153  23.953   0.269  0.00  0.00    -0.153 OA
ATOM      5  O   UNL     1     -41.493  25.763  -0.272  0.00  0.00    -0.153 OA
BRANCH   3   9
ATOM      6  O   UNL     1     -42.059  28.715   4.235  0.00  0.00    -0.407 OA
ATOM      7  O   UNL     1     -42.972  30.093   5.854  0.00  0.00    -0.223 OA
ATOM      8  N   UNL     1     -44.273  28.470   4.803  0.00  0.00    -0.287 N 
ATOM      9  C   UNL     1     -42.851  25.943   1.930  0.00  0.00    +0.125 C 
ATOM     10  C   UNL     1     -42.665  27.703   3.508  0.00  0.00    +0.167 A 
ATOM     11  C   UNL     1     -43.994  27.541   3.836  0.00  0.00    +0.096 A 
ATOM     12  C   UNL     1     -42.061  26.915   2.554  0.00  0.00    +0.059 C 
ATOM     13  C   UNL     1     -44.210  25.786   2.272  0.00  0.00    +0.022 C 
ATOM     14  C   UNL     1     -44.802  26.596   3.244  0.00  0.00    +0.022 C 
ATOM     15  C   UNL     1     -43.108  29.180   5.049  0.00  0.00    +0.419 A 
ATOM     16  H   UNL     1     -45.142  28.608   5.245  0.00  0.00    +0.172 HD
ENDBRANCH   3   9
ENDBRANCH   1   3
BRANCH   1  17
ATOM     17  C   UNL     1     -39.524  24.377   1.366  0.00  0.00    +0.176 C 
BRANCH  17  20
ATOM     18  O   UNL     1     -39.414  24.720   3.741  0.00  0.00    -0.273 OA
ATOM     19  N   UNL     1     -37.445  24.294   2.532  0.00  0.00    -0.283 N 
ATOM     20  C   UNL     1     -38.815  24.488   2.695  0.00  0.00    +0.244 C 
ATOM     21  H   UNL     1     -37.138  24.117   1.614  0.00  0.00    +0.155 HD
BRANCH  19  22
ATOM     22  C   UNL     1     -36.446  24.320   3.532  0.00  0.00    +0.046 C 
ATOM     23  C   UNL     1     -35.644  25.448   3.712  0.00  0.00    -0.008 C 
ATOM     24  C   UNL     1     -36.265  23.200   4.344  0.00  0.00    +0.010 C 
ATOM     25  C   UNL     1     -35.284  23.207   5.336  0.00  0.00    -0.021 C 
ATOM     26  C   UNL     1     -34.663  25.456   4.705  0.00  0.00    -0.003 C 
ATOM     27  C   UNL     1     -34.484  24.335   5.516  0.00  0.00    -0.004 C 
ATOM     28  C   UNL     1     -35.815  26.662   2.859  0.00  0.00    +0.032 C 
ATOM     29  C   UNL     1     -35.092  22.010   6.203  0.00  0.00    +0.031 C 
ENDBRANCH  19  22
ENDBRANCH  17  20
ENDBRANCH   1  17
TORSDOF 5
ENDMDL
MODEL 7
REMARK VINA RESULT:      -7.3      3.875      5.928
REMARK  Name = 50919367
REMARK  5 active torsions:
REMARK  status: ('A' for Active; 'I' for Inactive)
REMARK    1  A    between atoms: N_1  and  S_3
REMARK    2  A    between atoms: N_1  and  C_17
REMARK    3  A    between atoms: S_3  and  C_9
REMARK    4  A    between atoms: C_17  and  C_20
REMARK    5  A    between atoms: N_19  and  C_22
REMARK                            x       y       z     vdW  Elec       q    Type
REMARK                         _______ _______ _______ _____ _____    ______ ____
ROOT
ATOM      1  N   UNL     1     -38.063  20.676   1.942  0.00  0.00    -0.170 NA
ATOM      2  H   UNL     1     -38.611  19.884   2.277  0.00  0.00    +0.149 HD
ENDROOT
BRANCH   1   3
ATOM      3  S   UNL     1     -38.705  21.110   0.419  0.00  0.00    +0.061 S 
ATOM      4  O   UNL     1     -39.604  20.054  -0.027  0.00  0.00    -0.153 OA
ATOM      5  O   UNL     1     -37.610  21.528  -0.445  0.00  0.00    -0.153 OA
BRANCH   3   9
ATOM      6  O   UNL     1     -40.001  25.235   3.286  0.00  0.00    -0.407 OA
ATOM      7  O   UNL     1     -41.243  27.114   3.813  0.00  0.00    -0.223 OA
ATOM      8  N   UNL     1     -41.722  25.870   1.901  0.00  0.00    -0.287 N 
ATOM      9  C   UNL     1     -39.652  22.528   0.801  0.00  0.00    +0.125 C 
ATOM     10  C   UNL     1     -40.133  24.376   2.207  0.00  0.00    +0.167 A 
ATOM     11  C   UNL     1     -41.161  24.742   1.364  0.00  0.00    +0.096 A 
ATOM     12  C   UNL     1     -39.356  23.268   1.951  0.00  0.00    +0.059 C 
ATOM     13  C   UNL     1     -40.706  22.910  -0.054  0.00  0.00    +0.022 C 
ATOM     14  C   UNL     1     -41.482  24.038   0.225  0.00  0.00    +0.022 C 
ATOM     15  C   UNL     1     -41.026  26.172   3.061  0.00  0.00    +0.419 A 
ATOM     16  H   UNL     1     -42.481  26.375   1.530  0.00  0.00    +0.172 HD
ENDBRANCH   3   9
ENDBRANCH   1   3
BRANCH   1  17
ATOM     17  C   UNL     1     -36.648  20.295   2.060  0.00  0.00    +0.176 C 
BRANCH  17  20
ATOM     18  O   UNL     1     -34.796  21.799   1.783  0.00  0.00    -0.273 OA
ATOM     19  N   UNL     1     -36.399  22.218   3.448  0.00  0.00    -0.283 N 
ATOM     20  C   UNL     1     -35.823  21.516   2.392  0.00  0.00    +0.244 C 
ATOM     21  H   UNL     1     -37.230  21.842   3.818  0.00  0.00    +0.155 HD
BRANCH  19  22
ATOM     22  C   UNL     1     -35.930  23.410   4.049  0.00  0.00    +0.046 C 
ATOM     23  C   UNL     1     -35.459  23.411   5.362  0.00  0.00    -0.008 C 
ATOM     24  C   UNL     1     -35.943  24.595   3.312  0.00  0.00    +0.010 C 
ATOM     25  C   UNL     1     -35.484  25.779   3.888  0.00  0.00    -0.021 C 
ATOM     26  C   UNL     1     -34.999  24.596   5.938  0.00  0.00    -0.003 C 
ATOM     27  C   UNL     1     -35.012  25.779   5.200  0.00  0.00    -0.004 C 
ATOM     28  C   UNL     1     -35.433  22.157   6.175  0.00  0.00    +0.032 C 
ATOM     29  C   UNL     1     -35.497  27.045   3.101  0.00  0.00    +0.031 C 
ENDBRANCH  19  22
ENDBRANCH  17  20
ENDBRANCH   1  17
TORSDOF 5
ENDMDL
MODEL 8
REMARK VINA RESULT:      -7.3      6.866      9.948
REMARK  Name = 50919367
REMARK  5 active torsions:
REMARK  status: ('A' for Active; 'I' for Inactive)
REMARK    1  A    between atoms: N_1  and  S_3
REMARK    2  A    between atoms: N_1  and  C_17
REMARK    3  A    between atoms: S_3  and  C_9
REMARK    4  A    between atoms: C_17  and  C_20
REMARK    5  A    between atoms: N_19  and  C_22
REMARK                            x       y       z     vdW  Elec       q    Type
REMARK                         _______ _______ _______ _____ _____    ______ ____
ROOT
ATOM      1  N   UNL     1     -35.794  23.266   2.895  0.00  0.00    -0.170 NA
ATOM      2  H   UNL     1     -34.842  22.939   3.058  0.00  0.00    +0.149 HD
ENDROOT
BRANCH   1   3
ATOM      3  S   UNL     1     -36.294  24.063   4.321  0.00  0.00    +0.061 S 
ATOM      4  O   UNL     1     -36.046  23.186   5.458  0.00  0.00    -0.153 OA
ATOM      5  O   UNL     1     -37.631  24.599   4.111  0.00  0.00    -0.153 OA
BRANCH   3   9
ATOM      6  O   UNL     1     -32.638  26.982   6.564  0.00  0.00    -0.407 OA
ATOM      7  O   UNL     1     -31.167  28.763   6.696  0.00  0.00    -0.223 OA
ATOM      8  N   UNL     1     -32.529  28.482   4.825  0.00  0.00    -0.287 N 
ATOM      9  C   UNL     1     -35.186  25.412   4.404  0.00  0.00    +0.125 C 
ATOM     10  C   UNL     1     -33.519  26.652   5.546  0.00  0.00    +0.167 A 
ATOM     11  C   UNL     1     -33.467  27.541   4.494  0.00  0.00    +0.096 A 
ATOM     12  C   UNL     1     -34.373  25.572   5.531  0.00  0.00    +0.059 C 
ATOM     13  C   UNL     1     -35.126  26.328   3.333  0.00  0.00    +0.022 C 
ATOM     14  C   UNL     1     -34.252  27.417   3.370  0.00  0.00    +0.022 C 
ATOM     15  C   UNL     1     -32.026  28.150   6.073  0.00  0.00    +0.419 A 
ATOM     16  H   UNL     1     -32.261  29.254   4.277  0.00  0.00    +0.172 HD
ENDBRANCH   3   9
ENDBRANCH   1   3
BRANCH   1  17
ATOM     17  C   UNL     1     -36.557  22.114   2.393  0.00  0.00    +0.176 C 
BRANCH  17  20
ATOM     18  O   UNL     1     -35.301  20.397   3.509  0.00  0.00    -0.273 OA
ATOM     19  N   UNL     1     -35.445  20.399   1.164  0.00  0.00    -0.283 N 
ATOM     20  C   UNL     1     -35.696  20.874   2.449  0.00  0.00    +0.244 C 
ATOM     21  H   UNL     1     -35.846  20.912   0.425  0.00  0.00    +0.155 HD
BRANCH  19  22
ATOM     22  C   UNL     1     -34.682  19.266   0.798  0.00  0.00    +0.046 C 
ATOM     23  C   UNL     1     -35.270  18.197   0.121  0.00  0.00    -0.008 C 
ATOM     24  C   UNL     1     -33.326  19.224   1.122  0.00  0.00    +0.010 C 
ATOM     25  C   UNL     1     -32.558  18.115   0.769  0.00  0.00    -0.021 C 
ATOM     26  C   UNL     1     -34.502  17.088  -0.233  0.00  0.00    -0.003 C 
ATOM     27  C   UNL     1     -33.146  17.047   0.091  0.00  0.00    -0.004 C 
ATOM     28  C   UNL     1     -36.720  18.213  -0.240  0.00  0.00    +0.032 C 
ATOM     29  C   UNL     1     -31.109  18.071   1.115  0.00  0.00    +0.031 C 
ENDBRANCH  19  22
ENDBRANCH  17  20
ENDBRANCH   1  17
TORSDOF 5
ENDMDL
MODEL 9
REMARK VINA RESULT:      -7.2      5.453      8.411
REMARK  Name = 50919367
REMARK  5 active torsions:
REMARK  status: ('A' for Active; 'I' for Inactive)
REMARK    1  A    between atoms: N_1  and  S_3
REMARK    2  A    between atoms: N_1  and  C_17
REMARK    3  A    between atoms: S_3  and  C_9
REMARK    4  A    between atoms: C_17  and  C_20
REMARK    5  A    between atoms: N_19  and  C_22
REMARK                            x       y       z     vdW  Elec       q    Type
REMARK                         _______ _______ _______ _____ _____    ______ ____
ROOT
ATOM      1  N   UNL     1     -37.626  20.593   2.248  0.00  0.00    -0.170 NA
ATOM      2  H   UNL     1     -38.153  19.902   2.782  0.00  0.00    +0.149 HD
ENDROOT
BRANCH   1   3
ATOM      3  S   UNL     1     -38.739  21.793   1.760  0.00  0.00    +0.061 S 
ATOM      4  O   UNL     1     -40.062  21.431   2.250  0.00  0.00    -0.153 OA
ATOM      5  O   UNL     1     -38.550  22.053   0.340  0.00  0.00    -0.153 OA
BRANCH   3   9
ATOM      6  O   UNL     1     -35.468  24.399   4.830  0.00  0.00    -0.407 OA
ATOM      7  O   UNL     1     -34.714  26.247   6.000  0.00  0.00    -0.223 OA
ATOM      8  N   UNL     1     -36.687  26.346   4.763  0.00  0.00    -0.287 N 
ATOM      9  C   UNL     1     -38.183  23.199   2.636  0.00  0.00    +0.125 C 
ATOM     10  C   UNL     1     -36.604  24.265   4.048  0.00  0.00    +0.167 A 
ATOM     11  C   UNL     1     -37.348  25.424   3.996  0.00  0.00    +0.096 A 
ATOM     12  C   UNL     1     -36.997  23.129   3.375  0.00  0.00    +0.059 C 
ATOM     13  C   UNL     1     -38.937  24.390   2.590  0.00  0.00    +0.022 C 
ATOM     14  C   UNL     1     -38.520  25.530   3.280  0.00  0.00    +0.022 C 
ATOM     15  C   UNL     1     -35.552  25.733   5.269  0.00  0.00    +0.419 A 
ATOM     16  H   UNL     1     -36.967  27.275   4.925  0.00  0.00    +0.172 HD
ENDBRANCH   3   9
ENDBRANCH   1   3
BRANCH   1  17
ATOM     17  C   UNL     1     -36.856  19.852   1.239  0.00  0.00    +0.176 C 
BRANCH  17  20
ATOM     18  O   UNL     1     -34.921  20.444   2.534  0.00  0.00    -0.273 OA
ATOM     19  N   UNL     1     -34.677  19.873   0.269  0.00  0.00    -0.283 N 
ATOM     20  C   UNL     1     -35.380  20.097   1.450  0.00  0.00    +0.244 C 
ATOM     21  H   UNL     1     -35.213  19.598  -0.510  0.00  0.00    +0.155 HD
BRANCH  19  22
ATOM     22  C   UNL     1     -33.284  19.996   0.058  0.00  0.00    +0.046 C 
ATOM     23  C   UNL     1     -32.409  18.986   0.458  0.00  0.00    -0.008 C 
ATOM     24  C   UNL     1     -32.787  21.145  -0.557  0.00  0.00    +0.010 C 
ATOM     25  C   UNL     1     -31.417  21.284  -0.774  0.00  0.00    -0.021 C 
ATOM     26  C   UNL     1     -31.038  19.124   0.241  0.00  0.00    -0.003 C 
ATOM     27  C   UNL     1     -30.542  20.273  -0.375  0.00  0.00    -0.004 C 
ATOM     28  C   UNL     1     -32.912  17.743   1.119  0.00  0.00    +0.032 C 
ATOM     29  C   UNL     1     -30.886  22.512  -1.432  0.00  0.00    +0.031 C 
ENDBRANCH  19  22
ENDBRANCH  17  20
ENDBRANCH   1  17
TORSDOF 5
ENDMDL
