MODEL 1
REMARK VINA RESULT:      -6.5      0.000      0.000
REMARK  Name = 53239927
REMARK  12 active torsions:
REMARK  status: ('A' for Active; 'I' for Inactive)
REMARK    1  A    between atoms: C_1  and  N_3
REMARK    2  A    between atoms: C_1  and  C_9
REMARK    3  A    between atoms: C_1  and  C_19
REMARK    4  A    between atoms: C_4  and  C_6
REMARK    5  A    between atoms: C_6  and  O_7
REMARK    6  A    between atoms: C_9  and  O_10
REMARK    7  A    between atoms: C_9  and  C_12
REMARK    8  A    between atoms: C_12  and  O_13
REMARK    9  A    between atoms: C_12  and  C_16
REMARK   10  A    between atoms: C_16  and  O_17
REMARK   11  A    between atoms: C_19  and  C_20
REMARK   12  A    between atoms: C_23  and  C_28
REMARK                            x       y       z     vdW  Elec       q    Type
REMARK                         _______ _______ _______ _____ _____    ______ ____
ROOT
ATOM      1  C   UNL     1     -38.144  22.904   2.353  0.00  0.00    +0.106 C 
ENDROOT
BRANCH   1   3
ATOM      2  O   UNL     1     -35.910  24.659   2.896  0.00  0.00    -0.272 OA
ATOM      3  N   UNL     1     -37.435  23.053   3.606  0.00  0.00    -0.301 N 
ATOM      4  C   UNL     1     -36.371  23.925   3.766  0.00  0.00    +0.253 C 
ATOM      5  H   UNL     1     -37.719  22.511   4.377  0.00  0.00    +0.150 HD
BRANCH   4   6
ATOM      6  C   UNL     1     -35.819  23.878   5.174  0.00  0.00    +0.227 C 
BRANCH   6   7
ATOM      7  O   UNL     1     -36.192  22.676   5.815  0.00  0.00    -0.342 OA
ATOM      8  C   UNL     1     -35.084  21.794   5.975  0.00  0.00    +0.175 C 
ENDBRANCH   6   7
ENDBRANCH   4   6
ENDBRANCH   1   3
BRANCH   1   9
ATOM      9  C   UNL     1     -39.635  23.269   2.515  0.00  0.00    +0.166 C 
BRANCH   9  10
ATOM     10  O   UNL     1     -40.324  22.870   1.324  0.00  0.00    -0.380 OA
ATOM     11  H   UNL     1     -41.125  22.378   1.563  0.00  0.00    +0.211 HD
ENDBRANCH   9  10
BRANCH   9  12
ATOM     12  C   UNL     1     -39.929  24.755   2.765  0.00  0.00    +0.238 C 
BRANCH  12  13
ATOM     13  O   UNL     1     -39.503  25.055   4.096  0.00  0.00    -0.373 OA
ATOM     14  H   UNL     1     -39.186  24.245   4.525  0.00  0.00    +0.211 HD
ENDBRANCH  12  13
BRANCH  12  16
ATOM     15  O   UNL     1     -39.173  25.651   0.637  0.00  0.00    -0.248 OA
ATOM     16  C   UNL     1     -39.135  25.674   1.861  0.00  0.00    +0.344 C 
BRANCH  16  17
ATOM     17  O   UNL     1     -38.369  26.550   2.558  0.00  0.00    -0.478 OA
ATOM     18  H   UNL     1     -37.760  26.235   3.197  0.00  0.00    +0.295 HD
ENDBRANCH  16  17
ENDBRANCH  12  16
ENDBRANCH   9  12
ENDBRANCH   1   9
BRANCH   1  19
ATOM     19  C   UNL     1     -37.972  21.471   1.809  0.00  0.00    +0.048 C 
BRANCH  19  20
ATOM     20  C   UNL     1     -36.549  21.161   1.406  0.00  0.00    -0.020 C 
ATOM     21  C   UNL     1     -35.800  20.245   2.145  0.00  0.00    -0.004 C 
ATOM     22  C   UNL     1     -35.985  21.792   0.298  0.00  0.00    -0.004 C 
ATOM     23  C   UNL     1     -33.921  20.590   0.664  0.00  0.00    +0.000 C 
ATOM     24  C   UNL     1     -34.485  19.959   1.773  0.00  0.00    -0.000 C 
ATOM     25  C   UNL     1     -34.671  21.506  -0.073  0.00  0.00    -0.000 C 
BRANCH  23  28
ATOM     26 CL   UNL     1     -29.945  17.300   0.736  0.00  0.00    -0.082 Cl
ATOM     27 CL   UNL     1     -29.610  22.078  -1.752  0.00  0.00    -0.082 Cl
ATOM     28  C   UNL     1     -32.558  20.294   0.279  0.00  0.00    +0.002 C 
ATOM     29  C   UNL     1     -31.826  21.220  -0.463  0.00  0.00    +0.011 C 
ATOM     30  C   UNL     1     -31.977  19.082   0.651  0.00  0.00    +0.011 C 
ATOM     31  C   UNL     1     -30.663  18.795   0.279  0.00  0.00    +0.059 C 
ATOM     32  C   UNL     1     -30.513  20.935  -0.835  0.00  0.00    +0.059 C 
ATOM     33  C   UNL     1     -29.931  19.722  -0.463  0.00  0.00    +0.023 C 
ENDBRANCH  23  28
ENDBRANCH  19  20
ENDBRANCH   1  19
TORSDOF 12
ENDMDL
MODEL 2
REMARK VINA RESULT:      -6.4      0.092      1.680
REMARK  Name = 53239927
REMARK  12 active torsions:
REMARK  status: ('A' for Active; 'I' for Inactive)
REMARK    1  A    between atoms: C_1  and  N_3
REMARK    2  A    between atoms: C_1  and  C_9
REMARK    3  A    between atoms: C_1  and  C_19
REMARK    4  A    between atoms: C_4  and  C_6
REMARK    5  A    between atoms: C_6  and  O_7
REMARK    6  A    between atoms: C_9  and  O_10
REMARK    7  A    between atoms: C_9  and  C_12
REMARK    8  A    between atoms: C_12  and  O_13
REMARK    9  A    between atoms: C_12  and  C_16
REMARK   10  A    between atoms: C_16  and  O_17
REMARK   11  A    between atoms: C_19  and  C_20
REMARK   12  A    between atoms: C_23  and  C_28
REMARK                            x       y       z     vdW  Elec       q    Type
REMARK                         _______ _______ _______ _____ _____    ______ ____
ROOT
ATOM      1  C   UNL     1     -38.170  22.908   2.307  0.00  0.00    +0.106 C 
ENDROOT
BRANCH   1   3
ATOM      2  O   UNL     1     -35.967  24.710   2.821  0.00  0.00    -0.272 OA
ATOM      3  N   UNL     1     -37.422  23.045   3.539  0.00  0.00    -0.301 N 
ATOM      4  C   UNL     1     -36.378  23.943   3.687  0.00  0.00    +0.253 C 
ATOM      5  H   UNL     1     -37.665  22.476   4.305  0.00  0.00    +0.150 HD
BRANCH   4   6
ATOM      6  C   UNL     1     -35.778  23.876   5.074  0.00  0.00    +0.227 C 
BRANCH   6   7
ATOM      7  O   UNL     1     -36.224  22.721   5.755  0.00  0.00    -0.342 OA
ATOM      8  C   UNL     1     -35.139  21.974   6.300  0.00  0.00    +0.175 C 
ENDBRANCH   6   7
ENDBRANCH   4   6
ENDBRANCH   1   3
BRANCH   1   9
ATOM      9  C   UNL     1     -39.658  23.253   2.522  0.00  0.00    +0.166 C 
BRANCH   9  10
ATOM     10  O   UNL     1     -40.384  22.842   1.357  0.00  0.00    -0.380 OA
ATOM     11  H   UNL     1     -39.789  22.363   0.758  0.00  0.00    +0.211 HD
ENDBRANCH   9  10
BRANCH   9  12
ATOM     12  C   UNL     1     -39.963  24.736   2.780  0.00  0.00    +0.238 C 
BRANCH  12  13
ATOM     13  O   UNL     1     -39.515  25.039   4.103  0.00  0.00    -0.373 OA
ATOM     14  H   UNL     1     -39.961  25.841   4.420  0.00  0.00    +0.211 HD
ENDBRANCH  12  13
BRANCH  12  16
ATOM     15  O   UNL     1     -39.250  25.637   0.640  0.00  0.00    -0.248 OA
ATOM     16  C   UNL     1     -39.196  25.664   1.863  0.00  0.00    +0.344 C 
BRANCH  16  17
ATOM     17  O   UNL     1     -38.434  26.555   2.547  0.00  0.00    -0.478 OA
ATOM     18  H   UNL     1     -38.369  27.441   2.250  0.00  0.00    +0.295 HD
ENDBRANCH  16  17
ENDBRANCH  12  16
ENDBRANCH   9  12
ENDBRANCH   1   9
BRANCH   1  19
ATOM     19  C   UNL     1     -37.999  21.486   1.735  0.00  0.00    +0.048 C 
BRANCH  19  20
ATOM     20  C   UNL     1     -36.572  21.174   1.349  0.00  0.00    -0.020 C 
ATOM     21  C   UNL     1     -35.848  20.220   2.066  0.00  0.00    -0.004 C 
ATOM     22  C   UNL     1     -35.978  21.840   0.277  0.00  0.00    -0.004 C 
ATOM     23  C   UNL     1     -33.937  20.599   0.637  0.00  0.00    +0.000 C 
ATOM     24  C   UNL     1     -34.531  19.933   1.709  0.00  0.00    -0.000 C 
ATOM     25  C   UNL     1     -34.660  21.552  -0.079  0.00  0.00    -0.000 C 
BRANCH  23  28
ATOM     26 CL   UNL     1     -29.595  22.078  -1.731  0.00  0.00    -0.082 Cl
ATOM     27 CL   UNL     1     -29.964  17.306   0.762  0.00  0.00    -0.082 Cl
ATOM     28  C   UNL     1     -32.570  20.300   0.268  0.00  0.00    +0.002 C 
ATOM     29  C   UNL     1     -31.993  19.088   0.647  0.00  0.00    +0.011 C 
ATOM     30  C   UNL     1     -31.829  21.225  -0.468  0.00  0.00    +0.011 C 
ATOM     31  C   UNL     1     -30.511  20.938  -0.824  0.00  0.00    +0.059 C 
ATOM     32  C   UNL     1     -30.676  18.801   0.292  0.00  0.00    +0.059 C 
ATOM     33  C   UNL     1     -29.935  19.726  -0.444  0.00  0.00    +0.023 C 
ENDBRANCH  23  28
ENDBRANCH  19  20
ENDBRANCH   1  19
TORSDOF 12
ENDMDL
MODEL 3
REMARK VINA RESULT:      -6.3      2.066      3.963
REMARK  Name = 53239927
REMARK  12 active torsions:
REMARK  status: ('A' for Active; 'I' for Inactive)
REMARK    1  A    between atoms: C_1  and  N_3
REMARK    2  A    between atoms: C_1  and  C_9
REMARK    3  A    between atoms: C_1  and  C_19
REMARK    4  A    between atoms: C_4  and  C_6
REMARK    5  A    between atoms: C_6  and  O_7
REMARK    6  A    between atoms: C_9  and  O_10
REMARK    7  A    between atoms: C_9  and  C_12
REMARK    8  A    between atoms: C_12  and  O_13
REMARK    9  A    between atoms: C_12  and  C_16
REMARK   10  A    between atoms: C_16  and  O_17
REMARK   11  A    between atoms: C_19  and  C_20
REMARK   12  A    between atoms: C_23  and  C_28
REMARK                            x       y       z     vdW  Elec       q    Type
REMARK                         _______ _______ _______ _____ _____    ______ ____
ROOT
ATOM      1  C   UNL     1     -36.323  22.219   2.938  0.00  0.00    +0.106 C 
ENDROOT
BRANCH   1   3
ATOM      2  O   UNL     1     -37.955  20.535   1.245  0.00  0.00    -0.272 OA
ATOM      3  N   UNL     1     -37.738  22.360   2.671  0.00  0.00    -0.301 N 
ATOM      4  C   UNL     1     -38.434  21.496   1.840  0.00  0.00    +0.253 C 
ATOM      5  H   UNL     1     -38.228  23.100   3.096  0.00  0.00    +0.150 HD
BRANCH   4   6
ATOM      6  C   UNL     1     -39.895  21.876   1.741  0.00  0.00    +0.227 C 
BRANCH   6   7
ATOM      7  O   UNL     1     -40.591  20.970   0.911  0.00  0.00    -0.342 OA
ATOM      8  C   UNL     1     -40.877  21.533  -0.367  0.00  0.00    +0.175 C 
ENDBRANCH   6   7
ENDBRANCH   4   6
ENDBRANCH   1   3
BRANCH   1   9
ATOM      9  C   UNL     1     -35.889  23.122   4.112  0.00  0.00    +0.166 C 
BRANCH   9  10
ATOM     10  O   UNL     1     -36.368  22.533   5.327  0.00  0.00    -0.380 OA
ATOM     11  H   UNL     1     -35.809  22.819   6.067  0.00  0.00    +0.211 HD
ENDBRANCH   9  10
BRANCH   9  12
ATOM     12  C   UNL     1     -36.389  24.572   4.051  0.00  0.00    +0.238 C 
BRANCH  12  13
ATOM     13  O   UNL     1     -37.781  24.558   4.373  0.00  0.00    -0.373 OA
ATOM     14  H   UNL     1     -38.299  24.421   3.563  0.00  0.00    +0.211 HD
ENDBRANCH  12  13
BRANCH  12  16
ATOM     15  O   UNL     1     -34.698  25.202   5.679  0.00  0.00    -0.248 OA
ATOM     16  C   UNL     1     -35.737  25.465   5.085  0.00  0.00    +0.344 C 
BRANCH  16  17
ATOM     17  O   UNL     1     -36.427  26.616   5.284  0.00  0.00    -0.478 OA
ATOM     18  H   UNL     1     -37.166  26.818   4.745  0.00  0.00    +0.295 HD
ENDBRANCH  16  17
ENDBRANCH  12  16
ENDBRANCH   9  12
ENDBRANCH   1   9
BRANCH   1  19
ATOM     19  C   UNL     1     -35.506  22.523   1.665  0.00  0.00    +0.048 C 
BRANCH  19  20
ATOM     20  C   UNL     1     -34.519  21.431   1.325  0.00  0.00    -0.020 C 
ATOM     21  C   UNL     1     -34.608  20.190   1.955  0.00  0.00    -0.004 C 
ATOM     22  C   UNL     1     -33.518  21.665   0.382  0.00  0.00    -0.004 C 
ATOM     23  C   UNL     1     -32.695  19.415   0.698  0.00  0.00    +0.000 C 
ATOM     24  C   UNL     1     -33.696  19.181   1.642  0.00  0.00    -0.000 C 
ATOM     25  C   UNL     1     -32.606  20.657   0.068  0.00  0.00    -0.000 C 
BRANCH  23  28
ATOM     26 CL   UNL     1     -31.852  14.487  -0.583  0.00  0.00    -0.082 Cl
ATOM     27 CL   UNL     1     -27.785  17.986  -0.001  0.00  0.00    -0.082 Cl
ATOM     28  C   UNL     1     -31.749  18.370   0.373  0.00  0.00    +0.002 C 
ATOM     29  C   UNL     1     -30.383  18.648   0.347  0.00  0.00    +0.011 C 
ATOM     30  C   UNL     1     -32.204  17.082   0.086  0.00  0.00    +0.011 C 
ATOM     31  C   UNL     1     -31.293  16.074  -0.228  0.00  0.00    +0.059 C 
ATOM     32  C   UNL     1     -29.471  17.641   0.033  0.00  0.00    +0.059 C 
ATOM     33  C   UNL     1     -29.926  16.354  -0.254  0.00  0.00    +0.023 C 
ENDBRANCH  23  28
ENDBRANCH  19  20
ENDBRANCH   1  19
TORSDOF 12
ENDMDL
MODEL 4
REMARK VINA RESULT:      -6.1      2.335      4.623
REMARK  Name = 53239927
REMARK  12 active torsions:
REMARK  status: ('A' for Active; 'I' for Inactive)
REMARK    1  A    between atoms: C_1  and  N_3
REMARK    2  A    between atoms: C_1  and  C_9
REMARK    3  A    between atoms: C_1  and  C_19
REMARK    4  A    between atoms: C_4  and  C_6
REMARK    5  A    between atoms: C_6  and  O_7
REMARK    6  A    between atoms: C_9  and  O_10
REMARK    7  A    between atoms: C_9  and  C_12
REMARK    8  A    between atoms: C_12  and  O_13
REMARK    9  A    between atoms: C_12  and  C_16
REMARK   10  A    between atoms: C_16  and  O_17
REMARK   11  A    between atoms: C_19  and  C_20
REMARK   12  A    between atoms: C_23  and  C_28
REMARK                            x       y       z     vdW  Elec       q    Type
REMARK                         _______ _______ _______ _____ _____    ______ ____
ROOT
ATOM      1  C   UNL     1     -36.865  24.774   3.993  0.00  0.00    +0.106 C 
ENDROOT
BRANCH   1   3
ATOM      2  O   UNL     1     -38.286  26.664   2.328  0.00  0.00    -0.272 OA
ATOM      3  N   UNL     1     -38.298  24.879   3.818  0.00  0.00    -0.301 N 
ATOM      4  C   UNL     1     -38.886  25.824   2.993  0.00  0.00    +0.253 C 
ATOM      5  H   UNL     1     -38.881  24.253   4.307  0.00  0.00    +0.150 HD
BRANCH   4   6
ATOM      6  C   UNL     1     -40.394  25.707   2.998  0.00  0.00    +0.227 C 
BRANCH   6   7
ATOM      7  O   UNL     1     -40.991  26.967   3.222  0.00  0.00    -0.342 OA
ATOM      8  C   UNL     1     -42.247  26.849   3.887  0.00  0.00    +0.175 C 
ENDBRANCH   6   7
ENDBRANCH   4   6
ENDBRANCH   1   3
BRANCH   1   9
ATOM      9  C   UNL     1     -36.340  25.878   4.936  0.00  0.00    +0.166 C 
BRANCH   9  10
ATOM     10  O   UNL     1     -35.885  26.972   4.131  0.00  0.00    -0.380 OA
ATOM     11  H   UNL     1     -35.575  27.689   4.706  0.00  0.00    +0.211 HD
ENDBRANCH   9  10
BRANCH   9  12
ATOM     12  C   UNL     1     -35.196  25.460   5.871  0.00  0.00    +0.238 C 
BRANCH  12  13
ATOM     13  O   UNL     1     -35.029  24.047   5.736  0.00  0.00    -0.373 OA
ATOM     14  H   UNL     1     -35.765  23.682   5.219  0.00  0.00    +0.211 HD
ENDBRANCH  12  13
BRANCH  12  16
ATOM     15  O   UNL     1     -33.385  27.074   5.998  0.00  0.00    -0.248 OA
ATOM     16  C   UNL     1     -33.866  26.071   5.486  0.00  0.00    +0.344 C 
BRANCH  16  17
ATOM     17  O   UNL     1     -33.242  25.375   4.502  0.00  0.00    -0.478 OA
ATOM     18  H   UNL     1     -33.353  25.628   3.607  0.00  0.00    +0.295 HD
ENDBRANCH  16  17
ENDBRANCH  12  16
ENDBRANCH   9  12
ENDBRANCH   1   9
BRANCH   1  19
ATOM     19  C   UNL     1     -36.156  24.820   2.625  0.00  0.00    +0.048 C 
BRANCH  19  20
ATOM     20  C   UNL     1     -35.634  23.471   2.187  0.00  0.00    -0.020 C 
ATOM     21  C   UNL     1     -36.019  22.319   2.874  0.00  0.00    -0.004 C 
ATOM     22  C   UNL     1     -34.769  23.377   1.098  0.00  0.00    -0.004 C 
ATOM     23  C   UNL     1     -34.672  20.980   1.380  0.00  0.00    +0.000 C 
ATOM     24  C   UNL     1     -35.537  21.073   2.470  0.00  0.00    -0.000 C 
ATOM     25  C   UNL     1     -34.287  22.132   0.694  0.00  0.00    -0.000 C 
BRANCH  23  28
ATOM     26 CL   UNL     1     -35.610  16.393  -0.792  0.00  0.00    -0.082 Cl
ATOM     27 CL   UNL     1     -30.694  17.711   1.004  0.00  0.00    -0.082 Cl
ATOM     28  C   UNL     1     -34.172  19.688   0.961  0.00  0.00    +0.002 C 
ATOM     29  C   UNL     1     -32.831  19.360   1.161  0.00  0.00    +0.011 C 
ATOM     30  C   UNL     1     -35.032  18.770   0.357  0.00  0.00    +0.011 C 
ATOM     31  C   UNL     1     -34.551  17.525  -0.047  0.00  0.00    +0.059 C 
ATOM     32  C   UNL     1     -32.350  18.116   0.757  0.00  0.00    +0.059 C 
ATOM     33  C   UNL     1     -33.209  17.198   0.153  0.00  0.00    +0.023 C 
ENDBRANCH  23  28
ENDBRANCH  19  20
ENDBRANCH   1  19
TORSDOF 12
ENDMDL
MODEL 5
REMARK VINA RESULT:      -6.1      2.325      4.729
REMARK  Name = 53239927
REMARK  12 active torsions:
REMARK  status: ('A' for Active; 'I' for Inactive)
REMARK    1  A    between atoms: C_1  and  N_3
REMARK    2  A    between atoms: C_1  and  C_9
REMARK    3  A    between atoms: C_1  and  C_19
REMARK    4  A    between atoms: C_4  and  C_6
REMARK    5  A    between atoms: C_6  and  O_7
REMARK    6  A    between atoms: C_9  and  O_10
REMARK    7  A    between atoms: C_9  and  C_12
REMARK    8  A    between atoms: C_12  and  O_13
REMARK    9  A    between atoms: C_12  and  C_16
REMARK   10  A    between atoms: C_16  and  O_17
REMARK   11  A    between atoms: C_19  and  C_20
REMARK   12  A    between atoms: C_23  and  C_28
REMARK                            x       y       z     vdW  Elec       q    Type
REMARK                         _______ _______ _______ _____ _____    ______ ____
ROOT
ATOM      1  C   UNL     1     -36.898  24.761   3.975  0.00  0.00    +0.106 C 
ENDROOT
BRANCH   1   3
ATOM      2  O   UNL     1     -38.335  26.681   2.359  0.00  0.00    -0.272 OA
ATOM      3  N   UNL     1     -38.332  24.857   3.801  0.00  0.00    -0.301 N 
ATOM      4  C   UNL     1     -38.927  25.818   3.001  0.00  0.00    +0.253 C 
ATOM      5  H   UNL     1     -38.909  24.213   4.272  0.00  0.00    +0.150 HD
BRANCH   4   6
ATOM      6  C   UNL     1     -40.434  25.687   3.001  0.00  0.00    +0.227 C 
BRANCH   6   7
ATOM      7  O   UNL     1     -41.046  26.960   3.035  0.00  0.00    -0.342 OA
ATOM      8  C   UNL     1     -42.221  26.962   3.841  0.00  0.00    +0.175 C 
ENDBRANCH   6   7
ENDBRANCH   4   6
ENDBRANCH   1   3
BRANCH   1   9
ATOM      9  C   UNL     1     -36.378  25.871   4.911  0.00  0.00    +0.166 C 
BRANCH   9  10
ATOM     10  O   UNL     1     -35.890  26.946   4.100  0.00  0.00    -0.380 OA
ATOM     11  H   UNL     1     -36.323  26.919   3.233  0.00  0.00    +0.211 HD
ENDBRANCH   9  10
BRANCH   9  12
ATOM     12  C   UNL     1     -35.261  25.452   5.878  0.00  0.00    +0.238 C 
BRANCH  12  13
ATOM     13  O   UNL     1     -35.123  24.033   5.781  0.00  0.00    -0.373 OA
ATOM     14  H   UNL     1     -34.479  23.817   5.088  0.00  0.00    +0.211 HD
ENDBRANCH  12  13
BRANCH  12  16
ATOM     15  O   UNL     1     -33.423  27.038   5.985  0.00  0.00    -0.248 OA
ATOM     16  C   UNL     1     -33.910  26.024   5.502  0.00  0.00    +0.344 C 
BRANCH  16  17
ATOM     17  O   UNL     1     -33.276  25.277   4.563  0.00  0.00    -0.478 OA
ATOM     18  H   UNL     1     -33.213  24.348   4.667  0.00  0.00    +0.295 HD
ENDBRANCH  16  17
ENDBRANCH  12  16
ENDBRANCH   9  12
ENDBRANCH   1   9
BRANCH   1  19
ATOM     19  C   UNL     1     -36.190  24.804   2.605  0.00  0.00    +0.048 C 
BRANCH  19  20
ATOM     20  C   UNL     1     -35.661  23.456   2.173  0.00  0.00    -0.020 C 
ATOM     21  C   UNL     1     -34.886  23.350   1.017  0.00  0.00    -0.004 C 
ATOM     22  C   UNL     1     -35.948  22.320   2.928  0.00  0.00    -0.004 C 
ATOM     23  C   UNL     1     -34.684  20.968   1.374  0.00  0.00    +0.000 C 
ATOM     24  C   UNL     1     -34.397  22.105   0.618  0.00  0.00    -0.000 C 
ATOM     25  C   UNL     1     -35.460  21.075   2.529  0.00  0.00    -0.000 C 
BRANCH  23  28
ATOM     26 CL   UNL     1     -30.692  17.716   1.018  0.00  0.00    -0.082 Cl
ATOM     27 CL   UNL     1     -35.598  16.370  -0.786  0.00  0.00    -0.082 Cl
ATOM     28  C   UNL     1     -34.178  19.678   0.960  0.00  0.00    +0.002 C 
ATOM     29  C   UNL     1     -35.031  18.754   0.356  0.00  0.00    +0.011 C 
ATOM     30  C   UNL     1     -32.836  19.357   1.164  0.00  0.00    +0.011 C 
ATOM     31  C   UNL     1     -32.347  18.112   0.766  0.00  0.00    +0.059 C 
ATOM     32  C   UNL     1     -34.544  17.510  -0.042  0.00  0.00    +0.059 C 
ATOM     33  C   UNL     1     -33.202  17.189   0.163  0.00  0.00    +0.023 C 
ENDBRANCH  23  28
ENDBRANCH  19  20
ENDBRANCH   1  19
TORSDOF 12
ENDMDL
MODEL 6
REMARK VINA RESULT:      -6.0      1.920      4.092
REMARK  Name = 53239927
REMARK  12 active torsions:
REMARK  status: ('A' for Active; 'I' for Inactive)
REMARK    1  A    between atoms: C_1  and  N_3
REMARK    2  A    between atoms: C_1  and  C_9
REMARK    3  A    between atoms: C_1  and  C_19
REMARK    4  A    between atoms: C_4  and  C_6
REMARK    5  A    between atoms: C_6  and  O_7
REMARK    6  A    between atoms: C_9  and  O_10
REMARK    7  A    between atoms: C_9  and  C_12
REMARK    8  A    between atoms: C_12  and  O_13
REMARK    9  A    between atoms: C_12  and  C_16
REMARK   10  A    between atoms: C_16  and  O_17
REMARK   11  A    between atoms: C_19  and  C_20
REMARK   12  A    between atoms: C_23  and  C_28
REMARK                            x       y       z     vdW  Elec       q    Type
REMARK                         _______ _______ _______ _____ _____    ______ ____
ROOT
ATOM      1  C   UNL     1     -36.444  22.788   2.415  0.00  0.00    +0.106 C 
ENDROOT
BRANCH   1   3
ATOM      2  O   UNL     1     -38.925  21.335   2.094  0.00  0.00    -0.272 OA
ATOM      3  N   UNL     1     -37.719  23.321   1.984  0.00  0.00    -0.301 N 
ATOM      4  C   UNL     1     -38.856  22.539   1.861  0.00  0.00    +0.253 C 
ATOM      5  H   UNL     1     -37.782  24.279   1.768  0.00  0.00    +0.150 HD
BRANCH   4   6
ATOM      6  C   UNL     1     -40.044  23.352   1.395  0.00  0.00    +0.227 C 
BRANCH   6   7
ATOM      7  O   UNL     1     -40.308  24.409   2.294  0.00  0.00    -0.342 OA
ATOM      8  C   UNL     1     -40.626  25.619   1.612  0.00  0.00    +0.175 C 
ENDBRANCH   6   7
ENDBRANCH   4   6
ENDBRANCH   1   3
BRANCH   1   9
ATOM      9  C   UNL     1     -36.002  23.423   3.749  0.00  0.00    +0.166 C 
BRANCH   9  10
ATOM     10  O   UNL     1     -36.462  22.585   4.816  0.00  0.00    -0.380 OA
ATOM     11  H   UNL     1     -36.285  23.017   5.666  0.00  0.00    +0.211 HD
ENDBRANCH   9  10
BRANCH   9  12
ATOM     12  C   UNL     1     -36.512  24.849   4.005  0.00  0.00    +0.238 C 
BRANCH  12  13
ATOM     13  O   UNL     1     -37.894  24.751   4.352  0.00  0.00    -0.373 OA
ATOM     14  H   UNL     1     -38.413  25.351   3.792  0.00  0.00    +0.211 HD
ENDBRANCH  12  13
BRANCH  12  16
ATOM     15  O   UNL     1     -34.808  25.115   5.716  0.00  0.00    -0.248 OA
ATOM     16  C   UNL     1     -35.837  25.515   5.184  0.00  0.00    +0.344 C 
BRANCH  16  17
ATOM     17  O   UNL     1     -36.493  26.629   5.595  0.00  0.00    -0.478 OA
ATOM     18  H   UNL     1     -36.713  27.298   4.977  0.00  0.00    +0.295 HD
ENDBRANCH  16  17
ENDBRANCH  12  16
ENDBRANCH   9  12
ENDBRANCH   1   9
BRANCH   1  19
ATOM     19  C   UNL     1     -35.382  22.992   1.316  0.00  0.00    +0.048 C 
BRANCH  19  20
ATOM     20  C   UNL     1     -34.526  21.767   1.089  0.00  0.00    -0.020 C 
ATOM     21  C   UNL     1     -33.413  21.840   0.251  0.00  0.00    -0.004 C 
ATOM     22  C   UNL     1     -34.851  20.564   1.716  0.00  0.00    -0.004 C 
ATOM     23  C   UNL     1     -32.948  19.506   0.669  0.00  0.00    +0.000 C 
ATOM     24  C   UNL     1     -32.624  20.709   0.041  0.00  0.00    -0.000 C 
ATOM     25  C   UNL     1     -34.061  19.433   1.506  0.00  0.00    -0.000 C 
BRANCH  23  28
ATOM     26 CL   UNL     1     -28.322  17.242   1.016  0.00  0.00    -0.082 Cl
ATOM     27 CL   UNL     1     -32.596  14.634  -1.000  0.00  0.00    -0.082 Cl
ATOM     28  C   UNL     1     -32.129  18.333   0.451  0.00  0.00    +0.002 C 
ATOM     29  C   UNL     1     -32.690  17.183  -0.105  0.00  0.00    +0.011 C 
ATOM     30  C   UNL     1     -30.778  18.351   0.798  0.00  0.00    +0.011 C 
ATOM     31  C   UNL     1     -29.988  17.220   0.589  0.00  0.00    +0.059 C 
ATOM     32  C   UNL     1     -31.902  16.053  -0.314  0.00  0.00    +0.059 C 
ATOM     33  C   UNL     1     -30.551  16.071   0.032  0.00  0.00    +0.023 C 
ENDBRANCH  23  28
ENDBRANCH  19  20
ENDBRANCH   1  19
TORSDOF 12
ENDMDL
MODEL 7
REMARK VINA RESULT:      -6.0      2.193      4.396
REMARK  Name = 53239927
REMARK  12 active torsions:
REMARK  status: ('A' for Active; 'I' for Inactive)
REMARK    1  A    between atoms: C_1  and  N_3
REMARK    2  A    between atoms: C_1  and  C_9
REMARK    3  A    between atoms: C_1  and  C_19
REMARK    4  A    between atoms: C_4  and  C_6
REMARK    5  A    between atoms: C_6  and  O_7
REMARK    6  A    between atoms: C_9  and  O_10
REMARK    7  A    between atoms: C_9  and  C_12
REMARK    8  A    between atoms: C_12  and  O_13
REMARK    9  A    between atoms: C_12  and  C_16
REMARK   10  A    between atoms: C_16  and  O_17
REMARK   11  A    between atoms: C_19  and  C_20
REMARK   12  A    between atoms: C_23  and  C_28
REMARK                            x       y       z     vdW  Elec       q    Type
REMARK                         _______ _______ _______ _____ _____    ______ ____
ROOT
ATOM      1  C   UNL     1     -36.536  24.034   3.307  0.00  0.00    +0.106 C 
ENDROOT
BRANCH   1   3
ATOM      2  O   UNL     1     -39.284  23.245   2.871  0.00  0.00    -0.272 OA
ATOM      3  N   UNL     1     -37.696  24.899   3.258  0.00  0.00    -0.301 N 
ATOM      4  C   UNL     1     -38.978  24.422   3.043  0.00  0.00    +0.253 C 
ATOM      5  H   UNL     1     -37.568  25.867   3.383  0.00  0.00    +0.150 HD
BRANCH   4   6
ATOM      6  C   UNL     1     -39.996  25.541   3.042  0.00  0.00    +0.227 C 
BRANCH   6   7
ATOM      7  O   UNL     1     -39.542  26.626   2.260  0.00  0.00    -0.342 OA
ATOM      8  C   UNL     1     -40.108  26.612   0.952  0.00  0.00    +0.175 C 
ENDBRANCH   6   7
ENDBRANCH   4   6
ENDBRANCH   1   3
BRANCH   1   9
ATOM      9  C   UNL     1     -35.574  24.463   4.434  0.00  0.00    +0.166 C 
BRANCH   9  10
ATOM     10  O   UNL     1     -36.096  23.975   5.676  0.00  0.00    -0.380 OA
ATOM     11  H   UNL     1     -36.464  23.087   5.545  0.00  0.00    +0.211 HD
ENDBRANCH   9  10
BRANCH   9  12
ATOM     12  C   UNL     1     -35.345  25.975   4.570  0.00  0.00    +0.238 C 
BRANCH  12  13
ATOM     13  O   UNL     1     -36.328  26.475   5.478  0.00  0.00    -0.373 OA
ATOM     14  H   UNL     1     -36.908  25.750   5.759  0.00  0.00    +0.211 HD
ENDBRANCH  12  13
BRANCH  12  16
ATOM     15  O   UNL     1     -33.827  26.587   6.366  0.00  0.00    -0.248 OA
ATOM     16  C   UNL     1     -34.004  26.316   5.184  0.00  0.00    +0.344 C 
BRANCH  16  17
ATOM     17  O   UNL     1     -32.995  26.282   4.278  0.00  0.00    -0.478 OA
ATOM     18  H   UNL     1     -32.692  27.077   3.884  0.00  0.00    +0.295 HD
ENDBRANCH  16  17
ENDBRANCH  12  16
ENDBRANCH   9  12
ENDBRANCH   1   9
BRANCH   1  19
ATOM     19  C   UNL     1     -35.825  24.017   1.938  0.00  0.00    +0.048 C 
BRANCH  19  20
ATOM     20  C   UNL     1     -35.188  22.684   1.622  0.00  0.00    -0.020 C 
ATOM     21  C   UNL     1     -35.566  21.545   2.334  0.00  0.00    -0.004 C 
ATOM     22  C   UNL     1     -34.222  22.592   0.620  0.00  0.00    -0.004 C 
ATOM     23  C   UNL     1     -34.012  20.222   1.041  0.00  0.00    +0.000 C 
ATOM     24  C   UNL     1     -34.978  20.314   2.043  0.00  0.00    -0.000 C 
ATOM     25  C   UNL     1     -33.634  21.361   0.329  0.00  0.00    -0.000 C 
BRANCH  23  28
ATOM     26 CL   UNL     1     -29.738  17.339   0.778  0.00  0.00    -0.082 Cl
ATOM     27 CL   UNL     1     -34.577  15.337  -0.528  0.00  0.00    -0.082 Cl
ATOM     28  C   UNL     1     -33.402  18.945   0.739  0.00  0.00    +0.002 C 
ATOM     29  C   UNL     1     -34.190  17.881   0.301  0.00  0.00    +0.011 C 
ATOM     30  C   UNL     1     -32.025  18.778   0.886  0.00  0.00    +0.011 C 
ATOM     31  C   UNL     1     -31.436  17.547   0.596  0.00  0.00    +0.059 C 
ATOM     32  C   UNL     1     -33.603  16.650   0.012  0.00  0.00    +0.059 C 
ATOM     33  C   UNL     1     -32.226  16.483   0.159  0.00  0.00    +0.023 C 
ENDBRANCH  23  28
ENDBRANCH  19  20
ENDBRANCH   1  19
TORSDOF 12
ENDMDL
MODEL 8
REMARK VINA RESULT:      -6.0      5.683      8.347
REMARK  Name = 53239927
REMARK  12 active torsions:
REMARK  status: ('A' for Active; 'I' for Inactive)
REMARK    1  A    between atoms: C_1  and  N_3
REMARK    2  A    between atoms: C_1  and  C_9
REMARK    3  A    between atoms: C_1  and  C_19
REMARK    4  A    between atoms: C_4  and  C_6
REMARK    5  A    between atoms: C_6  and  O_7
REMARK    6  A    between atoms: C_9  and  O_10
REMARK    7  A    between atoms: C_9  and  C_12
REMARK    8  A    between atoms: C_12  and  O_13
REMARK    9  A    between atoms: C_12  and  C_16
REMARK   10  A    between atoms: C_16  and  O_17
REMARK   11  A    between atoms: C_19  and  C_20
REMARK   12  A    between atoms: C_23  and  C_28
REMARK                            x       y       z     vdW  Elec       q    Type
REMARK                         _______ _______ _______ _____ _____    ______ ____
ROOT
ATOM      1  C   UNL     1     -35.523  24.950   4.143  0.00  0.00    +0.106 C 
ENDROOT
BRANCH   1   3
ATOM      2  O   UNL     1     -36.987  26.465   2.162  0.00  0.00    -0.272 OA
ATOM      3  N   UNL     1     -36.960  25.062   4.016  0.00  0.00    -0.301 N 
ATOM      4  C   UNL     1     -37.569  25.818   3.027  0.00  0.00    +0.253 C 
ATOM      5  H   UNL     1     -37.530  24.583   4.660  0.00  0.00    +0.150 HD
BRANCH   4   6
ATOM      6  C   UNL     1     -39.078  25.757   3.130  0.00  0.00    +0.227 C 
BRANCH   6   7
ATOM      7  O   UNL     1     -39.499  24.468   3.524  0.00  0.00    -0.342 OA
ATOM      8  C   UNL     1     -39.787  23.637   2.402  0.00  0.00    +0.175 C 
ENDBRANCH   6   7
ENDBRANCH   4   6
ENDBRANCH   1   3
BRANCH   1   9
ATOM      9  C   UNL     1     -35.051  23.515   3.829  0.00  0.00    +0.166 C 
BRANCH   9  10
ATOM     10  O   UNL     1     -34.837  23.415   2.415  0.00  0.00    -0.380 OA
ATOM     11  H   UNL     1     -35.284  22.623   2.076  0.00  0.00    +0.211 HD
ENDBRANCH   9  10
BRANCH   9  12
ATOM     12  C   UNL     1     -36.014  22.395   4.250  0.00  0.00    +0.238 C 
BRANCH  12  13
ATOM     13  O   UNL     1     -35.910  21.354   3.276  0.00  0.00    -0.373 OA
ATOM     14  H   UNL     1     -35.503  20.571   3.680  0.00  0.00    +0.211 HD
ENDBRANCH  12  13
BRANCH  12  16
ATOM     15  O   UNL     1     -35.954  22.199   6.671  0.00  0.00    -0.248 OA
ATOM     16  C   UNL     1     -35.638  21.760   5.572  0.00  0.00    +0.344 C 
BRANCH  16  17
ATOM     17  O   UNL     1     -34.910  20.626   5.414  0.00  0.00    -0.478 OA
ATOM     18  H   UNL     1     -35.343  19.798   5.345  0.00  0.00    +0.295 HD
ENDBRANCH  16  17
ENDBRANCH  12  16
ENDBRANCH   9  12
ENDBRANCH   1   9
BRANCH   1  19
ATOM     19  C   UNL     1     -35.075  25.393   5.550  0.00  0.00    +0.048 C 
BRANCH  19  20
ATOM     20  C   UNL     1     -33.976  26.431   5.518  0.00  0.00    -0.020 C 
ATOM     21  C   UNL     1     -33.684  27.100   4.329  0.00  0.00    -0.004 C 
ATOM     22  C   UNL     1     -33.255  26.718   6.676  0.00  0.00    -0.004 C 
ATOM     23  C   UNL     1     -31.949  28.346   5.458  0.00  0.00    +0.000 C 
ATOM     24  C   UNL     1     -32.670  28.058   4.299  0.00  0.00    -0.000 C 
ATOM     25  C   UNL     1     -32.241  27.676   6.646  0.00  0.00    -0.000 C 
BRANCH  23  28
ATOM     26 CL   UNL     1     -27.336  29.926   7.153  0.00  0.00    -0.082 Cl
ATOM     27 CL   UNL     1     -30.163  32.805   3.569  0.00  0.00    -0.082 Cl
ATOM     28  C   UNL     1     -30.897  29.339   5.426  0.00  0.00    +0.002 C 
ATOM     29  C   UNL     1     -31.022  30.463   4.610  0.00  0.00    +0.011 C 
ATOM     30  C   UNL     1     -29.757  29.173   6.213  0.00  0.00    +0.011 C 
ATOM     31  C   UNL     1     -28.743  30.130   6.183  0.00  0.00    +0.059 C 
ATOM     32  C   UNL     1     -30.009  31.419   4.579  0.00  0.00    +0.059 C 
ATOM     33  C   UNL     1     -28.869  31.253   5.366  0.00  0.00    +0.023 C 
ENDBRANCH  23  28
ENDBRANCH  19  20
ENDBRANCH   1  19
TORSDOF 12
ENDMDL
MODEL 9
REMARK VINA RESULT:      -5.9      2.296      4.419
REMARK  Name = 53239927
REMARK  12 active torsions:
REMARK  status: ('A' for Active; 'I' for Inactive)
REMARK    1  A    between atoms: C_1  and  N_3
REMARK    2  A    between atoms: C_1  and  C_9
REMARK    3  A    between atoms: C_1  and  C_19
REMARK    4  A    between atoms: C_4  and  C_6
REMARK    5  A    between atoms: C_6  and  O_7
REMARK    6  A    between atoms: C_9  and  O_10
REMARK    7  A    between atoms: C_9  and  C_12
REMARK    8  A    between atoms: C_12  and  O_13
REMARK    9  A    between atoms: C_12  and  C_16
REMARK   10  A    between atoms: C_16  and  O_17
REMARK   11  A    between atoms: C_19  and  C_20
REMARK   12  A    between atoms: C_23  and  C_28
REMARK                            x       y       z     vdW  Elec       q    Type
REMARK                         _______ _______ _______ _____ _____    ______ ____
ROOT
ATOM      1  C   UNL     1     -36.289  24.161   3.274  0.00  0.00    +0.106 C 
ENDROOT
BRANCH   1   3
ATOM      2  O   UNL     1     -39.007  23.228   2.941  0.00  0.00    -0.272 OA
ATOM      3  N   UNL     1     -37.485  24.971   3.177  0.00  0.00    -0.301 N 
ATOM      4  C   UNL     1     -38.749  24.426   3.018  0.00  0.00    +0.253 C 
ATOM      5  H   UNL     1     -37.398  25.950   3.227  0.00  0.00    +0.150 HD
BRANCH   4   6
ATOM      6  C   UNL     1     -39.813  25.500   2.948  0.00  0.00    +0.227 C 
BRANCH   6   7
ATOM      7  O   UNL     1     -39.371  26.589   2.165  0.00  0.00    -0.342 OA
ATOM      8  C   UNL     1     -40.066  26.666   0.923  0.00  0.00    +0.175 C 
ENDBRANCH   6   7
ENDBRANCH   4   6
ENDBRANCH   1   3
BRANCH   1   9
ATOM      9  C   UNL     1     -35.357  24.682   4.387  0.00  0.00    +0.166 C 
BRANCH   9  10
ATOM     10  O   UNL     1     -35.783  24.109   5.630  0.00  0.00    -0.380 OA
ATOM     11  H   UNL     1     -36.566  24.583   5.952  0.00  0.00    +0.211 HD
ENDBRANCH   9  10
BRANCH   9  12
ATOM     12  C   UNL     1     -35.312  26.208   4.552  0.00  0.00    +0.238 C 
BRANCH  12  13
ATOM     13  O   UNL     1     -36.442  26.586   5.340  0.00  0.00    -0.373 OA
ATOM     14  H   UNL     1     -36.309  26.295   6.257  0.00  0.00    +0.211 HD
ENDBRANCH  12  13
BRANCH  12  16
ATOM     15  O   UNL     1     -33.739  26.239   6.405  0.00  0.00    -0.248 OA
ATOM     16  C   UNL     1     -34.096  26.683   5.320  0.00  0.00    +0.344 C 
BRANCH  16  17
ATOM     17  O   UNL     1     -33.423  27.664   4.668  0.00  0.00    -0.478 OA
ATOM     18  H   UNL     1     -33.890  28.285   4.145  0.00  0.00    +0.295 HD
ENDBRANCH  16  17
ENDBRANCH  12  16
ENDBRANCH   9  12
ENDBRANCH   1   9
BRANCH   1  19
ATOM     19  C   UNL     1     -35.566  24.113   1.912  0.00  0.00    +0.048 C 
BRANCH  19  20
ATOM     20  C   UNL     1     -34.996  22.750   1.596  0.00  0.00    -0.020 C 
ATOM     21  C   UNL     1     -34.066  22.605   0.566  0.00  0.00    -0.004 C 
ATOM     22  C   UNL     1     -35.402  21.637   2.332  0.00  0.00    -0.004 C 
ATOM     23  C   UNL     1     -33.945  20.233   1.011  0.00  0.00    +0.000 C 
ATOM     24  C   UNL     1     -33.540  21.346   0.274  0.00  0.00    -0.000 C 
ATOM     25  C   UNL     1     -34.876  20.378   2.040  0.00  0.00    -0.000 C 
BRANCH  23  28
ATOM     26 CL   UNL     1     -34.767  15.352  -0.451  0.00  0.00    -0.082 Cl
ATOM     27 CL   UNL     1     -29.804  17.176   0.626  0.00  0.00    -0.082 Cl
ATOM     28  C   UNL     1     -33.399  18.928   0.708  0.00  0.00    +0.002 C 
ATOM     29  C   UNL     1     -32.026  18.706   0.803  0.00  0.00    +0.011 C 
ATOM     30  C   UNL     1     -34.248  17.890   0.321  0.00  0.00    +0.011 C 
ATOM     31  C   UNL     1     -33.722  16.632   0.028  0.00  0.00    +0.059 C 
ATOM     32  C   UNL     1     -31.500  17.449   0.510  0.00  0.00    +0.059 C 
ATOM     33  C   UNL     1     -32.348  16.411   0.123  0.00  0.00    +0.023 C 
ENDBRANCH  23  28
ENDBRANCH  19  20
ENDBRANCH   1  19
TORSDOF 12
ENDMDL
