MODEL 1
REMARK VINA RESULT:      -7.3      0.000      0.000
REMARK  Name = 53461654
REMARK  7 active torsions:
REMARK  status: ('A' for Active; 'I' for Inactive)
REMARK    1  A    between atoms: C_3  and  C_22
REMARK    2  A    between atoms: C_9  and  O_36
REMARK    3  A    between atoms: C_10  and  O_34
REMARK    4  A    between atoms: C_16  and  O_38
REMARK    5  A    between atoms: C_23  and  O_28
REMARK    6  A    between atoms: C_24  and  O_30
REMARK    7  A    between atoms: C_25  and  O_32
REMARK                            x       y       z     vdW  Elec       q    Type
REMARK                         _______ _______ _______ _____ _____    ______ ____
ROOT
ATOM      1  O   UNL     1     -38.142  24.278   2.412  0.00  0.00    -0.421 OA
ATOM      2  O   UNL     1     -38.698  26.384   3.087  0.00  0.00    -0.244 OA
ATOM      3  C   UNL     1     -36.198  22.208   2.440  0.00  0.00    +0.010 C 
ATOM      4  C   UNL     1     -37.430  22.064   1.764  0.00  0.00    +0.039 C 
ATOM      5  C   UNL     1     -37.686  20.851   1.090  0.00  0.00    +0.070 C 
ATOM      6  C   UNL     1     -35.252  21.183   2.445  0.00  0.00    +0.001 C 
ATOM      7  C   UNL     1     -38.426  23.070   1.724  0.00  0.00    +0.149 A 
ATOM      8  C   UNL     1     -39.647  22.928   1.055  0.00  0.00    +0.041 A 
ATOM      9  C   UNL     1     -36.723  19.827   1.103  0.00  0.00    +0.137 C 
ATOM     10  C   UNL     1     -38.901  20.690   0.413  0.00  0.00    +0.142 C 
ATOM     11  C   UNL     1     -35.515  19.992   1.777  0.00  0.00    +0.036 C 
ATOM     12  C   UNL     1     -39.862  21.710   0.398  0.00  0.00    +0.040 C 
ATOM     13  C   UNL     1     -40.610  24.039   1.079  0.00  0.00    +0.043 A 
ATOM     14  C   UNL     1     -40.291  25.220   1.770  0.00  0.00    +0.079 A 
ATOM     15  C   UNL     1     -39.000  25.366   2.478  0.00  0.00    +0.346 A 
ATOM     16  C   UNL     1     -41.862  23.989   0.434  0.00  0.00    +0.139 C 
ATOM     17  C   UNL     1     -41.186  26.301   1.815  0.00  0.00    +0.002 C 
ATOM     18  C   UNL     1     -42.414  26.222   1.168  0.00  0.00    -0.019 C 
ATOM     19  C   UNL     1     -42.753  25.066   0.478  0.00  0.00    +0.033 C 
ATOM     20  C   UNL     1     -43.364  27.370   1.217  0.00  0.00    +0.031 C 
ENDROOT
BRANCH   3  22
ATOM     21  O   UNL     1     -34.775  24.117   2.445  0.00  0.00    -0.349 OA
ATOM     22  C   UNL     1     -35.797  23.457   3.202  0.00  0.00    +0.167 C 
ATOM     23  C   UNL     1     -35.294  23.122   4.619  0.00  0.00    +0.171 C 
ATOM     24  C   UNL     1     -34.749  24.369   5.327  0.00  0.00    +0.169 C 
ATOM     25  C   UNL     1     -33.735  25.077   4.423  0.00  0.00    +0.167 C 
ATOM     26  C   UNL     1     -34.324  25.342   3.031  0.00  0.00    +0.145 C 
ATOM     27  C   UNL     1     -33.286  25.941   2.087  0.00  0.00    +0.035 C 
BRANCH  23  28
ATOM     28  O   UNL     1     -36.351  22.558   5.389  0.00  0.00    -0.379 OA
ATOM     29  H   UNL     1     -36.266  22.843   6.313  0.00  0.00    +0.211 HD
ENDBRANCH  23  28
BRANCH  24  30
ATOM     30  O   UNL     1     -35.815  25.256   5.667  0.00  0.00    -0.379 OA
ATOM     31  H   UNL     1     -36.645  24.757   5.726  0.00  0.00    +0.211 HD
ENDBRANCH  24  30
BRANCH  25  32
ATOM     32  O   UNL     1     -33.318  26.298   5.019  0.00  0.00    -0.379 OA
ATOM     33  H   UNL     1     -32.872  26.112   5.859  0.00  0.00    +0.211 HD
ENDBRANCH  25  32
ENDBRANCH   3  22
BRANCH  10  34
ATOM     34  O   UNL     1     -39.221  19.545  -0.264  0.00  0.00    -0.471 OA
ATOM     35  C   UNL     1     -40.004  19.695  -1.444  0.00  0.00    +0.252 C 
ENDBRANCH  10  34
BRANCH   9  36
ATOM     36  O   UNL     1     -36.908  18.630   0.470  0.00  0.00    -0.505 OA
ATOM     37  H   UNL     1     -37.763  18.253   0.422  0.00  0.00    +0.292 HD
ENDBRANCH   9  36
BRANCH  16  38
ATOM     38  O   UNL     1     -42.328  22.923  -0.279  0.00  0.00    -0.471 OA
ATOM     39  C   UNL     1     -42.690  23.163  -1.637  0.00  0.00    +0.252 C 
ENDBRANCH  16  38
TORSDOF 7
ENDMDL
MODEL 2
REMARK VINA RESULT:      -6.8      3.859      8.281
REMARK  Name = 53461654
REMARK  7 active torsions:
REMARK  status: ('A' for Active; 'I' for Inactive)
REMARK    1  A    between atoms: C_3  and  C_22
REMARK    2  A    between atoms: C_9  and  O_36
REMARK    3  A    between atoms: C_10  and  O_34
REMARK    4  A    between atoms: C_16  and  O_38
REMARK    5  A    between atoms: C_23  and  O_28
REMARK    6  A    between atoms: C_24  and  O_30
REMARK    7  A    between atoms: C_25  and  O_32
REMARK                            x       y       z     vdW  Elec       q    Type
REMARK                         _______ _______ _______ _____ _____    ______ ____
ROOT
ATOM      1  O   UNL     1     -34.441  27.095   3.407  0.00  0.00    -0.421 OA
ATOM      2  O   UNL     1     -32.740  26.691   4.871  0.00  0.00    -0.244 OA
ATOM      3  C   UNL     1     -36.705  26.051   2.046  0.00  0.00    +0.010 C 
ATOM      4  C   UNL     1     -36.284  27.388   1.874  0.00  0.00    +0.039 C 
ATOM      5  C   UNL     1     -37.020  28.215   1.000  0.00  0.00    +0.070 C 
ATOM      6  C   UNL     1     -37.818  25.551   1.371  0.00  0.00    +0.001 C 
ATOM      7  C   UNL     1     -35.162  27.949   2.533  0.00  0.00    +0.149 A 
ATOM      8  C   UNL     1     -34.744  29.274   2.364  0.00  0.00    +0.041 A 
ATOM      9  C   UNL     1     -38.139  27.698   0.326  0.00  0.00    +0.137 C 
ATOM     10  C   UNL     1     -36.618  29.543   0.817  0.00  0.00    +0.142 C 
ATOM     11  C   UNL     1     -38.536  26.375   0.510  0.00  0.00    +0.036 C 
ATOM     12  C   UNL     1     -35.501  30.061   1.487  0.00  0.00    +0.040 C 
ATOM     13  C   UNL     1     -33.563  29.751   3.098  0.00  0.00    +0.043 A 
ATOM     14  C   UNL     1     -32.876  28.875   3.954  0.00  0.00    +0.079 A 
ATOM     15  C   UNL     1     -33.321  27.474   4.132  0.00  0.00    +0.346 A 
ATOM     16  C   UNL     1     -33.068  31.066   2.991  0.00  0.00    +0.139 C 
ATOM     17  C   UNL     1     -31.745  29.295   4.671  0.00  0.00    +0.002 C 
ATOM     18  C   UNL     1     -31.279  30.600   4.545  0.00  0.00    -0.019 C 
ATOM     19  C   UNL     1     -31.941  31.486   3.705  0.00  0.00    +0.033 C 
ATOM     20  C   UNL     1     -30.078  31.046   5.307  0.00  0.00    +0.031 C 
ENDROOT
BRANCH   3  22
ATOM     21  O   UNL     1     -35.974  23.796   2.275  0.00  0.00    -0.349 OA
ATOM     22  C   UNL     1     -36.005  25.058   2.954  0.00  0.00    +0.167 C 
ATOM     23  C   UNL     1     -36.719  24.927   4.312  0.00  0.00    +0.171 C 
ATOM     24  C   UNL     1     -36.098  23.813   5.164  0.00  0.00    +0.169 C 
ATOM     25  C   UNL     1     -36.007  22.522   4.345  0.00  0.00    +0.167 C 
ATOM     26  C   UNL     1     -35.302  22.765   3.004  0.00  0.00    +0.145 C 
ATOM     27  C   UNL     1     -35.310  21.514   2.131  0.00  0.00    +0.035 C 
BRANCH  23  28
ATOM     28  O   UNL     1     -36.653  26.162   5.017  0.00  0.00    -0.379 OA
ATOM     29  H   UNL     1     -35.973  26.105   5.706  0.00  0.00    +0.211 HD
ENDBRANCH  23  28
BRANCH  24  30
ATOM     30  O   UNL     1     -34.802  24.201   5.625  0.00  0.00    -0.379 OA
ATOM     31  H   UNL     1     -34.892  24.901   6.291  0.00  0.00    +0.211 HD
ENDBRANCH  24  30
BRANCH  25  32
ATOM     32  O   UNL     1     -35.321  21.521   5.085  0.00  0.00    -0.379 OA
ATOM     33  H   UNL     1     -34.466  21.868   5.383  0.00  0.00    +0.211 HD
ENDBRANCH  25  32
ENDBRANCH   3  22
BRANCH  10  34
ATOM     34  O   UNL     1     -37.279  30.405  -0.015  0.00  0.00    -0.471 OA
ATOM     35  C   UNL     1     -37.498  31.726   0.472  0.00  0.00    +0.252 C 
ENDBRANCH  10  34
BRANCH   9  36
ATOM     36  O   UNL     1     -38.895  28.444  -0.535  0.00  0.00    -0.505 OA
ATOM     37  H   UNL     1     -39.809  28.268  -0.629  0.00  0.00    +0.292 HD
ENDBRANCH   9  36
BRANCH  16  38
ATOM     38  O   UNL     1     -33.612  32.042   2.208  0.00  0.00    -0.471 OA
ATOM     39  C   UNL     1     -33.043  33.345   2.311  0.00  0.00    +0.252 C 
ENDBRANCH  16  38
TORSDOF 7
ENDMDL
MODEL 3
REMARK VINA RESULT:      -6.8      4.237      9.363
REMARK  Name = 53461654
REMARK  7 active torsions:
REMARK  status: ('A' for Active; 'I' for Inactive)
REMARK    1  A    between atoms: C_3  and  C_22
REMARK    2  A    between atoms: C_9  and  O_36
REMARK    3  A    between atoms: C_10  and  O_34
REMARK    4  A    between atoms: C_16  and  O_38
REMARK    5  A    between atoms: C_23  and  O_28
REMARK    6  A    between atoms: C_24  and  O_30
REMARK    7  A    between atoms: C_25  and  O_32
REMARK                            x       y       z     vdW  Elec       q    Type
REMARK                         _______ _______ _______ _____ _____    ______ ____
ROOT
ATOM      1  O   UNL     1     -33.842  27.403   4.004  0.00  0.00    -0.421 OA
ATOM      2  O   UNL     1     -32.541  26.407   5.590  0.00  0.00    -0.244 OA
ATOM      3  C   UNL     1     -36.018  27.129   2.199  0.00  0.00    +0.010 C 
ATOM      4  C   UNL     1     -35.292  28.336   2.313  0.00  0.00    +0.039 C 
ATOM      5  C   UNL     1     -35.670  29.425   1.501  0.00  0.00    +0.070 C 
ATOM      6  C   UNL     1     -37.084  27.009   1.308  0.00  0.00    +0.001 C 
ATOM      7  C   UNL     1     -34.200  28.515   3.199  0.00  0.00    +0.149 A 
ATOM      8  C   UNL     1     -33.480  29.709   3.312  0.00  0.00    +0.041 A 
ATOM      9  C   UNL     1     -36.747  29.289   0.607  0.00  0.00    +0.137 C 
ATOM     10  C   UNL     1     -34.962  30.628   1.599  0.00  0.00    +0.142 C 
ATOM     11  C   UNL     1     -37.449  28.089   0.512  0.00  0.00    +0.036 C 
ATOM     12  C   UNL     1     -33.888  30.766   2.489  0.00  0.00    +0.040 C 
ATOM     13  C   UNL     1     -32.364  29.784   4.266  0.00  0.00    +0.043 A 
ATOM     14  C   UNL     1     -32.039  28.661   5.045  0.00  0.00    +0.079 A 
ATOM     15  C   UNL     1     -32.803  27.400   4.924  0.00  0.00    +0.346 A 
ATOM     16  C   UNL     1     -31.581  30.942   4.449  0.00  0.00    +0.139 C 
ATOM     17  C   UNL     1     -30.980  28.695   5.966  0.00  0.00    +0.002 C 
ATOM     18  C   UNL     1     -30.226  29.853   6.125  0.00  0.00    -0.019 C 
ATOM     19  C   UNL     1     -30.526  30.977   5.366  0.00  0.00    +0.033 C 
ATOM     20  C   UNL     1     -29.101  29.889   7.103  0.00  0.00    +0.031 C 
ENDROOT
BRANCH   3  22
ATOM     21  O   UNL     1     -35.828  24.757   2.134  0.00  0.00    -0.349 OA
ATOM     22  C   UNL     1     -35.715  25.884   3.011  0.00  0.00    +0.167 C 
ATOM     23  C   UNL     1     -36.672  25.740   4.209  0.00  0.00    +0.171 C 
ATOM     24  C   UNL     1     -36.460  24.405   4.935  0.00  0.00    +0.169 C 
ATOM     25  C   UNL     1     -36.497  23.254   3.925  0.00  0.00    +0.167 C 
ATOM     26  C   UNL     1     -35.529  23.506   2.762  0.00  0.00    +0.145 C 
ATOM     27  C   UNL     1     -35.642  22.424   1.692  0.00  0.00    +0.035 C 
BRANCH  23  28
ATOM     28  O   UNL     1     -36.476  26.816   5.120  0.00  0.00    -0.379 OA
ATOM     29  H   UNL     1     -37.179  26.806   5.789  0.00  0.00    +0.211 HD
ENDBRANCH  23  28
BRANCH  24  30
ATOM     30  O   UNL     1     -35.216  24.410   5.637  0.00  0.00    -0.379 OA
ATOM     31  H   UNL     1     -34.593  23.811   5.196  0.00  0.00    +0.211 HD
ENDBRANCH  24  30
BRANCH  25  32
ATOM     32  O   UNL     1     -36.179  22.028   4.569  0.00  0.00    -0.379 OA
ATOM     33  H   UNL     1     -36.148  22.165   5.529  0.00  0.00    +0.211 HD
ENDBRANCH  25  32
ENDBRANCH   3  22
BRANCH  10  34
ATOM     34  O   UNL     1     -35.269  31.728   0.845  0.00  0.00    -0.471 OA
ATOM     35  C   UNL     1     -34.710  32.969   1.262  0.00  0.00    +0.252 C 
ENDBRANCH  10  34
BRANCH   9  36
ATOM     36  O   UNL     1     -37.164  30.304  -0.208  0.00  0.00    -0.505 OA
ATOM     37  H   UNL     1     -36.893  30.327  -1.104  0.00  0.00    +0.292 HD
ENDBRANCH   9  36
BRANCH  16  38
ATOM     38  O   UNL     1     -31.759  32.116   3.777  0.00  0.00    -0.471 OA
ATOM     39  C   UNL     1     -30.620  32.661   3.116  0.00  0.00    +0.252 C 
ENDBRANCH  16  38
TORSDOF 7
ENDMDL
MODEL 4
REMARK VINA RESULT:      -6.7      3.965      7.487
REMARK  Name = 53461654
REMARK  7 active torsions:
REMARK  status: ('A' for Active; 'I' for Inactive)
REMARK    1  A    between atoms: C_3  and  C_22
REMARK    2  A    between atoms: C_9  and  O_36
REMARK    3  A    between atoms: C_10  and  O_34
REMARK    4  A    between atoms: C_16  and  O_38
REMARK    5  A    between atoms: C_23  and  O_28
REMARK    6  A    between atoms: C_24  and  O_30
REMARK    7  A    between atoms: C_25  and  O_32
REMARK                            x       y       z     vdW  Elec       q    Type
REMARK                         _______ _______ _______ _____ _____    ______ ____
ROOT
ATOM      1  O   UNL     1     -37.154  18.528  -0.322  0.00  0.00    -0.421 OA
ATOM      2  O   UNL     1     -39.333  19.081  -0.701  0.00  0.00    -0.244 OA
ATOM      3  C   UNL     1     -34.598  19.399   0.558  0.00  0.00    +0.010 C 
ATOM      4  C   UNL     1     -34.823  18.075   0.122  0.00  0.00    +0.039 C 
ATOM      5  C   UNL     1     -33.739  17.173   0.130  0.00  0.00    +0.070 C 
ATOM      6  C   UNL     1     -33.337  19.814   0.988  0.00  0.00    +0.001 C 
ATOM      7  C   UNL     1     -36.081  17.599  -0.326  0.00  0.00    +0.149 A 
ATOM      8  C   UNL     1     -36.305  16.288  -0.759  0.00  0.00    +0.041 A 
ATOM      9  C   UNL     1     -32.474  17.604   0.565  0.00  0.00    +0.137 C 
ATOM     10  C   UNL     1     -33.943  15.856  -0.300  0.00  0.00    +0.142 C 
ATOM     11  C   UNL     1     -32.275  18.916   0.991  0.00  0.00    +0.036 C 
ATOM     12  C   UNL     1     -35.203  15.423  -0.735  0.00  0.00    +0.040 C 
ATOM     13  C   UNL     1     -37.652  15.901  -1.203  0.00  0.00    +0.043 A 
ATOM     14  C   UNL     1     -38.689  16.850  -1.186  0.00  0.00    +0.079 A 
ATOM     15  C   UNL     1     -38.448  18.236  -0.726  0.00  0.00    +0.346 A 
ATOM     16  C   UNL     1     -37.974  14.606  -1.656  0.00  0.00    +0.139 C 
ATOM     17  C   UNL     1     -39.988  16.517  -1.602  0.00  0.00    +0.002 C 
ATOM     18  C   UNL     1     -40.274  15.230  -2.044  0.00  0.00    -0.019 C 
ATOM     19  C   UNL     1     -39.267  14.274  -2.071  0.00  0.00    +0.033 C 
ATOM     20  C   UNL     1     -41.654  14.877  -2.486  0.00  0.00    +0.031 C 
ENDROOT
BRANCH   3  22
ATOM     21  O   UNL     1     -35.125  21.659   0.023  0.00  0.00    -0.349 OA
ATOM     22  C   UNL     1     -35.674  20.467   0.599  0.00  0.00    +0.167 C 
ATOM     23  C   UNL     1     -36.159  20.732   2.037  0.00  0.00    +0.171 C 
ATOM     24  C   UNL     1     -37.133  21.916   2.089  0.00  0.00    +0.169 C 
ATOM     25  C   UNL     1     -36.522  23.123   1.371  0.00  0.00    +0.167 C 
ATOM     26  C   UNL     1     -36.050  22.748  -0.040  0.00  0.00    +0.145 C 
ATOM     27  C   UNL     1     -35.334  23.912  -0.720  0.00  0.00    +0.035 C 
BRANCH  23  28
ATOM     28  O   UNL     1     -36.791  19.568   2.559  0.00  0.00    -0.379 OA
ATOM     29  H   UNL     1     -37.535  19.321   1.987  0.00  0.00    +0.211 HD
ENDBRANCH  23  28
BRANCH  24  30
ATOM     30  O   UNL     1     -38.381  21.562   1.489  0.00  0.00    -0.379 OA
ATOM     31  H   UNL     1     -38.739  22.326   1.013  0.00  0.00    +0.211 HD
ENDBRANCH  24  30
BRANCH  25  32
ATOM     32  O   UNL     1     -37.466  24.183   1.306  0.00  0.00    -0.379 OA
ATOM     33  H   UNL     1     -37.785  24.388   2.199  0.00  0.00    +0.211 HD
ENDBRANCH  25  32
ENDBRANCH   3  22
BRANCH  10  34
ATOM     34  O   UNL     1     -32.942  14.925  -0.322  0.00  0.00    -0.471 OA
ATOM     35  C   UNL     1     -32.772  14.193  -1.532  0.00  0.00    +0.252 C 
ENDBRANCH  10  34
BRANCH   9  36
ATOM     36  O   UNL     1     -31.383  16.783   0.597  0.00  0.00    -0.505 OA
ATOM     37  H   UNL     1     -31.453  15.924   0.966  0.00  0.00    +0.292 HD
ENDBRANCH   9  36
BRANCH  16  38
ATOM     38  O   UNL     1     -37.092  13.568  -1.737  0.00  0.00    -0.471 OA
ATOM     39  C   UNL     1     -37.602  12.322  -2.203  0.00  0.00    +0.252 C 
ENDBRANCH  16  38
TORSDOF 7
ENDMDL
MODEL 5
REMARK VINA RESULT:      -6.6      3.745      6.087
REMARK  Name = 53461654
REMARK  7 active torsions:
REMARK  status: ('A' for Active; 'I' for Inactive)
REMARK    1  A    between atoms: C_3  and  C_22
REMARK    2  A    between atoms: C_9  and  O_36
REMARK    3  A    between atoms: C_10  and  O_34
REMARK    4  A    between atoms: C_16  and  O_38
REMARK    5  A    between atoms: C_23  and  O_28
REMARK    6  A    between atoms: C_24  and  O_30
REMARK    7  A    between atoms: C_25  and  O_32
REMARK                            x       y       z     vdW  Elec       q    Type
REMARK                         _______ _______ _______ _____ _____    ______ ____
ROOT
ATOM      1  O   UNL     1     -37.174  19.607  -0.047  0.00  0.00    -0.421 OA
ATOM      2  O   UNL     1     -39.050  20.888  -0.237  0.00  0.00    -0.244 OA
ATOM      3  C   UNL     1     -34.503  19.428   0.901  0.00  0.00    +0.010 C 
ATOM      4  C   UNL     1     -35.124  18.358   0.221  0.00  0.00    +0.039 C 
ATOM      5  C   UNL     1     -34.385  17.175   0.015  0.00  0.00    +0.070 C 
ATOM      6  C   UNL     1     -33.190  19.327   1.361  0.00  0.00    +0.001 C 
ATOM      7  C   UNL     1     -36.453  18.405  -0.269  0.00  0.00    +0.149 A 
ATOM      8  C   UNL     1     -37.070  17.345  -0.943  0.00  0.00    +0.041 A 
ATOM      9  C   UNL     1     -33.063  17.087   0.484  0.00  0.00    +0.137 C 
ATOM     10  C   UNL     1     -34.984  16.103  -0.658  0.00  0.00    +0.142 C 
ATOM     11  C   UNL     1     -32.470  18.156   1.152  0.00  0.00    +0.036 C 
ATOM     12  C   UNL     1     -36.302  16.188  -1.127  0.00  0.00    +0.040 C 
ATOM     13  C   UNL     1     -38.456  17.503  -1.409  0.00  0.00    +0.043 A 
ATOM     14  C   UNL     1     -39.136  18.709  -1.172  0.00  0.00    +0.079 A 
ATOM     15  C   UNL     1     -38.481  19.828  -0.457  0.00  0.00    +0.346 A 
ATOM     16  C   UNL     1     -39.158  16.493  -2.097  0.00  0.00    +0.139 C 
ATOM     17  C   UNL     1     -40.459  18.896  -1.601  0.00  0.00    +0.002 C 
ATOM     18  C   UNL     1     -41.127  17.881  -2.278  0.00  0.00    -0.019 C 
ATOM     19  C   UNL     1     -40.476  16.679  -2.526  0.00  0.00    +0.033 C 
ATOM     20  C   UNL     1     -42.532  18.079  -2.733  0.00  0.00    +0.031 C 
ENDROOT
BRANCH   3  22
ATOM     21  O   UNL     1     -34.229  21.793   0.940  0.00  0.00    -0.349 OA
ATOM     22  C   UNL     1     -35.184  20.753   1.187  0.00  0.00    +0.167 C 
ATOM     23  C   UNL     1     -35.704  20.825   2.635  0.00  0.00    +0.171 C 
ATOM     24  C   UNL     1     -36.253  22.219   2.962  0.00  0.00    +0.169 C 
ATOM     25  C   UNL     1     -35.221  23.285   2.584  0.00  0.00    +0.167 C 
ATOM     26  C   UNL     1     -34.750  23.112   1.134  0.00  0.00    +0.145 C 
ATOM     27  C   UNL     1     -33.636  24.094   0.784  0.00  0.00    +0.035 C 
BRANCH  23  28
ATOM     28  O   UNL     1     -36.723  19.850   2.833  0.00  0.00    -0.379 OA
ATOM     29  H   UNL     1     -37.485  20.060   2.270  0.00  0.00    +0.211 HD
ENDBRANCH  23  28
BRANCH  24  30
ATOM     30  O   UNL     1     -37.481  22.448   2.267  0.00  0.00    -0.379 OA
ATOM     31  H   UNL     1     -37.304  22.527   1.316  0.00  0.00    +0.211 HD
ENDBRANCH  24  30
BRANCH  25  32
ATOM     32  O   UNL     1     -35.769  24.584   2.768  0.00  0.00    -0.379 OA
ATOM     33  H   UNL     1     -35.054  25.239   2.771  0.00  0.00    +0.211 HD
ENDBRANCH  25  32
ENDBRANCH   3  22
BRANCH  10  34
ATOM     34  O   UNL     1     -34.331  14.925  -0.896  0.00  0.00    -0.471 OA
ATOM     35  C   UNL     1     -35.093  13.877  -1.488  0.00  0.00    +0.252 C 
ENDBRANCH  10  34
BRANCH   9  36
ATOM     36  O   UNL     1     -32.291  15.971   0.318  0.00  0.00    -0.505 OA
ATOM     37  H   UNL     1     -31.679  15.721   0.981  0.00  0.00    +0.292 HD
ENDBRANCH   9  36
BRANCH  16  38
ATOM     38  O   UNL     1     -38.650  15.266  -2.410  0.00  0.00    -0.471 OA
ATOM     39  C   UNL     1     -39.327  14.132  -1.874  0.00  0.00    +0.252 C 
ENDBRANCH  16  38
TORSDOF 7
ENDMDL
MODEL 6
REMARK VINA RESULT:      -6.6      2.801      8.352
REMARK  Name = 53461654
REMARK  7 active torsions:
REMARK  status: ('A' for Active; 'I' for Inactive)
REMARK    1  A    between atoms: C_3  and  C_22
REMARK    2  A    between atoms: C_9  and  O_36
REMARK    3  A    between atoms: C_10  and  O_34
REMARK    4  A    between atoms: C_16  and  O_38
REMARK    5  A    between atoms: C_23  and  O_28
REMARK    6  A    between atoms: C_24  and  O_30
REMARK    7  A    between atoms: C_25  and  O_32
REMARK                            x       y       z     vdW  Elec       q    Type
REMARK                         _______ _______ _______ _____ _____    ______ ____
ROOT
ATOM      1  O   UNL     1     -37.768  25.239   2.115  0.00  0.00    -0.421 OA
ATOM      2  O   UNL     1     -38.367  23.155   2.821  0.00  0.00    -0.244 OA
ATOM      3  C   UNL     1     -38.370  27.441   0.425  0.00  0.00    +0.010 C 
ATOM      4  C   UNL     1     -37.246  27.444   1.280  0.00  0.00    +0.039 C 
ATOM      5  C   UNL     1     -36.410  28.580   1.284  0.00  0.00    +0.070 C 
ATOM      6  C   UNL     1     -38.654  28.529  -0.400  0.00  0.00    +0.001 C 
ATOM      7  C   UNL     1     -36.909  26.368   2.138  0.00  0.00    +0.149 A 
ATOM      8  C   UNL     1     -35.796  26.370   2.986  0.00  0.00    +0.041 A 
ATOM      9  C   UNL     1     -36.708  29.669   0.447  0.00  0.00    +0.137 C 
ATOM     10  C   UNL     1     -35.291  28.602   2.125  0.00  0.00    +0.142 C 
ATOM     11  C   UNL     1     -37.822  29.644  -0.389  0.00  0.00    +0.036 C 
ATOM     12  C   UNL     1     -34.992  27.517   2.960  0.00  0.00    +0.040 C 
ATOM     13  C   UNL     1     -35.540  25.198   3.835  0.00  0.00    +0.043 A 
ATOM     14  C   UNL     1     -36.413  24.098   3.783  0.00  0.00    +0.079 A 
ATOM     15  C   UNL     1     -37.591  24.099   2.886  0.00  0.00    +0.346 A 
ATOM     16  C   UNL     1     -34.446  25.108   4.719  0.00  0.00    +0.139 C 
ATOM     17  C   UNL     1     -36.202  22.961   4.579  0.00  0.00    +0.002 C 
ATOM     18  C   UNL     1     -35.113  22.903   5.442  0.00  0.00    -0.019 C 
ATOM     19  C   UNL     1     -34.234  23.976   5.512  0.00  0.00    +0.033 C 
ATOM     20  C   UNL     1     -34.889  21.695   6.288  0.00  0.00    +0.031 C 
ENDROOT
BRANCH   3  22
ATOM     21  O   UNL     1     -39.663  26.104  -1.063  0.00  0.00    -0.349 OA
ATOM     22  C   UNL     1     -39.348  26.285   0.323  0.00  0.00    +0.167 C 
ATOM     23  C   UNL     1     -40.626  26.547   1.142  0.00  0.00    +0.171 C 
ATOM     24  C   UNL     1     -41.670  25.448   0.913  0.00  0.00    +0.169 C 
ATOM     25  C   UNL     1     -41.886  25.241  -0.589  0.00  0.00    +0.167 C 
ATOM     26  C   UNL     1     -40.553  25.013  -1.314  0.00  0.00    +0.145 C 
ATOM     27  C   UNL     1     -40.744  24.923  -2.825  0.00  0.00    +0.035 C 
BRANCH  23  28
ATOM     28  O   UNL     1     -40.308  26.625   2.527  0.00  0.00    -0.379 OA
ATOM     29  H   UNL     1     -40.303  25.732   2.908  0.00  0.00    +0.211 HD
ENDBRANCH  23  28
BRANCH  24  30
ATOM     30  O   UNL     1     -41.253  24.227   1.527  0.00  0.00    -0.379 OA
ATOM     31  H   UNL     1     -40.758  24.425   2.337  0.00  0.00    +0.211 HD
ENDBRANCH  24  30
BRANCH  25  32
ATOM     32  O   UNL     1     -42.759  24.141  -0.812  0.00  0.00    -0.379 OA
ATOM     33  H   UNL     1     -42.503  23.404  -0.236  0.00  0.00    +0.211 HD
ENDBRANCH  25  32
ENDBRANCH   3  22
BRANCH  10  34
ATOM     34  O   UNL     1     -34.434  29.666   2.183  0.00  0.00    -0.471 OA
ATOM     35  C   UNL     1     -33.396  29.602   3.156  0.00  0.00    +0.252 C 
ENDBRANCH  10  34
BRANCH   9  36
ATOM     36  O   UNL     1     -35.940  30.799   0.401  0.00  0.00    -0.505 OA
ATOM     37  H   UNL     1     -35.338  30.984   1.094  0.00  0.00    +0.292 HD
ENDBRANCH   9  36
BRANCH  16  38
ATOM     38  O   UNL     1     -33.505  26.081   4.894  0.00  0.00    -0.471 OA
ATOM     39  C   UNL     1     -33.374  26.624   6.205  0.00  0.00    +0.252 C 
ENDBRANCH  16  38
TORSDOF 7
ENDMDL
MODEL 7
REMARK VINA RESULT:      -6.4      6.319      9.976
REMARK  Name = 53461654
REMARK  7 active torsions:
REMARK  status: ('A' for Active; 'I' for Inactive)
REMARK    1  A    between atoms: C_3  and  C_22
REMARK    2  A    between atoms: C_9  and  O_36
REMARK    3  A    between atoms: C_10  and  O_34
REMARK    4  A    between atoms: C_16  and  O_38
REMARK    5  A    between atoms: C_23  and  O_28
REMARK    6  A    between atoms: C_24  and  O_30
REMARK    7  A    between atoms: C_25  and  O_32
REMARK                            x       y       z     vdW  Elec       q    Type
REMARK                         _______ _______ _______ _____ _____    ______ ____
ROOT
ATOM      1  O   UNL     1     -31.898  31.344   3.442  0.00  0.00    -0.421 OA
ATOM      2  O   UNL     1     -30.278  32.905   3.810  0.00  0.00    -0.244 OA
ATOM      3  C   UNL     1     -32.706  28.638   3.747  0.00  0.00    +0.010 C 
ATOM      4  C   UNL     1     -33.531  29.595   3.115  0.00  0.00    +0.039 C 
ATOM      5  C   UNL     1     -34.788  29.179   2.628  0.00  0.00    +0.070 C 
ATOM      6  C   UNL     1     -33.115  27.313   3.890  0.00  0.00    +0.001 C 
ATOM      7  C   UNL     1     -33.168  30.954   2.942  0.00  0.00    +0.149 A 
ATOM      8  C   UNL     1     -33.984  31.902   2.316  0.00  0.00    +0.041 A 
ATOM      9  C   UNL     1     -35.187  27.840   2.779  0.00  0.00    +0.137 C 
ATOM     10  C   UNL     1     -35.619  30.113   1.998  0.00  0.00    +0.142 C 
ATOM     11  C   UNL     1     -34.357  26.913   3.405  0.00  0.00    +0.036 C 
ATOM     12  C   UNL     1     -35.224  31.449   1.847  0.00  0.00    +0.040 C 
ATOM     13  C   UNL     1     -33.506  33.287   2.189  0.00  0.00    +0.043 A 
ATOM     14  C   UNL     1     -32.243  33.634   2.697  0.00  0.00    +0.079 A 
ATOM     15  C   UNL     1     -31.382  32.629   3.360  0.00  0.00    +0.346 A 
ATOM     16  C   UNL     1     -34.255  34.309   1.575  0.00  0.00    +0.139 C 
ATOM     17  C   UNL     1     -31.752  34.946   2.595  0.00  0.00    +0.002 C 
ATOM     18  C   UNL     1     -32.516  35.934   1.983  0.00  0.00    -0.019 C 
ATOM     19  C   UNL     1     -33.768  35.616   1.473  0.00  0.00    +0.033 C 
ATOM     20  C   UNL     1     -31.996  37.327   1.875  0.00  0.00    +0.031 C 
ENDROOT
BRANCH   3  22
ATOM     21  O   UNL     1     -30.438  27.925   3.871  0.00  0.00    -0.349 OA
ATOM     22  C   UNL     1     -31.334  28.952   4.313  0.00  0.00    +0.167 C 
ATOM     23  C   UNL     1     -31.358  29.029   5.852  0.00  0.00    +0.171 C 
ATOM     24  C   UNL     1     -29.944  29.194   6.423  0.00  0.00    +0.169 C 
ATOM     25  C   UNL     1     -29.018  28.125   5.835  0.00  0.00    +0.167 C 
ATOM     26  C   UNL     1     -29.087  28.115   4.302  0.00  0.00    +0.145 C 
ATOM     27  C   UNL     1     -28.259  26.978   3.711  0.00  0.00    +0.035 C 
BRANCH  23  28
ATOM     28  O   UNL     1     -32.174  30.117   6.271  0.00  0.00    -0.379 OA
ATOM     29  H   UNL     1     -32.481  30.610   5.493  0.00  0.00    +0.211 HD
ENDBRANCH  23  28
BRANCH  24  30
ATOM     30  O   UNL     1     -29.439  30.500   6.138  0.00  0.00    -0.379 OA
ATOM     31  H   UNL     1     -29.262  30.966   6.970  0.00  0.00    +0.211 HD
ENDBRANCH  24  30
BRANCH  25  32
ATOM     32  O   UNL     1     -27.681  28.347   6.264  0.00  0.00    -0.379 OA
ATOM     33  H   UNL     1     -27.067  27.984   5.607  0.00  0.00    +0.211 HD
ENDBRANCH  25  32
ENDBRANCH   3  22
BRANCH  10  34
ATOM     34  O   UNL     1     -36.851  29.785   1.500  0.00  0.00    -0.471 OA
ATOM     35  C   UNL     1     -37.121  30.168   0.155  0.00  0.00    +0.252 C 
ENDBRANCH  10  34
BRANCH   9  36
ATOM     36  O   UNL     1     -36.390  27.372   2.330  0.00  0.00    -0.505 OA
ATOM     37  H   UNL     1     -36.882  27.867   1.705  0.00  0.00    +0.292 HD
ENDBRANCH   9  36
BRANCH  16  38
ATOM     38  O   UNL     1     -35.496  34.146   1.031  0.00  0.00    -0.471 OA
ATOM     39  C   UNL     1     -36.393  35.250   1.125  0.00  0.00    +0.252 C 
ENDBRANCH  16  38
TORSDOF 7
ENDMDL
MODEL 8
REMARK VINA RESULT:      -6.3      8.775     13.379
REMARK  Name = 53461654
REMARK  7 active torsions:
REMARK  status: ('A' for Active; 'I' for Inactive)
REMARK    1  A    between atoms: C_3  and  C_22
REMARK    2  A    between atoms: C_9  and  O_36
REMARK    3  A    between atoms: C_10  and  O_34
REMARK    4  A    between atoms: C_16  and  O_38
REMARK    5  A    between atoms: C_23  and  O_28
REMARK    6  A    between atoms: C_24  and  O_30
REMARK    7  A    between atoms: C_25  and  O_32
REMARK                            x       y       z     vdW  Elec       q    Type
REMARK                         _______ _______ _______ _____ _____    ______ ____
ROOT
ATOM      1  O   UNL     1     -36.648  33.439   1.239  0.00  0.00    -0.421 OA
ATOM      2  O   UNL     1     -37.875  31.528   1.437  0.00  0.00    -0.244 OA
ATOM      3  C   UNL     1     -36.636  36.197   0.558  0.00  0.00    +0.010 C 
ATOM      4  C   UNL     1     -35.466  35.530   0.985  0.00  0.00    +0.039 C 
ATOM      5  C   UNL     1     -34.267  36.269   1.070  0.00  0.00    +0.070 C 
ATOM      6  C   UNL     1     -36.615  37.552   0.227  0.00  0.00    +0.001 C 
ATOM      7  C   UNL     1     -35.427  34.157   1.333  0.00  0.00    +0.149 A 
ATOM      8  C   UNL     1     -34.269  33.495   1.756  0.00  0.00    +0.041 A 
ATOM      9  C   UNL     1     -34.261  37.633   0.733  0.00  0.00    +0.137 C 
ATOM     10  C   UNL     1     -33.097  35.624   1.491  0.00  0.00    +0.142 C 
ATOM     11  C   UNL     1     -35.428  38.270   0.315  0.00  0.00    +0.036 C 
ATOM     12  C   UNL     1     -33.100  34.264   1.827  0.00  0.00    +0.040 C 
ATOM     13  C   UNL     1     -34.343  32.066   2.092  0.00  0.00    +0.043 A 
ATOM     14  C   UNL     1     -35.570  31.390   1.985  0.00  0.00    +0.079 A 
ATOM     15  C   UNL     1     -36.794  32.093   1.539  0.00  0.00    +0.346 A 
ATOM     16  C   UNL     1     -33.232  31.316   2.525  0.00  0.00    +0.139 C 
ATOM     17  C   UNL     1     -35.680  30.026   2.298  0.00  0.00    +0.002 C 
ATOM     18  C   UNL     1     -34.564  29.312   2.723  0.00  0.00    -0.019 C 
ATOM     19  C   UNL     1     -33.340  29.957   2.836  0.00  0.00    +0.033 C 
ATOM     20  C   UNL     1     -34.681  27.863   3.055  0.00  0.00    +0.031 C 
ENDROOT
BRANCH   3  22
ATOM     21  O   UNL     1     -38.585  35.991  -0.793  0.00  0.00    -0.349 OA
ATOM     22  C   UNL     1     -37.988  35.522   0.423  0.00  0.00    +0.167 C 
ATOM     23  C   UNL     1     -38.898  35.823   1.628  0.00  0.00    +0.171 C 
ATOM     24  C   UNL     1     -40.311  35.267   1.413  0.00  0.00    +0.169 C 
ATOM     25  C   UNL     1     -40.849  35.727   0.055  0.00  0.00    +0.167 C 
ATOM     26  C   UNL     1     -39.860  35.403  -1.072  0.00  0.00    +0.145 C 
ATOM     27  C   UNL     1     -40.332  35.961  -2.411  0.00  0.00    +0.035 C 
BRANCH  23  28
ATOM     28  O   UNL     1     -38.338  35.264   2.811  0.00  0.00    -0.379 OA
ATOM     29  H   UNL     1     -37.951  35.972   3.351  0.00  0.00    +0.211 HD
ENDBRANCH  23  28
BRANCH  24  30
ATOM     30  O   UNL     1     -40.302  33.840   1.486  0.00  0.00    -0.379 OA
ATOM     31  H   UNL     1     -40.065  33.564   2.384  0.00  0.00    +0.211 HD
ENDBRANCH  24  30
BRANCH  25  32
ATOM     32  O   UNL     1     -42.105  35.116  -0.206  0.00  0.00    -0.379 OA
ATOM     33  H   UNL     1     -42.771  35.802  -0.368  0.00  0.00    +0.211 HD
ENDBRANCH  25  32
ENDBRANCH   3  22
BRANCH  10  34
ATOM     34  O   UNL     1     -31.897  36.272   1.598  0.00  0.00    -0.471 OA
ATOM     35  C   UNL     1     -31.259  36.235   2.870  0.00  0.00    +0.252 C 
ENDBRANCH  10  34
BRANCH   9  36
ATOM     36  O   UNL     1     -33.135  38.405   0.793  0.00  0.00    -0.505 OA
ATOM     37  H   UNL     1     -32.608  38.406   1.568  0.00  0.00    +0.292 HD
ENDBRANCH   9  36
BRANCH  16  38
ATOM     38  O   UNL     1     -31.971  31.814   2.683  0.00  0.00    -0.471 OA
ATOM     39  C   UNL     1     -31.388  31.693   3.979  0.00  0.00    +0.252 C 
ENDBRANCH  16  38
TORSDOF 7
ENDMDL
MODEL 9
REMARK VINA RESULT:      -6.2      5.871      8.789
REMARK  Name = 53461654
REMARK  7 active torsions:
REMARK  status: ('A' for Active; 'I' for Inactive)
REMARK    1  A    between atoms: C_3  and  C_22
REMARK    2  A    between atoms: C_9  and  O_36
REMARK    3  A    between atoms: C_10  and  O_34
REMARK    4  A    between atoms: C_16  and  O_38
REMARK    5  A    between atoms: C_23  and  O_28
REMARK    6  A    between atoms: C_24  and  O_30
REMARK    7  A    between atoms: C_25  and  O_32
REMARK                            x       y       z     vdW  Elec       q    Type
REMARK                         _______ _______ _______ _____ _____    ______ ____
ROOT
ATOM      1  O   UNL     1     -43.825  27.415   3.027  0.00  0.00    -0.421 OA
ATOM      2  O   UNL     1     -42.588  29.260   3.543  0.00  0.00    -0.244 OA
ATOM      3  C   UNL     1     -44.368  25.370   1.133  0.00  0.00    +0.010 C 
ATOM      4  C   UNL     1     -45.066  25.455   2.358  0.00  0.00    +0.039 C 
ATOM      5  C   UNL     1     -46.057  24.489   2.632  0.00  0.00    +0.070 C 
ATOM      6  C   UNL     1     -44.644  24.360   0.211  0.00  0.00    +0.001 C 
ATOM      7  C   UNL     1     -44.828  26.458   3.329  0.00  0.00    +0.149 A 
ATOM      8  C   UNL     1     -45.519  26.543   4.543  0.00  0.00    +0.041 A 
ATOM      9  C   UNL     1     -46.325  23.477   1.694  0.00  0.00    +0.137 C 
ATOM     10  C   UNL     1     -46.760  24.557   3.841  0.00  0.00    +0.142 C 
ATOM     11  C   UNL     1     -45.624  23.414   0.492  0.00  0.00    +0.036 C 
ATOM     12  C   UNL     1     -46.495  25.565   4.777  0.00  0.00    +0.040 C 
ATOM     13  C   UNL     1     -45.191  27.627   5.480  0.00  0.00    +0.043 A 
ATOM     14  C   UNL     1     -44.192  28.557   5.144  0.00  0.00    +0.079 A 
ATOM     15  C   UNL     1     -43.461  28.464   3.860  0.00  0.00    +0.346 A 
ATOM     16  C   UNL     1     -45.833  27.795   6.723  0.00  0.00    +0.139 C 
ATOM     17  C   UNL     1     -43.851  29.605   6.013  0.00  0.00    +0.002 C 
ATOM     18  C   UNL     1     -44.502  29.744   7.234  0.00  0.00    -0.019 C 
ATOM     19  C   UNL     1     -45.494  28.839   7.589  0.00  0.00    +0.033 C 
ATOM     20  C   UNL     1     -44.139  30.857   8.157  0.00  0.00    +0.031 C 
ENDROOT
BRANCH   3  22
ATOM     21  O   UNL     1     -43.547  26.732  -0.640  0.00  0.00    -0.349 OA
ATOM     22  C   UNL     1     -43.281  26.343   0.714  0.00  0.00    +0.167 C 
ATOM     23  C   UNL     1     -41.879  25.716   0.834  0.00  0.00    +0.171 C 
ATOM     24  C   UNL     1     -40.801  26.648   0.266  0.00  0.00    +0.169 C 
ATOM     25  C   UNL     1     -41.197  27.101  -1.142  0.00  0.00    +0.167 C 
ATOM     26  C   UNL     1     -42.615  27.686  -1.158  0.00  0.00    +0.145 C 
ATOM     27  C   UNL     1     -43.063  28.033  -2.575  0.00  0.00    +0.035 C 
BRANCH  23  28
ATOM     28  O   UNL     1     -41.593  25.427   2.199  0.00  0.00    -0.379 OA
ATOM     29  H   UNL     1     -42.419  25.234   2.668  0.00  0.00    +0.211 HD
ENDBRANCH  23  28
BRANCH  24  30
ATOM     30  O   UNL     1     -40.619  27.780   1.120  0.00  0.00    -0.379 OA
ATOM     31  H   UNL     1     -39.685  28.040   1.116  0.00  0.00    +0.211 HD
ENDBRANCH  24  30
BRANCH  25  32
ATOM     32  O   UNL     1     -40.266  28.061  -1.626  0.00  0.00    -0.379 OA
ATOM     33  H   UNL     1     -39.571  27.611  -2.131  0.00  0.00    +0.211 HD
ENDBRANCH  25  32
ENDBRANCH   3  22
BRANCH  10  34
ATOM     34  O   UNL     1     -47.735  23.658   4.178  0.00  0.00    -0.471 OA
ATOM     35  C   UNL     1     -48.225  23.714   5.514  0.00  0.00    +0.252 C 
ENDBRANCH  10  34
BRANCH   9  36
ATOM     36  O   UNL     1     -47.271  22.512   1.898  0.00  0.00    -0.505 OA
ATOM     37  H   UNL     1     -47.360  22.112   2.740  0.00  0.00    +0.292 HD
ENDBRANCH   9  36
BRANCH  16  38
ATOM     38  O   UNL     1     -46.821  26.986   7.204  0.00  0.00    -0.471 OA
ATOM     39  C   UNL     1     -46.738  26.613   8.578  0.00  0.00    +0.252 C 
ENDBRANCH  16  38
TORSDOF 7
ENDMDL
