MODEL 1
REMARK VINA RESULT:      -6.7      0.000      0.000
REMARK  Name = 5361848
REMARK  6 active torsions:
REMARK  status: ('A' for Active; 'I' for Inactive)
REMARK    1  A    between atoms: N_2  and  CA_9
REMARK    2  A    between atoms: C_3  and  C_19
REMARK    3  A    between atoms: CA_11  and  C_15
REMARK    4  A    between atoms: C_15  and  O_16
REMARK    5  A    between atoms: N_18  and  O_28
REMARK    6  A    between atoms: C_19  and  C_23
REMARK                            x       y       z     vdW  Elec       q    Type
REMARK                         _______ _______ _______ _____ _____    ______ ____
ROOT
ATOM      1  O   UNK A   0     -35.889  26.607   5.582  0.00  0.00    -0.268 OA
ATOM      2  N   MET A   1     -34.818  24.651   4.851  0.00  0.00    -0.291 N 
ATOM      3  C   UNK A   0     -34.905  25.981   5.224  0.00  0.00    +0.269 C 
ATOM      4  H   MET A   1     -33.941  24.291   4.586  0.00  0.00    +0.150 HD
ENDROOT
BRANCH   2   9
ATOM      5  SD  MET A   1     -36.366  24.797   2.194  0.00  0.00    -0.114 S 
ATOM      6  O   MET A   1     -34.994  21.394   5.093  0.00  0.00    -0.273 OA
ATOM      7  N   MET A   1     -36.191  22.385   3.323  0.00  0.00    -0.242 N 
ATOM      8  CE  MET A   1     -36.823  23.675   3.542  0.00  0.00    +0.155 C 
ATOM      9  CA  MET A   1     -35.977  23.759   4.832  0.00  0.00    +0.179 C 
ATOM     10  C   MET A   1     -35.611  22.272   4.537  0.00  0.00    +0.251 C 
ATOM     11  CA  MET A   1     -36.297  21.696   2.167  0.00  0.00    +0.127 C 
ATOM     12  CG  MET A   1     -37.090  23.738   0.889  0.00  0.00    +0.087 C 
ATOM     13  CB  MET A   1     -36.738  22.276   1.036  0.00  0.00    +0.007 C 
BRANCH  11  15
ATOM     14  OXT MET A   1     -34.767  19.929   1.731  0.00  0.00    -0.244 OA
ATOM     15  C   MET A   1     -35.866  20.298   2.105  0.00  0.00    +0.352 C 
BRANCH  15  16
ATOM     16  O   MET A   1     -36.868  19.496   2.523  0.00  0.00    -0.476 OA
ATOM     17  H   MET A   1     -36.931  18.618   2.202  0.00  0.00    +0.295 HD
ENDBRANCH  15  16
ENDBRANCH  11  15
ENDBRANCH   2   9
BRANCH   3  19
ATOM     18  N   UNK A   0     -32.969  27.036   6.256  0.00  0.00    -0.076 NA
ATOM     19  C   UNK A   0     -33.581  26.698   5.162  0.00  0.00    +0.198 C 
BRANCH  19  23
ATOM     20  S   UNK A   0     -32.241  28.244   1.802  0.00  0.00    -0.060 S 
ATOM     21  N   UNK A   0     -32.174  26.105   3.253  0.00  0.00    -0.383 NA
ATOM     22  N   UNK A   0     -30.924  26.000   1.250  0.00  0.00    -0.328 N 
ATOM     23  C   UNK A   0     -32.957  27.034   3.878  0.00  0.00    +0.148 C 
ATOM     24  C   UNK A   0     -33.124  28.244   3.272  0.00  0.00    +0.127 C 
ATOM     25  C   UNK A   0     -31.735  26.637   2.134  0.00  0.00    +0.204 C 
ATOM     26  H   UNK A   0     -30.632  26.459   0.430  0.00  0.00    +0.145 HD
ATOM     27  H   UNK A   0     -30.627  25.079   1.430  0.00  0.00    +0.145 HD
ENDBRANCH  19  23
BRANCH  18  28
ATOM     28  O   UNK A   0     -31.761  27.697   5.994  0.00  0.00    -0.373 OA
ATOM     29  C   UNK A   0     -31.804  28.964   6.633  0.00  0.00    +0.288 C 
ENDBRANCH  18  28
ENDBRANCH   3  19
TORSDOF 6
ENDMDL
MODEL 2
REMARK VINA RESULT:      -6.3      1.133      1.316
REMARK  Name = 5361848
REMARK  6 active torsions:
REMARK  status: ('A' for Active; 'I' for Inactive)
REMARK    1  A    between atoms: N_2  and  CA_9
REMARK    2  A    between atoms: C_3  and  C_19
REMARK    3  A    between atoms: CA_11  and  C_15
REMARK    4  A    between atoms: C_15  and  O_16
REMARK    5  A    between atoms: N_18  and  O_28
REMARK    6  A    between atoms: C_19  and  C_23
REMARK                            x       y       z     vdW  Elec       q    Type
REMARK                         _______ _______ _______ _____ _____    ______ ____
ROOT
ATOM      1  O   UNK A   0     -35.999  26.609   5.586  0.00  0.00    -0.268 OA
ATOM      2  N   MET A   1     -34.870  24.669   4.896  0.00  0.00    -0.291 N 
ATOM      3  C   UNK A   0     -34.996  26.003   5.244  0.00  0.00    +0.269 C 
ATOM      4  H   MET A   1     -33.982  24.329   4.642  0.00  0.00    +0.150 HD
ENDROOT
BRANCH   2   9
ATOM      5  SD  MET A   1     -36.440  24.763   2.250  0.00  0.00    -0.114 S 
ATOM      6  O   MET A   1     -34.953  21.410   5.150  0.00  0.00    -0.273 OA
ATOM      7  N   MET A   1     -36.189  22.360   3.386  0.00  0.00    -0.242 N 
ATOM      8  CE  MET A   1     -36.856  23.633   3.605  0.00  0.00    +0.155 C 
ATOM      9  CA  MET A   1     -36.004  23.745   4.888  0.00  0.00    +0.179 C 
ATOM     10  C   MET A   1     -35.598  22.268   4.596  0.00  0.00    +0.251 C 
ATOM     11  CA  MET A   1     -36.284  21.664   2.233  0.00  0.00    +0.127 C 
ATOM     12  CG  MET A   1     -37.143  23.678   0.953  0.00  0.00    +0.087 C 
ATOM     13  CB  MET A   1     -36.749  22.228   1.103  0.00  0.00    +0.007 C 
BRANCH  11  15
ATOM     14  OXT MET A   1     -34.663  19.948   1.952  0.00  0.00    -0.244 OA
ATOM     15  C   MET A   1     -35.814  20.279   2.173  0.00  0.00    +0.352 C 
BRANCH  15  16
ATOM     16  O   MET A   1     -36.847  19.440   2.397  0.00  0.00    -0.476 OA
ATOM     17  H   MET A   1     -36.837  18.575   2.036  0.00  0.00    +0.295 HD
ENDBRANCH  15  16
ENDBRANCH  11  15
ENDBRANCH   2   9
BRANCH   3  19
ATOM     18  N   UNK A   0     -32.945  26.866   6.231  0.00  0.00    -0.076 NA
ATOM     19  C   UNK A   0     -33.693  26.756   5.175  0.00  0.00    +0.198 C 
BRANCH  19  23
ATOM     20  S   UNK A   0     -32.182  27.783   1.692  0.00  0.00    -0.060 S 
ATOM     21  N   UNK A   0     -33.556  28.689   3.686  0.00  0.00    -0.383 NA
ATOM     22  N   UNK A   0     -33.159  30.244   1.951  0.00  0.00    -0.328 N 
ATOM     23  C   UNK A   0     -33.240  27.382   3.928  0.00  0.00    +0.148 C 
ATOM     24  C   UNK A   0     -32.512  26.713   2.990  0.00  0.00    +0.127 C 
ATOM     25  C   UNK A   0     -33.045  29.015   2.520  0.00  0.00    +0.204 C 
ATOM     26  H   UNK A   0     -32.750  30.420   1.072  0.00  0.00    +0.145 HD
ATOM     27  H   UNK A   0     -33.651  30.958   2.416  0.00  0.00    +0.145 HD
ENDBRANCH  19  23
BRANCH  18  28
ATOM     28  O   UNK A   0     -31.782  27.604   5.971  0.00  0.00    -0.373 OA
ATOM     29  C   UNK A   0     -31.785  28.744   6.816  0.00  0.00    +0.288 C 
ENDBRANCH  18  28
ENDBRANCH   3  19
TORSDOF 6
ENDMDL
MODEL 3
REMARK VINA RESULT:      -6.2      1.544      2.684
REMARK  Name = 5361848
REMARK  6 active torsions:
REMARK  status: ('A' for Active; 'I' for Inactive)
REMARK    1  A    between atoms: N_2  and  CA_9
REMARK    2  A    between atoms: C_3  and  C_19
REMARK    3  A    between atoms: CA_11  and  C_15
REMARK    4  A    between atoms: C_15  and  O_16
REMARK    5  A    between atoms: N_18  and  O_28
REMARK    6  A    between atoms: C_19  and  C_23
REMARK                            x       y       z     vdW  Elec       q    Type
REMARK                         _______ _______ _______ _____ _____    ______ ____
ROOT
ATOM      1  O   UNK A   0     -35.245  27.320   4.331  0.00  0.00    -0.268 OA
ATOM      2  N   MET A   1     -34.399  25.143   4.096  0.00  0.00    -0.291 N 
ATOM      3  C   UNK A   0     -34.334  26.523   4.181  0.00  0.00    +0.269 C 
ATOM      4  H   MET A   1     -33.564  24.638   3.973  0.00  0.00    +0.150 HD
ENDROOT
BRANCH   2   9
ATOM      5  SD  MET A   1     -35.722  24.770   1.341  0.00  0.00    -0.114 S 
ATOM      6  O   MET A   1     -35.013  22.096   5.111  0.00  0.00    -0.273 OA
ATOM      7  N   MET A   1     -35.942  22.723   3.040  0.00  0.00    -0.242 N 
ATOM      8  CE  MET A   1     -36.415  24.086   2.870  0.00  0.00    +0.155 C 
ATOM      9  CA  MET A   1     -35.659  24.406   4.179  0.00  0.00    +0.179 C 
ATOM     10  C   MET A   1     -35.469  22.863   4.297  0.00  0.00    +0.251 C 
ATOM     11  CA  MET A   1     -36.054  21.777   2.084  0.00  0.00    +0.127 C 
ATOM     12  CG  MET A   1     -36.483  23.496   0.269  0.00  0.00    +0.087 C 
ATOM     13  CB  MET A   1     -36.334  22.091   0.806  0.00  0.00    +0.007 C 
BRANCH  11  15
ATOM     14  OXT MET A   1     -34.699  19.870   2.510  0.00  0.00    -0.244 OA
ATOM     15  C   MET A   1     -35.805  20.371   2.411  0.00  0.00    +0.352 C 
BRANCH  15  16
ATOM     16  O   MET A   1     -36.980  19.731   2.583  0.00  0.00    -0.476 OA
ATOM     17  H   MET A   1     -37.100  19.158   3.315  0.00  0.00    +0.295 HD
ENDBRANCH  15  16
ENDBRANCH  11  15
ENDBRANCH   2   9
BRANCH   3  19
ATOM     18  N   UNK A   0     -32.076  26.479   3.272  0.00  0.00    -0.076 NA
ATOM     19  C   UNK A   0     -32.928  27.054   4.066  0.00  0.00    +0.198 C 
BRANCH  19  23
ATOM     20  S   UNK A   0     -31.823  30.538   5.519  0.00  0.00    -0.060 S 
ATOM     21  N   UNK A   0     -32.197  28.064   6.168  0.00  0.00    -0.383 NA
ATOM     22  N   UNK A   0     -31.465  29.464   7.926  0.00  0.00    -0.328 N 
ATOM     23  C   UNK A   0     -32.488  28.219   4.842  0.00  0.00    +0.148 C 
ATOM     24  C   UNK A   0     -32.354  29.460   4.296  0.00  0.00    +0.127 C 
ATOM     25  C   UNK A   0     -31.830  29.236   6.637  0.00  0.00    +0.204 C 
ATOM     26  H   UNK A   0     -31.202  30.369   8.210  0.00  0.00    +0.145 HD
ATOM     27  H   UNK A   0     -31.466  28.725   8.576  0.00  0.00    +0.145 HD
ENDBRANCH  19  23
BRANCH  18  28
ATOM     28  O   UNK A   0     -30.825  27.111   3.308  0.00  0.00    -0.373 OA
ATOM     29  C   UNK A   0     -30.236  26.996   2.021  0.00  0.00    +0.288 C 
ENDBRANCH  18  28
ENDBRANCH   3  19
TORSDOF 6
ENDMDL
MODEL 4
REMARK VINA RESULT:      -6.0      3.117      6.993
REMARK  Name = 5361848
REMARK  6 active torsions:
REMARK  status: ('A' for Active; 'I' for Inactive)
REMARK    1  A    between atoms: N_2  and  CA_9
REMARK    2  A    between atoms: C_3  and  C_19
REMARK    3  A    between atoms: CA_11  and  C_15
REMARK    4  A    between atoms: C_15  and  O_16
REMARK    5  A    between atoms: N_18  and  O_28
REMARK    6  A    between atoms: C_19  and  C_23
REMARK                            x       y       z     vdW  Elec       q    Type
REMARK                         _______ _______ _______ _____ _____    ______ ____
ROOT
ATOM      1  O   UNK A   0     -33.155  25.429   4.535  0.00  0.00    -0.268 OA
ATOM      2  N   MET A   1     -34.723  25.965   2.872  0.00  0.00    -0.291 N 
ATOM      3  C   UNK A   0     -34.234  25.295   3.981  0.00  0.00    +0.269 C 
ATOM      4  H   MET A   1     -35.624  25.740   2.544  0.00  0.00    +0.150 HD
ENDROOT
BRANCH   2   9
ATOM      5  SD  MET A   1     -36.352  27.317   0.638  0.00  0.00    -0.114 S 
ATOM      6  O   MET A   1     -33.393  28.745   3.965  0.00  0.00    -0.273 OA
ATOM      7  N   MET A   1     -34.695  28.898   2.010  0.00  0.00    -0.242 N 
ATOM      8  CE  MET A   1     -34.657  27.803   1.055  0.00  0.00    +0.155 C 
ATOM      9  CA  MET A   1     -33.956  26.991   2.168  0.00  0.00    +0.179 C 
ATOM     10  C   MET A   1     -33.882  28.347   2.935  0.00  0.00    +0.251 C 
ATOM     11  CA  MET A   1     -35.404  30.030   1.808  0.00  0.00    +0.127 C 
ATOM     12  CG  MET A   1     -36.803  28.965  -0.020  0.00  0.00    +0.087 C 
ATOM     13  CB  MET A   1     -36.358  30.108   0.862  0.00  0.00    +0.007 C 
BRANCH  11  15
ATOM     14  OXT MET A   1     -34.709  32.248   2.303  0.00  0.00    -0.244 OA
ATOM     15  C   MET A   1     -35.189  31.192   2.672  0.00  0.00    +0.352 C 
BRANCH  15  16
ATOM     16  O   MET A   1     -35.602  30.907   3.925  0.00  0.00    -0.476 OA
ATOM     17  H   MET A   1     -35.917  31.591   4.482  0.00  0.00    +0.295 HD
ENDBRANCH  15  16
ENDBRANCH  11  15
ENDBRANCH   2   9
BRANCH   3  19
ATOM     18  N   UNK A   0     -34.899  23.596   5.592  0.00  0.00    -0.076 NA
ATOM     19  C   UNK A   0     -35.204  24.282   4.532  0.00  0.00    +0.198 C 
BRANCH  19  23
ATOM     20  S   UNK A   0     -38.335  23.104   2.464  0.00  0.00    -0.060 S 
ATOM     21  N   UNK A   0     -37.565  24.832   4.225  0.00  0.00    -0.383 NA
ATOM     22  N   UNK A   0     -39.839  24.981   3.598  0.00  0.00    -0.328 N 
ATOM     23  C   UNK A   0     -36.501  24.042   3.892  0.00  0.00    +0.148 C 
ATOM     24  C   UNK A   0     -36.697  23.058   2.970  0.00  0.00    +0.127 C 
ATOM     25  C   UNK A   0     -38.601  24.425   3.526  0.00  0.00    +0.204 C 
ATOM     26  H   UNK A   0     -40.572  24.625   3.045  0.00  0.00    +0.145 HD
ATOM     27  H   UNK A   0     -40.004  25.739   4.204  0.00  0.00    +0.145 HD
ENDBRANCH  19  23
BRANCH  18  28
ATOM     28  O   UNK A   0     -35.920  22.703   5.946  0.00  0.00    -0.373 OA
ATOM     29  C   UNK A   0     -35.357  21.405   6.047  0.00  0.00    +0.288 C 
ENDBRANCH  18  28
ENDBRANCH   3  19
TORSDOF 6
ENDMDL
MODEL 5
REMARK VINA RESULT:      -5.9      2.492      7.370
REMARK  Name = 5361848
REMARK  6 active torsions:
REMARK  status: ('A' for Active; 'I' for Inactive)
REMARK    1  A    between atoms: N_2  and  CA_9
REMARK    2  A    between atoms: C_3  and  C_19
REMARK    3  A    between atoms: CA_11  and  C_15
REMARK    4  A    between atoms: C_15  and  O_16
REMARK    5  A    between atoms: N_18  and  O_28
REMARK    6  A    between atoms: C_19  and  C_23
REMARK                            x       y       z     vdW  Elec       q    Type
REMARK                         _______ _______ _______ _____ _____    ______ ____
ROOT
ATOM      1  O   UNK A   0     -34.037  24.515   1.861  0.00  0.00    -0.268 OA
ATOM      2  N   MET A   1     -33.812  26.095   3.582  0.00  0.00    -0.291 N 
ATOM      3  C   UNK A   0     -34.299  24.954   2.969  0.00  0.00    +0.269 C 
ATOM      4  H   MET A   1     -34.124  26.313   4.490  0.00  0.00    +0.150 HD
ENDROOT
BRANCH   2   9
ATOM      5  SD  MET A   1     -35.150  28.630   2.460  0.00  0.00    -0.114 S 
ATOM      6  O   MET A   1     -31.220  27.670   4.805  0.00  0.00    -0.273 OA
ATOM      7  N   MET A   1     -32.722  28.951   3.523  0.00  0.00    -0.242 N 
ATOM      8  CE  MET A   1     -33.363  28.336   2.373  0.00  0.00    +0.155 C 
ATOM      9  CA  MET A   1     -32.853  26.991   2.936  0.00  0.00    +0.179 C 
ATOM     10  C   MET A   1     -32.043  27.864   3.942  0.00  0.00    +0.251 C 
ATOM     11  CA  MET A   1     -32.905  30.245   3.868  0.00  0.00    +0.127 C 
ATOM     12  CG  MET A   1     -34.985  30.453   2.431  0.00  0.00    +0.087 C 
ATOM     13  CB  MET A   1     -33.915  30.976   3.361  0.00  0.00    +0.007 C 
BRANCH  11  15
ATOM     14  OXT MET A   1     -31.191  31.711   4.617  0.00  0.00    -0.244 OA
ATOM     15  C   MET A   1     -32.033  30.867   4.866  0.00  0.00    +0.352 C 
BRANCH  15  16
ATOM     16  O   MET A   1     -32.307  30.360   6.086  0.00  0.00    -0.476 OA
ATOM     17  H   MET A   1     -32.232  29.439   6.239  0.00  0.00    +0.295 HD
ENDBRANCH  15  16
ENDBRANCH  11  15
ENDBRANCH   2   9
BRANCH   3  19
ATOM     18  N   UNK A   0     -34.972  23.900   5.057  0.00  0.00    -0.076 NA
ATOM     19  C   UNK A   0     -35.275  24.194   3.829  0.00  0.00    +0.198 C 
BRANCH  19  23
ATOM     20  S   UNK A   0     -38.956  23.744   2.518  0.00  0.00    -0.060 S 
ATOM     21  N   UNK A   0     -36.760  22.456   2.965  0.00  0.00    -0.383 NA
ATOM     22  N   UNK A   0     -38.532  21.152   2.100  0.00  0.00    -0.328 N 
ATOM     23  C   UNK A   0     -36.577  23.766   3.307  0.00  0.00    +0.148 C 
ATOM     24  C   UNK A   0     -37.625  24.623   3.146  0.00  0.00    +0.127 C 
ATOM     25  C   UNK A   0     -37.993  22.323   2.529  0.00  0.00    +0.204 C 
ATOM     26  H   UNK A   0     -39.464  21.124   1.785  0.00  0.00    +0.145 HD
ATOM     27  H   UNK A   0     -37.989  20.331   2.102  0.00  0.00    +0.145 HD
ENDBRANCH  19  23
BRANCH  18  28
ATOM     28  O   UNK A   0     -36.000  23.188   5.691  0.00  0.00    -0.373 OA
ATOM     29  C   UNK A   0     -35.417  22.100   6.390  0.00  0.00    +0.288 C 
ENDBRANCH  18  28
ENDBRANCH   3  19
TORSDOF 6
ENDMDL
MODEL 6
REMARK VINA RESULT:      -5.9      3.611      7.805
REMARK  Name = 5361848
REMARK  6 active torsions:
REMARK  status: ('A' for Active; 'I' for Inactive)
REMARK    1  A    between atoms: N_2  and  CA_9
REMARK    2  A    between atoms: C_3  and  C_19
REMARK    3  A    between atoms: CA_11  and  C_15
REMARK    4  A    between atoms: C_15  and  O_16
REMARK    5  A    between atoms: N_18  and  O_28
REMARK    6  A    between atoms: C_19  and  C_23
REMARK                            x       y       z     vdW  Elec       q    Type
REMARK                         _______ _______ _______ _____ _____    ______ ____
ROOT
ATOM      1  O   UNK A   0     -37.612  20.603   0.166  0.00  0.00    -0.268 OA
ATOM      2  N   MET A   1     -37.735  22.645   1.318  0.00  0.00    -0.291 N 
ATOM      3  C   UNK A   0     -38.221  21.569   0.594  0.00  0.00    +0.269 C 
ATOM      4  H   MET A   1     -38.363  23.351   1.593  0.00  0.00    +0.150 HD
ENDROOT
BRANCH   2   9
ATOM      5  SD  MET A   1     -37.206  25.125   3.062  0.00  0.00    -0.114 S 
ATOM      6  O   MET A   1     -35.807  20.663   3.065  0.00  0.00    -0.273 OA
ATOM      7  N   MET A   1     -35.794  22.941   3.662  0.00  0.00    -0.242 N 
ATOM      8  CE  MET A   1     -35.911  23.940   2.613  0.00  0.00    +0.155 C 
ATOM      9  CA  MET A   1     -36.326  22.775   1.688  0.00  0.00    +0.179 C 
ATOM     10  C   MET A   1     -35.908  21.852   2.873  0.00  0.00    +0.251 C 
ATOM     11  CA  MET A   1     -35.626  23.253   4.965  0.00  0.00    +0.127 C 
ATOM     12  CG  MET A   1     -36.377  25.649   4.608  0.00  0.00    +0.087 C 
ATOM     13  CB  MET A   1     -35.852  24.495   5.430  0.00  0.00    +0.007 C 
BRANCH  11  15
ATOM     14  OXT MET A   1     -34.127  21.759   6.048  0.00  0.00    -0.244 OA
ATOM     15  C   MET A   1     -35.250  22.212   5.925  0.00  0.00    +0.352 C 
BRANCH  15  16
ATOM     16  O   MET A   1     -36.334  21.841   6.637  0.00  0.00    -0.476 OA
ATOM     17  H   MET A   1     -36.486  20.935   6.824  0.00  0.00    +0.295 HD
ENDBRANCH  15  16
ENDBRANCH  11  15
ENDBRANCH   2   9
BRANCH   3  19
ATOM     18  N   UNK A   0     -40.410  20.575   0.209  0.00  0.00    -0.076 NA
ATOM     19  C   UNK A   0     -39.702  21.658   0.332  0.00  0.00    +0.198 C 
BRANCH  19  23
ATOM     20  S   UNK A   0     -41.377  25.056  -0.723  0.00  0.00    -0.060 S 
ATOM     21  N   UNK A   0     -40.855  23.570   1.326  0.00  0.00    -0.383 NA
ATOM     22  N   UNK A   0     -41.994  25.583   1.810  0.00  0.00    -0.328 N 
ATOM     23  C   UNK A   0     -40.377  22.953   0.204  0.00  0.00    +0.148 C 
ATOM     24  C   UNK A   0     -40.553  23.578  -0.994  0.00  0.00    +0.127 C 
ATOM     25  C   UNK A   0     -41.411  24.702   0.957  0.00  0.00    +0.204 C 
ATOM     26  H   UNK A   0     -42.393  26.414   1.464  0.00  0.00    +0.145 HD
ATOM     27  H   UNK A   0     -42.020  25.390   2.775  0.00  0.00    +0.145 HD
ENDBRANCH  19  23
BRANCH  18  28
ATOM     28  O   UNK A   0     -41.760  20.861  -0.037  0.00  0.00    -0.373 OA
ATOM     29  C   UNK A   0     -42.165  20.122  -1.179  0.00  0.00    +0.288 C 
ENDBRANCH  18  28
ENDBRANCH   3  19
TORSDOF 6
ENDMDL
MODEL 7
REMARK VINA RESULT:      -5.8      2.268      2.717
REMARK  Name = 5361848
REMARK  6 active torsions:
REMARK  status: ('A' for Active; 'I' for Inactive)
REMARK    1  A    between atoms: N_2  and  CA_9
REMARK    2  A    between atoms: C_3  and  C_19
REMARK    3  A    between atoms: CA_11  and  C_15
REMARK    4  A    between atoms: C_15  and  O_16
REMARK    5  A    between atoms: N_18  and  O_28
REMARK    6  A    between atoms: C_19  and  C_23
REMARK                            x       y       z     vdW  Elec       q    Type
REMARK                         _______ _______ _______ _____ _____    ______ ____
ROOT
ATOM      1  O   UNK A   0     -33.235  26.246   6.389  0.00  0.00    -0.268 OA
ATOM      2  N   MET A   1     -34.954  26.479   4.807  0.00  0.00    -0.291 N 
ATOM      3  C   UNK A   0     -33.754  26.786   5.425  0.00  0.00    +0.269 C 
ATOM      4  H   MET A   1     -35.236  27.016   4.031  0.00  0.00    +0.150 HD
ENDROOT
BRANCH   2   9
ATOM      5  SD  MET A   1     -37.224  25.884   2.815  0.00  0.00    -0.114 S 
ATOM      6  O   MET A   1     -34.280  23.336   5.404  0.00  0.00    -0.273 OA
ATOM      7  N   MET A   1     -36.153  23.772   4.047  0.00  0.00    -0.242 N 
ATOM      8  CE  MET A   1     -36.974  24.935   4.339  0.00  0.00    +0.155 C 
ATOM      9  CA  MET A   1     -35.820  25.392   5.260  0.00  0.00    +0.179 C 
ATOM     10  C   MET A   1     -35.223  23.974   5.003  0.00  0.00    +0.251 C 
ATOM     11  CA  MET A   1     -36.441  22.892   3.063  0.00  0.00    +0.127 C 
ATOM     12  CG  MET A   1     -38.040  24.503   1.933  0.00  0.00    +0.087 C 
ATOM     13  CB  MET A   1     -37.328  23.181   2.093  0.00  0.00    +0.007 C 
BRANCH  11  15
ATOM     14  OXT MET A   1     -35.146  21.198   2.013  0.00  0.00    -0.244 OA
ATOM     15  C   MET A   1     -35.734  21.612   2.996  0.00  0.00    +0.352 C 
BRANCH  15  16
ATOM     16  O   MET A   1     -35.839  20.973   4.180  0.00  0.00    -0.476 OA
ATOM     17  H   MET A   1     -35.683  20.051   4.231  0.00  0.00    +0.295 HD
ENDBRANCH  15  16
ENDBRANCH  11  15
ENDBRANCH   2   9
BRANCH   3  19
ATOM     18  N   UNK A   0     -33.593  28.591   3.800  0.00  0.00    -0.076 NA
ATOM     19  C   UNK A   0     -33.040  27.946   4.782  0.00  0.00    +0.198 C 
BRANCH  19  23
ATOM     20  S   UNK A   0     -29.849  29.487   6.490  0.00  0.00    -0.060 S 
ATOM     21  N   UNK A   0     -30.603  27.873   4.617  0.00  0.00    -0.383 NA
ATOM     22  N   UNK A   0     -28.264  28.129   4.842  0.00  0.00    -0.328 N 
ATOM     23  C   UNK A   0     -31.712  28.371   5.239  0.00  0.00    +0.148 C 
ATOM     24  C   UNK A   0     -31.532  29.249   6.265  0.00  0.00    +0.127 C 
ATOM     25  C   UNK A   0     -29.547  28.397   5.199  0.00  0.00    +0.204 C 
ATOM     26  H   UNK A   0     -27.519  28.557   5.322  0.00  0.00    +0.145 HD
ATOM     27  H   UNK A   0     -28.078  27.505   4.103  0.00  0.00    +0.145 HD
ENDBRANCH  19  23
BRANCH  18  28
ATOM     28  O   UNK A   0     -32.775  29.629   3.332  0.00  0.00    -0.373 OA
ATOM     29  C   UNK A   0     -33.546  30.820   3.306  0.00  0.00    +0.288 C 
ENDBRANCH  18  28
ENDBRANCH   3  19
TORSDOF 6
ENDMDL
MODEL 8
REMARK VINA RESULT:      -5.7      3.629      7.135
REMARK  Name = 5361848
REMARK  6 active torsions:
REMARK  status: ('A' for Active; 'I' for Inactive)
REMARK    1  A    between atoms: N_2  and  CA_9
REMARK    2  A    between atoms: C_3  and  C_19
REMARK    3  A    between atoms: CA_11  and  C_15
REMARK    4  A    between atoms: C_15  and  O_16
REMARK    5  A    between atoms: N_18  and  O_28
REMARK    6  A    between atoms: C_19  and  C_23
REMARK                            x       y       z     vdW  Elec       q    Type
REMARK                         _______ _______ _______ _____ _____    ______ ____
ROOT
ATOM      1  O   UNK A   0     -35.049  20.430   3.818  0.00  0.00    -0.268 OA
ATOM      2  N   MET A   1     -36.228  21.931   2.451  0.00  0.00    -0.291 N 
ATOM      3  C   UNK A   0     -35.482  20.802   2.739  0.00  0.00    +0.269 C 
ATOM      4  H   MET A   1     -36.504  22.091   1.520  0.00  0.00    +0.150 HD
ENDROOT
BRANCH   2   9
ATOM      5  SD  MET A   1     -34.592  24.534   2.296  0.00  0.00    -0.114 S 
ATOM      6  O   MET A   1     -39.087  23.434   2.962  0.00  0.00    -0.273 OA
ATOM      7  N   MET A   1     -37.170  24.800   2.933  0.00  0.00    -0.242 N 
ATOM      8  CE  MET A   1     -35.932  24.281   3.489  0.00  0.00    +0.155 C 
ATOM      9  CA  MET A   1     -36.623  22.899   3.475  0.00  0.00    +0.179 C 
ATOM     10  C   MET A   1     -37.917  23.691   3.114  0.00  0.00    +0.251 C 
ATOM     11  CA  MET A   1     -37.293  26.053   2.444  0.00  0.00    +0.127 C 
ATOM     12  CG  MET A   1     -34.781  26.355   2.270  0.00  0.00    +0.087 C 
ATOM     13  CB  MET A   1     -36.218  26.809   2.158  0.00  0.00    +0.007 C 
BRANCH  11  15
ATOM     14  OXT MET A   1     -38.961  27.039   1.067  0.00  0.00    -0.244 OA
ATOM     15  C   MET A   1     -38.620  26.597   2.149  0.00  0.00    +0.352 C 
BRANCH  15  16
ATOM     16  O   MET A   1     -39.392  26.533   3.254  0.00  0.00    -0.476 OA
ATOM     17  H   MET A   1     -39.090  26.069   4.011  0.00  0.00    +0.295 HD
ENDBRANCH  15  16
ENDBRANCH  11  15
ENDBRANCH   2   9
BRANCH   3  19
ATOM     18  N   UNK A   0     -36.175  19.472   0.822  0.00  0.00    -0.076 NA
ATOM     19  C   UNK A   0     -35.197  19.959   1.523  0.00  0.00    +0.198 C 
BRANCH  19  23
ATOM     20  S   UNK A   0     -31.558  19.794   0.039  0.00  0.00    -0.060 S 
ATOM     21  N   UNK A   0     -33.222  18.518   1.550  0.00  0.00    -0.383 NA
ATOM     22  N   UNK A   0     -31.117  17.480   1.273  0.00  0.00    -0.328 N 
ATOM     23  C   UNK A   0     -33.822  19.663   1.106  0.00  0.00    +0.148 C 
ATOM     24  C   UNK A   0     -33.107  20.486   0.288  0.00  0.00    +0.127 C 
ATOM     25  C   UNK A   0     -32.009  18.479   1.046  0.00  0.00    +0.204 C 
ATOM     26  H   UNK A   0     -30.223  17.515   0.863  0.00  0.00    +0.145 HD
ATOM     27  H   UNK A   0     -31.365  16.721   1.850  0.00  0.00    +0.145 HD
ENDBRANCH  19  23
BRANCH  18  28
ATOM     28  O   UNK A   0     -35.712  18.712  -0.261  0.00  0.00    -0.373 OA
ATOM     29  C   UNK A   0     -36.633  17.656  -0.484  0.00  0.00    +0.288 C 
ENDBRANCH  18  28
ENDBRANCH   3  19
TORSDOF 6
ENDMDL
MODEL 9
REMARK VINA RESULT:      -5.7      4.054      6.386
REMARK  Name = 5361848
REMARK  6 active torsions:
REMARK  status: ('A' for Active; 'I' for Inactive)
REMARK    1  A    between atoms: N_2  and  CA_9
REMARK    2  A    between atoms: C_3  and  C_19
REMARK    3  A    between atoms: CA_11  and  C_15
REMARK    4  A    between atoms: C_15  and  O_16
REMARK    5  A    between atoms: N_18  and  O_28
REMARK    6  A    between atoms: C_19  and  C_23
REMARK                            x       y       z     vdW  Elec       q    Type
REMARK                         _______ _______ _______ _____ _____    ______ ____
ROOT
ATOM      1  O   UNK A   0     -34.731  22.441   0.914  0.00  0.00    -0.268 OA
ATOM      2  N   MET A   1     -35.764  20.363   1.271  0.00  0.00    -0.291 N 
ATOM      3  C   UNK A   0     -35.341  21.639   1.602  0.00  0.00    +0.269 C 
ATOM      4  H   MET A   1     -36.250  19.837   1.946  0.00  0.00    +0.150 HD
ENDROOT
BRANCH   2   9
ATOM      5  SD  MET A   1     -33.030  18.955   1.126  0.00  0.00    -0.114 S 
ATOM      6  O   MET A   1     -37.373  18.007  -0.325  0.00  0.00    -0.273 OA
ATOM      7  N   MET A   1     -35.034  17.776  -0.185  0.00  0.00    -0.242 N 
ATOM      8  CE  MET A   1     -34.207  18.969  -0.252  0.00  0.00    +0.155 C 
ATOM      9  CA  MET A   1     -35.515  19.765  -0.039  0.00  0.00    +0.179 C 
ATOM     10  C   MET A   1     -36.232  18.394  -0.242  0.00  0.00    +0.251 C 
ATOM     11  CA  MET A   1     -34.525  16.528  -0.098  0.00  0.00    +0.127 C 
ATOM     12  CG  MET A   1     -32.246  17.383   0.613  0.00  0.00    +0.087 C 
ATOM     13  CB  MET A   1     -33.239  16.310   0.234  0.00  0.00    +0.007 C 
BRANCH  11  15
ATOM     14  OXT MET A   1     -35.342  14.628  -1.271  0.00  0.00    -0.244 OA
ATOM     15  C   MET A   1     -35.393  15.367  -0.304  0.00  0.00    +0.352 C 
BRANCH  15  16
ATOM     16  O   MET A   1     -36.247  15.251   0.734  0.00  0.00    -0.476 OA
ATOM     17  H   MET A   1     -36.649  14.425   0.922  0.00  0.00    +0.295 HD
ENDBRANCH  15  16
ENDBRANCH  11  15
ENDBRANCH   2   9
BRANCH   3  19
ATOM     18  N   UNK A   0     -35.464  21.233   3.999  0.00  0.00    -0.076 NA
ATOM     19  C   UNK A   0     -35.710  22.036   3.008  0.00  0.00    +0.198 C 
BRANCH  19  23
ATOM     20  S   UNK A   0     -36.760  25.745   3.789  0.00  0.00    -0.060 S 
ATOM     21  N   UNK A   0     -37.718  23.381   3.370  0.00  0.00    -0.383 NA
ATOM     22  N   UNK A   0     -39.330  25.061   3.778  0.00  0.00    -0.328 N 
ATOM     23  C   UNK A   0     -36.356  23.322   3.292  0.00  0.00    +0.148 C 
ATOM     24  C   UNK A   0     -35.651  24.473   3.485  0.00  0.00    +0.127 C 
ATOM     25  C   UNK A   0     -38.052  24.625   3.631  0.00  0.00    +0.204 C 
ATOM     26  H   UNK A   0     -39.508  26.010   3.973  0.00  0.00    +0.145 HD
ATOM     27  H   UNK A   0     -40.079  24.428   3.689  0.00  0.00    +0.145 HD
ENDBRANCH  19  23
BRANCH  18  28
ATOM     28  O   UNK A   0     -35.884  21.773   5.223  0.00  0.00    -0.373 OA
ATOM     29  C   UNK A   0     -34.776  21.771   6.110  0.00  0.00    +0.288 C 
ENDBRANCH  18  28
ENDBRANCH   3  19
TORSDOF 6
ENDMDL
