MODEL 1
REMARK VINA RESULT:      -6.5      0.000      0.000
REMARK  Name = 5276
REMARK  9 active torsions:
REMARK  status: ('A' for Active; 'I' for Inactive)
REMARK    1  A    between atoms: C_1  and  C_21
REMARK    2  A    between atoms: C_2  and  O_7
REMARK    3  A    between atoms: C_3  and  C_9
REMARK    4  A    between atoms: C_5  and  O_18
REMARK    5  A    between atoms: C_10  and  C_13
REMARK    6  A    between atoms: C_10  and  C_17
REMARK    7  A    between atoms: O_18  and  C_19
REMARK    8  A    between atoms: C_21  and  S_22
REMARK    9  A    between atoms: S_22  and  C_23
REMARK                            x       y       z     vdW  Elec       q    Type
REMARK                         _______ _______ _______ _____ _____    ______ ____
ROOT
ATOM      1  C   UNL     1     -35.842  22.579   3.414  0.00  0.00    +0.026 C 
ATOM      2  C   UNL     1     -37.174  22.967   3.270  0.00  0.00    +0.164 C 
ATOM      3  C   UNL     1     -35.392  24.587   4.679  0.00  0.00    +0.004 C 
ATOM      4  C   UNL     1     -34.952  23.388   4.118  0.00  0.00    -0.000 C 
ATOM      5  C   UNL     1     -37.616  24.166   3.831  0.00  0.00    +0.172 C 
ATOM      6  C   UNL     1     -36.724  24.976   4.536  0.00  0.00    +0.040 C 
ENDROOT
BRANCH   2   7
ATOM      7  O   UNL     1     -38.049  22.179   2.583  0.00  0.00    -0.503 OA
ATOM      8  H   UNL     1     -38.023  22.158   1.646  0.00  0.00    +0.292 HD
ENDBRANCH   2   7
BRANCH   3   9
ATOM      9  C   UNL     1     -34.463  25.431   5.413  0.00  0.00    +0.015 C 
ATOM     10  C   UNL     1     -33.822  26.525   4.930  0.00  0.00    +0.121 C 
BRANCH  10  13
ATOM     11  O   UNL     1     -32.592  26.808   6.971  0.00  0.00    -0.270 OA
ATOM     12  N   UNL     1     -32.422  28.455   5.398  0.00  0.00    -0.325 N 
ATOM     13  C   UNL     1     -32.899  27.253   5.867  0.00  0.00    +0.252 C 
ATOM     14  H   UNL     1     -31.812  28.993   5.952  0.00  0.00    +0.145 HD
ATOM     15  H   UNL     1     -32.693  28.778   4.508  0.00  0.00    +0.145 HD
ENDBRANCH  10  13
BRANCH  10  17
ATOM     16  N   UNL     1     -34.146  27.305   2.483  0.00  0.00    -0.191 NA
ATOM     17  C   UNL     1     -34.000  26.957   3.580  0.00  0.00    +0.105 C 
ENDBRANCH  10  17
ENDBRANCH   3   9
BRANCH   5  18
ATOM     18  O   UNL     1     -38.914  24.557   3.699  0.00  0.00    -0.472 OA
BRANCH  18  19
ATOM     19  C   UNL     1     -39.175  25.657   2.830  0.00  0.00    +0.206 C 
ATOM     20  C   UNL     1     -40.621  26.076   2.986  0.00  0.00    +0.051 C 
ENDBRANCH  18  19
ENDBRANCH   5  18
BRANCH   1  21
ATOM     21  C   UNL     1     -35.353  21.299   2.821  0.00  0.00    +0.092 C 
BRANCH  21  22
ATOM     22  S   UNL     1     -34.957  21.459   1.053  0.00  0.00    -0.109 S 
BRANCH  22  23
ATOM     23  C   UNL     1     -33.593  20.312   0.894  0.00  0.00    +0.026 C 
ATOM     24  C   UNL     1     -33.654  19.073   1.524  0.00  0.00    +0.006 C 
ATOM     25  C   UNL     1     -32.478  20.667   0.139  0.00  0.00    +0.006 C 
ATOM     26  C   UNL     1     -32.590  18.179   1.398  0.00  0.00    +0.001 C 
ATOM     27  C   UNL     1     -31.414  19.772   0.014  0.00  0.00    +0.001 C 
ATOM     28  C   UNL     1     -31.471  18.529   0.644  0.00  0.00    +0.000 C 
ENDBRANCH  22  23
ENDBRANCH  21  22
ENDBRANCH   1  21
TORSDOF 9
ENDMDL
MODEL 2
REMARK VINA RESULT:      -6.5      2.460      3.252
REMARK  Name = 5276
REMARK  9 active torsions:
REMARK  status: ('A' for Active; 'I' for Inactive)
REMARK    1  A    between atoms: C_1  and  C_21
REMARK    2  A    between atoms: C_2  and  O_7
REMARK    3  A    between atoms: C_3  and  C_9
REMARK    4  A    between atoms: C_5  and  O_18
REMARK    5  A    between atoms: C_10  and  C_13
REMARK    6  A    between atoms: C_10  and  C_17
REMARK    7  A    between atoms: O_18  and  C_19
REMARK    8  A    between atoms: C_21  and  S_22
REMARK    9  A    between atoms: S_22  and  C_23
REMARK                            x       y       z     vdW  Elec       q    Type
REMARK                         _______ _______ _______ _____ _____    ______ ____
ROOT
ATOM      1  C   UNL     1     -35.737  20.964   1.867  0.00  0.00    +0.026 C 
ATOM      2  C   UNL     1     -37.071  20.665   1.587  0.00  0.00    +0.164 C 
ATOM      3  C   UNL     1     -36.423  23.006   2.958  0.00  0.00    +0.004 C 
ATOM      4  C   UNL     1     -35.414  22.134   2.552  0.00  0.00    -0.000 C 
ATOM      5  C   UNL     1     -38.081  21.537   1.994  0.00  0.00    +0.172 C 
ATOM      6  C   UNL     1     -37.757  22.708   2.679  0.00  0.00    +0.040 C 
ENDROOT
BRANCH   2   7
ATOM      7  O   UNL     1     -37.391  19.521   0.918  0.00  0.00    -0.503 OA
ATOM      8  H   UNL     1     -37.449  18.708   1.381  0.00  0.00    +0.292 HD
ENDBRANCH   2   7
BRANCH   3   9
ATOM      9  C   UNL     1     -36.086  24.228   3.672  0.00  0.00    +0.015 C 
ATOM     10  C   UNL     1     -35.736  24.320   4.980  0.00  0.00    +0.121 C 
BRANCH  10  13
ATOM     11  O   UNL     1     -34.375  25.955   6.092  0.00  0.00    -0.270 OA
ATOM     12  N   UNL     1     -36.416  26.628   5.315  0.00  0.00    -0.325 N 
ATOM     13  C   UNL     1     -35.429  25.691   5.516  0.00  0.00    +0.252 C 
ATOM     14  H   UNL     1     -36.292  27.550   5.636  0.00  0.00    +0.145 HD
ATOM     15  H   UNL     1     -37.246  26.376   4.850  0.00  0.00    +0.145 HD
ENDBRANCH  10  13
BRANCH  10  17
ATOM     16  N   UNL     1     -35.640  22.228   6.501  0.00  0.00    -0.191 NA
ATOM     17  C   UNL     1     -35.682  23.165   5.819  0.00  0.00    +0.105 C 
ENDBRANCH  10  17
ENDBRANCH   3   9
BRANCH   5  18
ATOM     18  O   UNL     1     -39.387  21.256   1.728  0.00  0.00    -0.472 OA
BRANCH  18  19
ATOM     19  C   UNL     1     -40.007  21.989   0.674  0.00  0.00    +0.206 C 
ATOM     20  C   UNL     1     -40.333  21.043  -0.460  0.00  0.00    +0.051 C 
ENDBRANCH  18  19
ENDBRANCH   5  18
BRANCH   1  21
ATOM     21  C   UNL     1     -34.643  20.042   1.440  0.00  0.00    +0.092 C 
BRANCH  21  22
ATOM     22  S   UNL     1     -33.614  20.749   0.119  0.00  0.00    -0.109 S 
BRANCH  22  23
ATOM     23  C   UNL     1     -32.135  19.753   0.253  0.00  0.00    +0.026 C 
ATOM     24  C   UNL     1     -32.161  18.573   0.991  0.00  0.00    +0.006 C 
ATOM     25  C   UNL     1     -30.966  20.163  -0.383  0.00  0.00    +0.006 C 
ATOM     26  C   UNL     1     -31.007  17.796   1.095  0.00  0.00    +0.001 C 
ATOM     27  C   UNL     1     -29.812  19.384  -0.278  0.00  0.00    +0.001 C 
ATOM     28  C   UNL     1     -29.833  18.201   0.460  0.00  0.00    +0.000 C 
ENDBRANCH  22  23
ENDBRANCH  21  22
ENDBRANCH   1  21
TORSDOF 9
ENDMDL
MODEL 3
REMARK VINA RESULT:      -6.4      2.161      2.796
REMARK  Name = 5276
REMARK  9 active torsions:
REMARK  status: ('A' for Active; 'I' for Inactive)
REMARK    1  A    between atoms: C_1  and  C_21
REMARK    2  A    between atoms: C_2  and  O_7
REMARK    3  A    between atoms: C_3  and  C_9
REMARK    4  A    between atoms: C_5  and  O_18
REMARK    5  A    between atoms: C_10  and  C_13
REMARK    6  A    between atoms: C_10  and  C_17
REMARK    7  A    between atoms: O_18  and  C_19
REMARK    8  A    between atoms: C_21  and  S_22
REMARK    9  A    between atoms: S_22  and  C_23
REMARK                            x       y       z     vdW  Elec       q    Type
REMARK                         _______ _______ _______ _____ _____    ______ ____
ROOT
ATOM      1  C   UNL     1     -37.018  21.184   1.760  0.00  0.00    +0.026 C 
ATOM      2  C   UNL     1     -38.379  21.490   1.717  0.00  0.00    +0.164 C 
ATOM      3  C   UNL     1     -36.567  23.332   2.767  0.00  0.00    +0.004 C 
ATOM      4  C   UNL     1     -36.113  22.104   2.285  0.00  0.00    -0.000 C 
ATOM      5  C   UNL     1     -38.834  22.718   2.200  0.00  0.00    +0.172 C 
ATOM      6  C   UNL     1     -37.927  23.638   2.725  0.00  0.00    +0.040 C 
ENDROOT
BRANCH   2   7
ATOM      7  O   UNL     1     -39.268  20.592   1.205  0.00  0.00    -0.503 OA
ATOM      8  H   UNL     1     -38.959  19.796   0.817  0.00  0.00    +0.292 HD
ENDBRANCH   2   7
BRANCH   3   9
ATOM      9  C   UNL     1     -35.622  24.293   3.315  0.00  0.00    +0.015 C 
ATOM     10  C   UNL     1     -35.096  24.275   4.566  0.00  0.00    +0.121 C 
BRANCH  10  13
ATOM     11  O   UNL     1     -33.072  25.544   4.328  0.00  0.00    -0.270 OA
ATOM     12  N   UNL     1     -34.530  26.176   5.970  0.00  0.00    -0.325 N 
ATOM     13  C   UNL     1     -34.134  25.374   4.924  0.00  0.00    +0.252 C 
ATOM     14  H   UNL     1     -33.956  26.918   6.266  0.00  0.00    +0.145 HD
ATOM     15  H   UNL     1     -35.388  26.006   6.422  0.00  0.00    +0.145 HD
ENDBRANCH  10  13
BRANCH  10  17
ATOM     16  N   UNL     1     -35.752  22.447   6.277  0.00  0.00    -0.191 NA
ATOM     17  C   UNL     1     -35.457  23.267   5.511  0.00  0.00    +0.105 C 
ENDBRANCH  10  17
ENDBRANCH   3   9
BRANCH   5  18
ATOM     18  O   UNL     1     -40.159  23.028   2.164  0.00  0.00    -0.472 OA
BRANCH  18  19
ATOM     19  C   UNL     1     -40.592  23.910   1.130  0.00  0.00    +0.206 C 
ATOM     20  C   UNL     1     -41.167  25.161   1.758  0.00  0.00    +0.051 C 
ENDBRANCH  18  19
ENDBRANCH   5  18
BRANCH   1  21
ATOM     21  C   UNL     1     -36.515  19.875   1.248  0.00  0.00    +0.092 C 
BRANCH  21  22
ATOM     22  S   UNL     1     -35.662  20.035  -0.350  0.00  0.00    -0.109 S 
BRANCH  22  23
ATOM     23  C   UNL     1     -33.993  19.570   0.095  0.00  0.00    +0.026 C 
ATOM     24  C   UNL     1     -32.922  20.359  -0.317  0.00  0.00    +0.006 C 
ATOM     25  C   UNL     1     -33.774  18.421   0.851  0.00  0.00    +0.006 C 
ATOM     26  C   UNL     1     -31.621  19.996   0.031  0.00  0.00    +0.001 C 
ATOM     27  C   UNL     1     -32.472  18.059   1.197  0.00  0.00    +0.001 C 
ATOM     28  C   UNL     1     -31.396  18.846   0.788  0.00  0.00    +0.000 C 
ENDBRANCH  22  23
ENDBRANCH  21  22
ENDBRANCH   1  21
TORSDOF 9
ENDMDL
MODEL 4
REMARK VINA RESULT:      -6.0      2.628      6.890
REMARK  Name = 5276
REMARK  9 active torsions:
REMARK  status: ('A' for Active; 'I' for Inactive)
REMARK    1  A    between atoms: C_1  and  C_21
REMARK    2  A    between atoms: C_2  and  O_7
REMARK    3  A    between atoms: C_3  and  C_9
REMARK    4  A    between atoms: C_5  and  O_18
REMARK    5  A    between atoms: C_10  and  C_13
REMARK    6  A    between atoms: C_10  and  C_17
REMARK    7  A    between atoms: O_18  and  C_19
REMARK    8  A    between atoms: C_21  and  S_22
REMARK    9  A    between atoms: S_22  and  C_23
REMARK                            x       y       z     vdW  Elec       q    Type
REMARK                         _______ _______ _______ _____ _____    ______ ____
ROOT
ATOM      1  C   UNL     1     -38.009  21.802   1.879  0.00  0.00    +0.026 C 
ATOM      2  C   UNL     1     -37.275  20.699   1.443  0.00  0.00    +0.164 C 
ATOM      3  C   UNL     1     -35.979  22.839   2.677  0.00  0.00    +0.004 C 
ATOM      4  C   UNL     1     -37.362  22.872   2.495  0.00  0.00    -0.000 C 
ATOM      5  C   UNL     1     -35.891  20.666   1.624  0.00  0.00    +0.172 C 
ATOM      6  C   UNL     1     -35.244  21.737   2.241  0.00  0.00    +0.040 C 
ENDROOT
BRANCH   2   7
ATOM      7  O   UNL     1     -37.904  19.651   0.839  0.00  0.00    -0.503 OA
ATOM      8  H   UNL     1     -38.648  19.253   1.247  0.00  0.00    +0.292 HD
ENDBRANCH   2   7
BRANCH   3   9
ATOM      9  C   UNL     1     -35.304  23.955   3.321  0.00  0.00    +0.015 C 
ATOM     10  C   UNL     1     -35.050  24.079   4.648  0.00  0.00    +0.121 C 
BRANCH  10  13
ATOM     11  O   UNL     1     -33.180  25.578   4.774  0.00  0.00    -0.270 OA
ATOM     12  N   UNL     1     -35.078  26.159   5.905  0.00  0.00    -0.325 N 
ATOM     13  C   UNL     1     -34.338  25.324   5.099  0.00  0.00    +0.252 C 
ATOM     14  H   UNL     1     -34.684  26.995   6.243  0.00  0.00    +0.145 HD
ATOM     15  H   UNL     1     -36.003  25.918   6.144  0.00  0.00    +0.145 HD
ENDBRANCH  10  13
BRANCH  10  17
ATOM     16  N   UNL     1     -35.799  22.270   6.341  0.00  0.00    -0.191 NA
ATOM     17  C   UNL     1     -35.463  23.080   5.582  0.00  0.00    +0.105 C 
ENDBRANCH  10  17
ENDBRANCH   3   9
BRANCH   5  18
ATOM     18  O   UNL     1     -35.163  19.595   1.202  0.00  0.00    -0.472 OA
BRANCH  18  19
ATOM     19  C   UNL     1     -33.750  19.767   1.114  0.00  0.00    +0.206 C 
ATOM     20  C   UNL     1     -33.073  18.447   1.415  0.00  0.00    +0.051 C 
ENDBRANCH  18  19
ENDBRANCH   5  18
BRANCH   1  21
ATOM     21  C   UNL     1     -39.489  21.854   1.692  0.00  0.00    +0.092 C 
BRANCH  21  22
ATOM     22  S   UNL     1     -39.978  22.917   0.300  0.00  0.00    -0.109 S 
BRANCH  22  23
ATOM     23  C   UNL     1     -40.836  24.236   1.150  0.00  0.00    +0.026 C 
ATOM     24  C   UNL     1     -42.116  24.603   0.743  0.00  0.00    +0.006 C 
ATOM     25  C   UNL     1     -40.219  24.890   2.213  0.00  0.00    +0.006 C 
ATOM     26  C   UNL     1     -42.785  25.631   1.407  0.00  0.00    +0.001 C 
ATOM     27  C   UNL     1     -40.889  25.919   2.876  0.00  0.00    +0.001 C 
ATOM     28  C   UNL     1     -42.172  26.289   2.473  0.00  0.00    +0.000 C 
ENDBRANCH  22  23
ENDBRANCH  21  22
ENDBRANCH   1  21
TORSDOF 9
ENDMDL
MODEL 5
REMARK VINA RESULT:      -5.9      2.979      7.014
REMARK  Name = 5276
REMARK  9 active torsions:
REMARK  status: ('A' for Active; 'I' for Inactive)
REMARK    1  A    between atoms: C_1  and  C_21
REMARK    2  A    between atoms: C_2  and  O_7
REMARK    3  A    between atoms: C_3  and  C_9
REMARK    4  A    between atoms: C_5  and  O_18
REMARK    5  A    between atoms: C_10  and  C_13
REMARK    6  A    between atoms: C_10  and  C_17
REMARK    7  A    between atoms: O_18  and  C_19
REMARK    8  A    between atoms: C_21  and  S_22
REMARK    9  A    between atoms: S_22  and  C_23
REMARK                            x       y       z     vdW  Elec       q    Type
REMARK                         _______ _______ _______ _____ _____    ______ ____
ROOT
ATOM      1  C   UNL     1     -35.266  24.712   4.351  0.00  0.00    +0.026 C 
ATOM      2  C   UNL     1     -36.591  25.141   4.262  0.00  0.00    +0.164 C 
ATOM      3  C   UNL     1     -35.878  22.610   3.332  0.00  0.00    +0.004 C 
ATOM      4  C   UNL     1     -34.910  23.447   3.886  0.00  0.00    -0.000 C 
ATOM      5  C   UNL     1     -37.560  24.304   3.708  0.00  0.00    +0.172 C 
ATOM      6  C   UNL     1     -37.203  23.038   3.243  0.00  0.00    +0.040 C 
ENDROOT
BRANCH   2   7
ATOM      7  O   UNL     1     -36.943  26.378   4.716  0.00  0.00    -0.503 OA
ATOM      8  H   UNL     1     -37.376  26.468   5.542  0.00  0.00    +0.292 HD
ENDBRANCH   2   7
BRANCH   3   9
ATOM      9  C   UNL     1     -35.507  21.290   2.847  0.00  0.00    +0.015 C 
ATOM     10  C   UNL     1     -34.865  21.015   1.683  0.00  0.00    +0.121 C 
BRANCH  10  13
ATOM     11  O   UNL     1     -33.520  19.027   1.677  0.00  0.00    -0.270 OA
ATOM     12  N   UNL     1     -35.598  18.901   0.736  0.00  0.00    -0.325 N 
ATOM     13  C   UNL     1     -34.581  19.571   1.378  0.00  0.00    +0.252 C 
ATOM     14  H   UNL     1     -35.491  17.952   0.500  0.00  0.00    +0.145 HD
ATOM     15  H   UNL     1     -36.433  19.373   0.512  0.00  0.00    +0.145 HD
ENDBRANCH  10  13
BRANCH  10  17
ATOM     16  N   UNL     1     -34.194  22.898   0.039  0.00  0.00    -0.191 NA
ATOM     17  C   UNL     1     -34.494  22.053   0.775  0.00  0.00    +0.105 C 
ENDBRANCH  10  17
ENDBRANCH   3   9
BRANCH   5  18
ATOM     18  O   UNL     1     -38.856  24.711   3.614  0.00  0.00    -0.472 OA
BRANCH  18  19
ATOM     19  C   UNL     1     -39.291  25.204   2.349  0.00  0.00    +0.206 C 
ATOM     20  C   UNL     1     -40.438  24.349   1.855  0.00  0.00    +0.051 C 
ENDBRANCH  18  19
ENDBRANCH   5  18
BRANCH   1  21
ATOM     21  C   UNL     1     -34.217  25.595   4.941  0.00  0.00    +0.092 C 
BRANCH  21  22
ATOM     22  S   UNL     1     -33.440  26.674   3.702  0.00  0.00    -0.109 S 
BRANCH  22  23
ATOM     23  C   UNL     1     -32.749  27.959   4.737  0.00  0.00    +0.026 C 
ATOM     24  C   UNL     1     -32.463  27.691   6.073  0.00  0.00    +0.006 C 
ATOM     25  C   UNL     1     -32.502  29.220   4.201  0.00  0.00    +0.006 C 
ATOM     26  C   UNL     1     -31.924  28.693   6.880  0.00  0.00    +0.001 C 
ATOM     27  C   UNL     1     -31.963  30.222   5.009  0.00  0.00    +0.001 C 
ATOM     28  C   UNL     1     -31.674  29.959   6.348  0.00  0.00    +0.000 C 
ENDBRANCH  22  23
ENDBRANCH  21  22
ENDBRANCH   1  21
TORSDOF 9
ENDMDL
MODEL 6
REMARK VINA RESULT:      -5.9      4.535      6.628
REMARK  Name = 5276
REMARK  9 active torsions:
REMARK  status: ('A' for Active; 'I' for Inactive)
REMARK    1  A    between atoms: C_1  and  C_21
REMARK    2  A    between atoms: C_2  and  O_7
REMARK    3  A    between atoms: C_3  and  C_9
REMARK    4  A    between atoms: C_5  and  O_18
REMARK    5  A    between atoms: C_10  and  C_13
REMARK    6  A    between atoms: C_10  and  C_17
REMARK    7  A    between atoms: O_18  and  C_19
REMARK    8  A    between atoms: C_21  and  S_22
REMARK    9  A    between atoms: S_22  and  C_23
REMARK                            x       y       z     vdW  Elec       q    Type
REMARK                         _______ _______ _______ _____ _____    ______ ____
ROOT
ATOM      1  C   UNL     1     -37.362  20.696   1.097  0.00  0.00    +0.026 C 
ATOM      2  C   UNL     1     -37.458  21.609   2.149  0.00  0.00    +0.164 C 
ATOM      3  C   UNL     1     -35.129  20.112   1.807  0.00  0.00    +0.004 C 
ATOM      4  C   UNL     1     -36.199  19.948   0.927  0.00  0.00    -0.000 C 
ATOM      5  C   UNL     1     -36.388  21.773   3.030  0.00  0.00    +0.172 C 
ATOM      6  C   UNL     1     -35.224  21.024   2.858  0.00  0.00    +0.040 C 
ENDROOT
BRANCH   2   7
ATOM      7  O   UNL     1     -38.595  22.341   2.320  0.00  0.00    -0.503 OA
ATOM      8  H   UNL     1     -39.434  21.933   2.227  0.00  0.00    +0.292 HD
ENDBRANCH   2   7
BRANCH   3   9
ATOM      9  C   UNL     1     -33.914  19.332   1.629  0.00  0.00    +0.015 C 
ATOM     10  C   UNL     1     -32.857  19.664   0.845  0.00  0.00    +0.121 C 
BRANCH  10  13
ATOM     11  O   UNL     1     -31.705  17.638   1.418  0.00  0.00    -0.270 OA
ATOM     12  N   UNL     1     -30.634  19.110   0.037  0.00  0.00    -0.325 N 
ATOM     13  C   UNL     1     -31.700  18.704   0.806  0.00  0.00    +0.252 C 
ATOM     14  H   UNL     1     -29.837  18.537  -0.041  0.00  0.00    +0.145 HD
ATOM     15  H   UNL     1     -30.669  19.972  -0.436  0.00  0.00    +0.145 HD
ENDBRANCH  10  13
BRANCH  10  17
ATOM     16  N   UNL     1     -32.847  21.839  -0.559  0.00  0.00    -0.191 NA
ATOM     17  C   UNL     1     -32.852  20.865   0.071  0.00  0.00    +0.105 C 
ENDBRANCH  10  17
ENDBRANCH   3   9
BRANCH   5  18
ATOM     18  O   UNL     1     -36.470  22.659   4.061  0.00  0.00    -0.472 OA
BRANCH  18  19
ATOM     19  C   UNL     1     -35.297  22.842   4.852  0.00  0.00    +0.206 C 
ATOM     20  C   UNL     1     -35.507  22.191   6.202  0.00  0.00    +0.051 C 
ENDBRANCH  18  19
ENDBRANCH   5  18
BRANCH   1  21
ATOM     21  C   UNL     1     -38.497  20.508   0.146  0.00  0.00    +0.092 C 
BRANCH  21  22
ATOM     22  S   UNL     1     -37.981  19.705  -1.402  0.00  0.00    -0.109 S 
BRANCH  22  23
ATOM     23  C   UNL     1     -38.583  18.039  -1.152  0.00  0.00    +0.026 C 
ATOM     24  C   UNL     1     -39.819  17.665  -1.672  0.00  0.00    +0.006 C 
ATOM     25  C   UNL     1     -37.811  17.126  -0.439  0.00  0.00    +0.006 C 
ATOM     26  C   UNL     1     -40.287  16.366  -1.477  0.00  0.00    +0.001 C 
ATOM     27  C   UNL     1     -38.281  15.826  -0.244  0.00  0.00    +0.001 C 
ATOM     28  C   UNL     1     -39.518  15.446  -0.763  0.00  0.00    +0.000 C 
ENDBRANCH  22  23
ENDBRANCH  21  22
ENDBRANCH   1  21
TORSDOF 9
ENDMDL
MODEL 7
REMARK VINA RESULT:      -5.8      2.243      2.987
REMARK  Name = 5276
REMARK  9 active torsions:
REMARK  status: ('A' for Active; 'I' for Inactive)
REMARK    1  A    between atoms: C_1  and  C_21
REMARK    2  A    between atoms: C_2  and  O_7
REMARK    3  A    between atoms: C_3  and  C_9
REMARK    4  A    between atoms: C_5  and  O_18
REMARK    5  A    between atoms: C_10  and  C_13
REMARK    6  A    between atoms: C_10  and  C_17
REMARK    7  A    between atoms: O_18  and  C_19
REMARK    8  A    between atoms: C_21  and  S_22
REMARK    9  A    between atoms: S_22  and  C_23
REMARK                            x       y       z     vdW  Elec       q    Type
REMARK                         _______ _______ _______ _____ _____    ______ ____
ROOT
ATOM      1  C   UNL     1     -35.107  23.360   1.865  0.00  0.00    +0.026 C 
ATOM      2  C   UNL     1     -35.808  22.905   2.982  0.00  0.00    +0.164 C 
ATOM      3  C   UNL     1     -34.114  25.110   3.201  0.00  0.00    +0.004 C 
ATOM      4  C   UNL     1     -34.259  24.461   1.975  0.00  0.00    -0.000 C 
ATOM      5  C   UNL     1     -35.662  23.553   4.209  0.00  0.00    +0.172 C 
ATOM      6  C   UNL     1     -34.814  24.656   4.318  0.00  0.00    +0.040 C 
ENDROOT
BRANCH   2   7
ATOM      7  O   UNL     1     -36.637  21.828   2.880  0.00  0.00    -0.503 OA
ATOM      8  H   UNL     1     -36.560  21.245   2.149  0.00  0.00    +0.292 HD
ENDBRANCH   2   7
BRANCH   3   9
ATOM      9  C   UNL     1     -33.230  26.260   3.315  0.00  0.00    +0.015 C 
ATOM     10  C   UNL     1     -33.536  27.540   2.986  0.00  0.00    +0.121 C 
BRANCH  10  13
ATOM     11  O   UNL     1     -31.843  28.693   4.237  0.00  0.00    -0.270 OA
ATOM     12  N   UNL     1     -32.232  29.387   2.095  0.00  0.00    -0.325 N 
ATOM     13  C   UNL     1     -32.465  28.577   3.183  0.00  0.00    +0.252 C 
ATOM     14  H   UNL     1     -31.546  30.091   2.143  0.00  0.00    +0.145 HD
ATOM     15  H   UNL     1     -32.753  29.263   1.269  0.00  0.00    +0.145 HD
ENDBRANCH  10  13
BRANCH  10  17
ATOM     16  N   UNL     1     -35.855  28.166   2.021  0.00  0.00    -0.191 NA
ATOM     17  C   UNL     1     -34.815  27.887   2.453  0.00  0.00    +0.105 C 
ENDBRANCH  10  17
ENDBRANCH   3   9
BRANCH   5  18
ATOM     18  O   UNL     1     -36.341  23.119   5.308  0.00  0.00    -0.472 OA
BRANCH  18  19
ATOM     19  C   UNL     1     -35.569  22.553   6.365  0.00  0.00    +0.206 C 
ATOM     20  C   UNL     1     -34.904  21.288   5.868  0.00  0.00    +0.051 C 
ENDBRANCH  18  19
ENDBRANCH   5  18
BRANCH   1  21
ATOM     21  C   UNL     1     -35.251  22.678   0.545  0.00  0.00    +0.092 C 
BRANCH  21  22
ATOM     22  S   UNL     1     -33.668  22.534  -0.339  0.00  0.00    -0.109 S 
BRANCH  22  23
ATOM     23  C   UNL     1     -33.096  20.935   0.221  0.00  0.00    +0.026 C 
ATOM     24  C   UNL     1     -31.825  20.492  -0.134  0.00  0.00    +0.006 C 
ATOM     25  C   UNL     1     -33.926  20.143   1.010  0.00  0.00    +0.006 C 
ATOM     26  C   UNL     1     -31.379  19.245   0.304  0.00  0.00    +0.001 C 
ATOM     27  C   UNL     1     -33.479  18.895   1.448  0.00  0.00    +0.001 C 
ATOM     28  C   UNL     1     -32.206  18.446   1.095  0.00  0.00    +0.000 C 
ENDBRANCH  22  23
ENDBRANCH  21  22
ENDBRANCH   1  21
TORSDOF 9
ENDMDL
MODEL 8
REMARK VINA RESULT:      -5.7      4.017      7.779
REMARK  Name = 5276
REMARK  9 active torsions:
REMARK  status: ('A' for Active; 'I' for Inactive)
REMARK    1  A    between atoms: C_1  and  C_21
REMARK    2  A    between atoms: C_2  and  O_7
REMARK    3  A    between atoms: C_3  and  C_9
REMARK    4  A    between atoms: C_5  and  O_18
REMARK    5  A    between atoms: C_10  and  C_13
REMARK    6  A    between atoms: C_10  and  C_17
REMARK    7  A    between atoms: O_18  and  C_19
REMARK    8  A    between atoms: C_21  and  S_22
REMARK    9  A    between atoms: S_22  and  C_23
REMARK                            x       y       z     vdW  Elec       q    Type
REMARK                         _______ _______ _______ _____ _____    ______ ____
ROOT
ATOM      1  C   UNL     1     -35.302  19.989   1.618  0.00  0.00    +0.026 C 
ATOM      2  C   UNL     1     -36.187  19.382   0.727  0.00  0.00    +0.164 C 
ATOM      3  C   UNL     1     -33.539  18.516   0.870  0.00  0.00    +0.004 C 
ATOM      4  C   UNL     1     -33.978  19.556   1.690  0.00  0.00    -0.000 C 
ATOM      5  C   UNL     1     -35.748  18.342  -0.093  0.00  0.00    +0.172 C 
ATOM      6  C   UNL     1     -34.424  17.910  -0.021  0.00  0.00    +0.040 C 
ENDROOT
BRANCH   2   7
ATOM      7  O   UNL     1     -37.482  19.803   0.654  0.00  0.00    -0.503 OA
ATOM      8  H   UNL     1     -37.989  19.897   1.437  0.00  0.00    +0.292 HD
ENDBRANCH   2   7
BRANCH   3   9
ATOM      9  C   UNL     1     -32.159  18.065   0.945  0.00  0.00    +0.015 C 
ATOM     10  C   UNL     1     -31.073  18.724   0.467  0.00  0.00    +0.121 C 
BRANCH  10  13
ATOM     11  O   UNL     1     -29.606  16.948   1.140  0.00  0.00    -0.270 OA
ATOM     12  N   UNL     1     -28.657  18.818   0.235  0.00  0.00    -0.325 N 
ATOM     13  C   UNL     1     -29.733  18.069   0.652  0.00  0.00    +0.252 C 
ATOM     14  H   UNL     1     -27.744  18.459   0.321  0.00  0.00    +0.145 HD
ATOM     15  H   UNL     1     -28.800  19.713  -0.150  0.00  0.00    +0.145 HD
ENDBRANCH  10  13
BRANCH  10  17
ATOM     16  N   UNL     1     -31.301  20.998  -0.747  0.00  0.00    -0.191 NA
ATOM     17  C   UNL     1     -31.200  19.979  -0.203  0.00  0.00    +0.105 C 
ENDBRANCH  10  17
ENDBRANCH   3   9
BRANCH   5  18
ATOM     18  O   UNL     1     -36.603  17.742  -0.968  0.00  0.00    -0.472 OA
BRANCH  18  19
ATOM     19  C   UNL     1     -36.811  16.340  -0.813  0.00  0.00    +0.206 C 
ATOM     20  C   UNL     1     -38.210  16.105  -0.285  0.00  0.00    +0.051 C 
ENDBRANCH  18  19
ENDBRANCH   5  18
BRANCH   1  21
ATOM     21  C   UNL     1     -35.754  21.103   2.503  0.00  0.00    +0.092 C 
BRANCH  21  22
ATOM     22  S   UNL     1     -35.380  22.740   1.805  0.00  0.00    -0.109 S 
BRANCH  22  23
ATOM     23  C   UNL     1     -35.061  23.690   3.286  0.00  0.00    +0.026 C 
ATOM     24  C   UNL     1     -35.515  23.225   4.517  0.00  0.00    +0.006 C 
ATOM     25  C   UNL     1     -34.360  24.890   3.199  0.00  0.00    +0.006 C 
ATOM     26  C   UNL     1     -35.265  23.966   5.672  0.00  0.00    +0.001 C 
ATOM     27  C   UNL     1     -34.111  25.630   4.356  0.00  0.00    +0.001 C 
ATOM     28  C   UNL     1     -34.563  25.169   5.591  0.00  0.00    +0.000 C 
ENDBRANCH  22  23
ENDBRANCH  21  22
ENDBRANCH   1  21
TORSDOF 9
ENDMDL
MODEL 9
REMARK VINA RESULT:      -5.6      1.859      2.191
REMARK  Name = 5276
REMARK  9 active torsions:
REMARK  status: ('A' for Active; 'I' for Inactive)
REMARK    1  A    between atoms: C_1  and  C_21
REMARK    2  A    between atoms: C_2  and  O_7
REMARK    3  A    between atoms: C_3  and  C_9
REMARK    4  A    between atoms: C_5  and  O_18
REMARK    5  A    between atoms: C_10  and  C_13
REMARK    6  A    between atoms: C_10  and  C_17
REMARK    7  A    between atoms: O_18  and  C_19
REMARK    8  A    between atoms: C_21  and  S_22
REMARK    9  A    between atoms: S_22  and  C_23
REMARK                            x       y       z     vdW  Elec       q    Type
REMARK                         _______ _______ _______ _____ _____    ______ ____
ROOT
ATOM      1  C   UNL     1     -36.989  21.286   2.092  0.00  0.00    +0.026 C 
ATOM      2  C   UNL     1     -38.330  21.522   1.791  0.00  0.00    +0.164 C 
ATOM      3  C   UNL     1     -36.895  23.369   3.310  0.00  0.00    +0.004 C 
ATOM      4  C   UNL     1     -36.272  22.209   2.852  0.00  0.00    -0.000 C 
ATOM      5  C   UNL     1     -38.954  22.683   2.249  0.00  0.00    +0.172 C 
ATOM      6  C   UNL     1     -38.236  23.606   3.009  0.00  0.00    +0.040 C 
ENDROOT
BRANCH   2   7
ATOM      7  O   UNL     1     -39.035  20.622   1.049  0.00  0.00    -0.503 OA
ATOM      8  H   UNL     1     -39.310  20.843   0.181  0.00  0.00    +0.292 HD
ENDBRANCH   2   7
BRANCH   3   9
ATOM      9  C   UNL     1     -36.147  24.333   4.102  0.00  0.00    +0.015 C 
ATOM     10  C   UNL     1     -35.549  25.459   3.638  0.00  0.00    +0.121 C 
BRANCH  10  13
ATOM     11  O   UNL     1     -34.329  27.402   4.344  0.00  0.00    -0.270 OA
ATOM     12  N   UNL     1     -34.749  25.791   5.908  0.00  0.00    -0.325 N 
ATOM     13  C   UNL     1     -34.822  26.315   4.638  0.00  0.00    +0.252 C 
ATOM     14  H   UNL     1     -34.289  26.290   6.621  0.00  0.00    +0.145 HD
ATOM     15  H   UNL     1     -35.156  24.916   6.103  0.00  0.00    +0.145 HD
ENDBRANCH  10  13
BRANCH  10  17
ATOM     16  N   UNL     1     -35.622  26.090   1.129  0.00  0.00    -0.191 NA
ATOM     17  C   UNL     1     -35.590  25.807   2.254  0.00  0.00    +0.105 C 
ENDBRANCH  10  17
ENDBRANCH   3   9
BRANCH   5  18
ATOM     18  O   UNL     1     -40.264  22.925   1.962  0.00  0.00    -0.472 OA
BRANCH  18  19
ATOM     19  C   UNL     1     -40.537  23.868   0.928  0.00  0.00    +0.206 C 
ATOM     20  C   UNL     1     -41.353  25.007   1.501  0.00  0.00    +0.051 C 
ENDBRANCH  18  19
ENDBRANCH   5  18
BRANCH   1  21
ATOM     21  C   UNL     1     -36.306  20.049   1.611  0.00  0.00    +0.092 C 
BRANCH  21  22
ATOM     22  S   UNL     1     -35.542  20.268  -0.024  0.00  0.00    -0.109 S 
BRANCH  22  23
ATOM     23  C   UNL     1     -33.883  19.672   0.279  0.00  0.00    +0.026 C 
ATOM     24  C   UNL     1     -33.687  18.544   1.071  0.00  0.00    +0.006 C 
ATOM     25  C   UNL     1     -32.796  20.340  -0.279  0.00  0.00    +0.006 C 
ATOM     26  C   UNL     1     -32.393  18.080   1.307  0.00  0.00    +0.001 C 
ATOM     27  C   UNL     1     -31.502  19.875  -0.042  0.00  0.00    +0.001 C 
ATOM     28  C   UNL     1     -31.301  18.745   0.751  0.00  0.00    +0.000 C 
ENDBRANCH  22  23
ENDBRANCH  21  22
ENDBRANCH   1  21
TORSDOF 9
ENDMDL
