MODEL 1
REMARK VINA RESULT:      -6.8      0.000      0.000
REMARK  Name = 196513
REMARK  8 active torsions:
REMARK  status: ('A' for Active; 'I' for Inactive)
REMARK    1  A    between atoms: C_2  and  O_7
REMARK    2  A    between atoms: C_3  and  O_9
REMARK    3  A    between atoms: C_4  and  O_11
REMARK    4  A    between atoms: C_5  and  O_17
REMARK    5  A    between atoms: C_6  and  C_14
REMARK    6  A    between atoms: C_14  and  O_15
REMARK    7  A    between atoms: O_17  and  C_19
REMARK    8  A    between atoms: C_21  and  O_28
REMARK                            x       y       z     vdW  Elec       q    Type
REMARK                         _______ _______ _______ _____ _____    ______ ____
ROOT
ATOM      1  O   UNL     1     -37.595  24.153   2.658  0.00  0.00    -0.307 OA
ATOM      2  C   UNL     1     -39.362  22.068   1.771  0.00  0.00    +0.173 C 
ATOM      3  C   UNL     1     -37.980  21.778   2.357  0.00  0.00    +0.210 C 
ATOM      4  C   UNL     1     -39.875  23.442   2.207  0.00  0.00    +0.178 C 
ATOM      5  C   UNL     1     -37.027  22.953   2.140  0.00  0.00    +0.319 C 
ATOM      6  C   UNL     1     -38.806  24.508   2.001  0.00  0.00    +0.246 C 
ENDROOT
BRANCH   2   7
ATOM      7  O   UNL     1     -40.291  21.084   2.228  0.00  0.00    -0.379 OA
ATOM      8  H   UNL     1     -41.191  21.440   2.175  0.00  0.00    +0.211 HD
ENDBRANCH   2   7
BRANCH   3   9
ATOM      9  O   UNL     1     -37.427  20.628   1.715  0.00  0.00    -0.377 OA
ATOM     10  H   UNL     1     -37.966  20.398   0.943  0.00  0.00    +0.211 HD
ENDBRANCH   3   9
BRANCH   4  11
ATOM     11  O   UNL     1     -41.019  23.782   1.426  0.00  0.00    -0.379 OA
ATOM     12  H   UNL     1     -41.824  23.551   1.916  0.00  0.00    +0.211 HD
ENDBRANCH   4  11
BRANCH   6  14
ATOM     13  O   UNL     1     -40.127  26.501   2.324  0.00  0.00    -0.247 OA
ATOM     14  C   UNL     1     -39.194  25.790   2.664  0.00  0.00    +0.344 C 
BRANCH  14  15
ATOM     15  O   UNL     1     -38.364  26.062   3.701  0.00  0.00    -0.478 OA
ATOM     16  H   UNL     1     -37.934  26.894   3.751  0.00  0.00    +0.295 HD
ENDBRANCH  14  15
ENDBRANCH   6  14
BRANCH   5  17
ATOM     17  O   UNL     1     -35.807  22.662   2.822  0.00  0.00    -0.447 OA
BRANCH  17  19
ATOM     18  N   UNL     1     -33.099  26.719   3.098  0.00  0.00    -0.311 N 
ATOM     19  C   UNL     1     -35.227  23.696   3.506  0.00  0.00    +0.176 C 
ATOM     20  C   UNL     1     -34.467  24.627   2.796  0.00  0.00    +0.055 C 
ATOM     21  C   UNL     1     -35.401  23.803   4.883  0.00  0.00    +0.173 C 
ATOM     22  C   UNL     1     -33.887  25.673   3.522  0.00  0.00    +0.052 C 
ATOM     23  C   UNL     1     -34.041  25.808   4.903  0.00  0.00    +0.018 C 
ATOM     24  C   UNL     1     -34.813  24.854   5.596  0.00  0.00    +0.041 C 
ATOM     25  C   UNL     1     -33.321  26.973   5.292  0.00  0.00    +0.017 C 
ATOM     26  C   UNL     1     -32.753  27.510   4.161  0.00  0.00    +0.062 C 
ATOM     27  H   UNL     1     -32.825  26.877   2.166  0.00  0.00    +0.152 HD
BRANCH  21  28
ATOM     28  O   UNL     1     -36.146  22.882   5.559  0.00  0.00    -0.468 OA
ATOM     29  C   UNL     1     -35.435  21.923   6.338  0.00  0.00    +0.253 C 
ENDBRANCH  21  28
ENDBRANCH  17  19
ENDBRANCH   5  17
TORSDOF 8
ENDMDL
MODEL 2
REMARK VINA RESULT:      -6.5      4.412      6.286
REMARK  Name = 196513
REMARK  8 active torsions:
REMARK  status: ('A' for Active; 'I' for Inactive)
REMARK    1  A    between atoms: C_2  and  O_7
REMARK    2  A    between atoms: C_3  and  O_9
REMARK    3  A    between atoms: C_4  and  O_11
REMARK    4  A    between atoms: C_5  and  O_17
REMARK    5  A    between atoms: C_6  and  C_14
REMARK    6  A    between atoms: C_14  and  O_15
REMARK    7  A    between atoms: O_17  and  C_19
REMARK    8  A    between atoms: C_21  and  O_28
REMARK                            x       y       z     vdW  Elec       q    Type
REMARK                         _______ _______ _______ _____ _____    ______ ____
ROOT
ATOM      1  O   UNL     1     -35.388  21.465   3.406  0.00  0.00    -0.307 OA
ATOM      2  C   UNL     1     -36.770  23.861   2.630  0.00  0.00    +0.173 C 
ATOM      3  C   UNL     1     -36.527  22.704   1.660  0.00  0.00    +0.210 C 
ATOM      4  C   UNL     1     -36.702  23.394   4.084  0.00  0.00    +0.178 C 
ATOM      5  C   UNL     1     -35.287  21.902   2.053  0.00  0.00    +0.319 C 
ATOM      6  C   UNL     1     -35.456  22.550   4.323  0.00  0.00    +0.246 C 
ENDROOT
BRANCH   2   7
ATOM      7  O   UNL     1     -38.068  24.411   2.402  0.00  0.00    -0.379 OA
ATOM      8  H   UNL     1     -38.740  23.816   2.769  0.00  0.00    +0.211 HD
ENDBRANCH   2   7
BRANCH   3   9
ATOM      9  O   UNL     1     -36.327  23.223   0.345  0.00  0.00    -0.377 OA
ATOM     10  H   UNL     1     -35.383  23.393   0.205  0.00  0.00    +0.211 HD
ENDBRANCH   3   9
BRANCH   4  11
ATOM     11  O   UNL     1     -36.654  24.534   4.940  0.00  0.00    -0.379 OA
ATOM     12  H   UNL     1     -36.481  25.328   4.409  0.00  0.00    +0.211 HD
ENDBRANCH   4  11
BRANCH   6  14
ATOM     13  O   UNL     1     -35.881  22.399   6.694  0.00  0.00    -0.247 OA
ATOM     14  C   UNL     1     -35.514  21.873   5.654  0.00  0.00    +0.344 C 
BRANCH  14  15
ATOM     15  O   UNL     1     -35.101  20.585   5.554  0.00  0.00    -0.478 OA
ATOM     16  H   UNL     1     -34.191  20.393   5.435  0.00  0.00    +0.295 HD
ENDBRANCH  14  15
ENDBRANCH   6  14
BRANCH   5  17
ATOM     17  O   UNL     1     -35.202  20.771   1.186  0.00  0.00    -0.447 OA
BRANCH  17  19
ATOM     18  N   UNL     1     -31.501  17.591   1.427  0.00  0.00    -0.311 N 
ATOM     19  C   UNL     1     -33.943  20.340   0.866  0.00  0.00    +0.176 C 
ATOM     20  C   UNL     1     -33.492  19.132   1.402  0.00  0.00    +0.055 C 
ATOM     21  C   UNL     1     -33.140  21.101   0.022  0.00  0.00    +0.173 C 
ATOM     22  C   UNL     1     -32.201  18.717   1.057  0.00  0.00    +0.052 C 
ATOM     23  C   UNL     1     -31.370  19.458   0.214  0.00  0.00    +0.018 C 
ATOM     24  C   UNL     1     -31.851  20.674  -0.313  0.00  0.00    +0.041 C 
ATOM     25  C   UNL     1     -30.150  18.737   0.089  0.00  0.00    +0.017 C 
ATOM     26  C   UNL     1     -30.261  17.594   0.847  0.00  0.00    +0.062 C 
ATOM     27  H   UNL     1     -31.842  16.885   2.022  0.00  0.00    +0.152 HD
BRANCH  21  28
ATOM     28  O   UNL     1     -33.599  22.279  -0.491  0.00  0.00    -0.468 OA
ATOM     29  C   UNL     1     -32.772  23.427  -0.311  0.00  0.00    +0.253 C 
ENDBRANCH  21  28
ENDBRANCH  17  19
ENDBRANCH   5  17
TORSDOF 8
ENDMDL
MODEL 3
REMARK VINA RESULT:      -6.4      2.844      7.036
REMARK  Name = 196513
REMARK  8 active torsions:
REMARK  status: ('A' for Active; 'I' for Inactive)
REMARK    1  A    between atoms: C_2  and  O_7
REMARK    2  A    between atoms: C_3  and  O_9
REMARK    3  A    between atoms: C_4  and  O_11
REMARK    4  A    between atoms: C_5  and  O_17
REMARK    5  A    between atoms: C_6  and  C_14
REMARK    6  A    between atoms: C_14  and  O_15
REMARK    7  A    between atoms: O_17  and  C_19
REMARK    8  A    between atoms: C_21  and  O_28
REMARK                            x       y       z     vdW  Elec       q    Type
REMARK                         _______ _______ _______ _____ _____    ______ ____
ROOT
ATOM      1  O   UNL     1     -37.081  23.262   4.248  0.00  0.00    -0.307 OA
ATOM      2  C   UNL     1     -35.721  25.784   4.046  0.00  0.00    +0.173 C 
ATOM      3  C   UNL     1     -37.238  25.657   3.901  0.00  0.00    +0.210 C 
ATOM      4  C   UNL     1     -35.133  24.600   4.815  0.00  0.00    +0.178 C 
ATOM      5  C   UNL     1     -37.632  24.267   3.402  0.00  0.00    +0.319 C 
ATOM      6  C   UNL     1     -35.659  23.282   4.260  0.00  0.00    +0.246 C 
ENDROOT
BRANCH   2   7
ATOM      7  O   UNL     1     -35.409  26.978   4.767  0.00  0.00    -0.379 OA
ATOM      8  H   UNL     1     -35.621  26.853   5.705  0.00  0.00    +0.211 HD
ENDBRANCH   2   7
BRANCH   3   9
ATOM      9  O   UNL     1     -37.705  26.621   2.957  0.00  0.00    -0.377 OA
ATOM     10  H   UNL     1     -38.001  26.169   2.152  0.00  0.00    +0.211 HD
ENDBRANCH   3   9
BRANCH   4  11
ATOM     11  O   UNL     1     -33.713  24.618   4.684  0.00  0.00    -0.379 OA
ATOM     12  H   UNL     1     -33.328  25.122   5.419  0.00  0.00    +0.211 HD
ENDBRANCH   4  11
BRANCH   6  14
ATOM     13  O   UNL     1     -34.936  22.254   6.320  0.00  0.00    -0.247 OA
ATOM     14  C   UNL     1     -35.306  22.143   5.161  0.00  0.00    +0.344 C 
BRANCH  14  15
ATOM     15  O   UNL     1     -35.451  20.959   4.515  0.00  0.00    -0.478 OA
ATOM     16  H   UNL     1     -36.243  20.774   4.049  0.00  0.00    +0.295 HD
ENDBRANCH  14  15
ENDBRANCH   6  14
BRANCH   5  17
ATOM     17  O   UNL     1     -39.057  24.182   3.415  0.00  0.00    -0.447 OA
BRANCH  17  19
ATOM     18  N   UNL     1     -40.188  20.922  -0.043  0.00  0.00    -0.311 N 
ATOM     19  C   UNL     1     -39.659  23.806   2.245  0.00  0.00    +0.176 C 
ATOM     20  C   UNL     1     -39.523  22.485   1.816  0.00  0.00    +0.055 C 
ATOM     21  C   UNL     1     -40.388  24.735   1.508  0.00  0.00    +0.173 C 
ATOM     22  C   UNL     1     -40.150  22.129   0.616  0.00  0.00    +0.052 C 
ATOM     23  C   UNL     1     -40.887  23.037  -0.147  0.00  0.00    +0.018 C 
ATOM     24  C   UNL     1     -41.007  24.366   0.309  0.00  0.00    +0.041 C 
ATOM     25  C   UNL     1     -41.371  22.332  -1.284  0.00  0.00    +0.017 C 
ATOM     26  C   UNL     1     -40.924  21.034  -1.192  0.00  0.00    +0.062 C 
ATOM     27  H   UNL     1     -39.751  20.097   0.267  0.00  0.00    +0.152 HD
BRANCH  21  28
ATOM     28  O   UNL     1     -40.507  26.022   1.943  0.00  0.00    -0.468 OA
ATOM     29  C   UNL     1     -41.726  26.373   2.596  0.00  0.00    +0.253 C 
ENDBRANCH  21  28
ENDBRANCH  17  19
ENDBRANCH   5  17
TORSDOF 8
ENDMDL
MODEL 4
REMARK VINA RESULT:      -6.2      1.709      2.142
REMARK  Name = 196513
REMARK  8 active torsions:
REMARK  status: ('A' for Active; 'I' for Inactive)
REMARK    1  A    between atoms: C_2  and  O_7
REMARK    2  A    between atoms: C_3  and  O_9
REMARK    3  A    between atoms: C_4  and  O_11
REMARK    4  A    between atoms: C_5  and  O_17
REMARK    5  A    between atoms: C_6  and  C_14
REMARK    6  A    between atoms: C_14  and  O_15
REMARK    7  A    between atoms: O_17  and  C_19
REMARK    8  A    between atoms: C_21  and  O_28
REMARK                            x       y       z     vdW  Elec       q    Type
REMARK                         _______ _______ _______ _____ _____    ______ ____
ROOT
ATOM      1  O   UNL     1     -39.979  25.285   3.414  0.00  0.00    -0.307 OA
ATOM      2  C   UNL     1     -40.436  23.912   0.931  0.00  0.00    +0.173 C 
ATOM      3  C   UNL     1     -39.444  23.405   1.978  0.00  0.00    +0.210 C 
ATOM      4  C   UNL     1     -41.482  24.837   1.556  0.00  0.00    +0.178 C 
ATOM      5  C   UNL     1     -38.904  24.551   2.832  0.00  0.00    +0.319 C 
ATOM      6  C   UNL     1     -40.815  25.889   2.435  0.00  0.00    +0.246 C 
ENDROOT
BRANCH   2   7
ATOM      7  O   UNL     1     -41.121  22.803   0.345  0.00  0.00    -0.379 OA
ATOM      8  H   UNL     1     -40.974  22.012   0.885  0.00  0.00    +0.211 HD
ENDBRANCH   2   7
BRANCH   3   9
ATOM      9  O   UNL     1     -38.342  22.779   1.321  0.00  0.00    -0.377 OA
ATOM     10  H   UNL     1     -38.046  23.335   0.584  0.00  0.00    +0.211 HD
ENDBRANCH   3   9
BRANCH   4  11
ATOM     11  O   UNL     1     -42.202  25.497   0.517  0.00  0.00    -0.379 OA
ATOM     12  H   UNL     1     -42.681  26.255   0.888  0.00  0.00    +0.211 HD
ENDBRANCH   4  11
BRANCH   6  14
ATOM     13  O   UNL     1     -43.037  26.582   3.075  0.00  0.00    -0.247 OA
ATOM     14  C   UNL     1     -41.828  26.623   3.253  0.00  0.00    +0.344 C 
BRANCH  14  15
ATOM     15  O   UNL     1     -41.223  27.348   4.226  0.00  0.00    -0.478 OA
ATOM     16  H   UNL     1     -40.516  26.976   4.716  0.00  0.00    +0.295 HD
ENDBRANCH  14  15
ENDBRANCH   6  14
BRANCH   5  17
ATOM     17  O   UNL     1     -38.091  23.988   3.862  0.00  0.00    -0.447 OA
BRANCH  17  19
ATOM     18  N   UNL     1     -34.972  27.722   3.419  0.00  0.00    -0.311 N 
ATOM     19  C   UNL     1     -36.913  24.630   4.131  0.00  0.00    +0.176 C 
ATOM     20  C   UNL     1     -36.681  25.877   3.548  0.00  0.00    +0.055 C 
ATOM     21  C   UNL     1     -35.973  24.037   4.970  0.00  0.00    +0.173 C 
ATOM     22  C   UNL     1     -35.467  26.509   3.841  0.00  0.00    +0.052 C 
ATOM     23  C   UNL     1     -34.504  25.941   4.678  0.00  0.00    +0.018 C 
ATOM     24  C   UNL     1     -34.764  24.681   5.252  0.00  0.00    +0.041 C 
ATOM     25  C   UNL     1     -33.416  26.856   4.745  0.00  0.00    +0.017 C 
ATOM     26  C   UNL     1     -33.733  27.941   3.960  0.00  0.00    +0.062 C 
ATOM     27  H   UNL     1     -35.440  28.343   2.816  0.00  0.00    +0.152 HD
BRANCH  21  28
ATOM     28  O   UNL     1     -36.218  22.817   5.528  0.00  0.00    -0.468 OA
ATOM     29  C   UNL     1     -35.155  22.221   6.269  0.00  0.00    +0.253 C 
ENDBRANCH  21  28
ENDBRANCH  17  19
ENDBRANCH   5  17
TORSDOF 8
ENDMDL
MODEL 5
REMARK VINA RESULT:      -6.1      2.786      5.135
REMARK  Name = 196513
REMARK  8 active torsions:
REMARK  status: ('A' for Active; 'I' for Inactive)
REMARK    1  A    between atoms: C_2  and  O_7
REMARK    2  A    between atoms: C_3  and  O_9
REMARK    3  A    between atoms: C_4  and  O_11
REMARK    4  A    between atoms: C_5  and  O_17
REMARK    5  A    between atoms: C_6  and  C_14
REMARK    6  A    between atoms: C_14  and  O_15
REMARK    7  A    between atoms: O_17  and  C_19
REMARK    8  A    between atoms: C_21  and  O_28
REMARK                            x       y       z     vdW  Elec       q    Type
REMARK                         _______ _______ _______ _____ _____    ______ ____
ROOT
ATOM      1  O   UNL     1     -35.529  25.302   3.724  0.00  0.00    -0.307 OA
ATOM      2  C   UNL     1     -37.985  26.288   2.606  0.00  0.00    +0.173 C 
ATOM      3  C   UNL     1     -36.616  26.804   2.161  0.00  0.00    +0.210 C 
ATOM      4  C   UNL     1     -37.878  24.902   3.245  0.00  0.00    +0.178 C 
ATOM      5  C   UNL     1     -35.578  26.652   3.273  0.00  0.00    +0.319 C 
ATOM      6  C   UNL     1     -36.764  24.871   4.284  0.00  0.00    +0.246 C 
ENDROOT
BRANCH   2   7
ATOM      7  O   UNL     1     -38.849  26.186   1.473  0.00  0.00    -0.379 OA
ATOM      8  H   UNL     1     -39.490  26.912   1.490  0.00  0.00    +0.211 HD
ENDBRANCH   2   7
BRANCH   3   9
ATOM      9  O   UNL     1     -36.718  28.188   1.828  0.00  0.00    -0.377 OA
ATOM     10  H   UNL     1     -35.846  28.524   1.569  0.00  0.00    +0.211 HD
ENDBRANCH   3   9
BRANCH   4  11
ATOM     11  O   UNL     1     -39.112  24.587   3.887  0.00  0.00    -0.379 OA
ATOM     12  H   UNL     1     -39.810  25.168   3.546  0.00  0.00    +0.211 HD
ENDBRANCH   4  11
BRANCH   6  14
ATOM     13  O   UNL     1     -35.906  23.159   5.753  0.00  0.00    -0.247 OA
ATOM     14  C   UNL     1     -36.475  23.470   4.718  0.00  0.00    +0.344 C 
BRANCH  14  15
ATOM     15  O   UNL     1     -36.932  22.582   3.800  0.00  0.00    -0.478 OA
ATOM     16  H   UNL     1     -36.885  22.786   2.887  0.00  0.00    +0.295 HD
ENDBRANCH  14  15
ENDBRANCH   6  14
BRANCH   5  17
ATOM     17  O   UNL     1     -34.308  27.031   2.743  0.00  0.00    -0.447 OA
BRANCH  17  19
ATOM     18  N   UNL     1     -31.445  28.275   6.502  0.00  0.00    -0.311 N 
ATOM     19  C   UNL     1     -33.583  27.930   3.477  0.00  0.00    +0.176 C 
ATOM     20  C   UNL     1     -32.921  27.482   4.622  0.00  0.00    +0.055 C 
ATOM     21  C   UNL     1     -33.517  29.262   3.079  0.00  0.00    +0.173 C 
ATOM     22  C   UNL     1     -32.187  28.424   5.352  0.00  0.00    +0.052 C 
ATOM     23  C   UNL     1     -32.102  29.767   4.979  0.00  0.00    +0.018 C 
ATOM     24  C   UNL     1     -32.780  30.193   3.820  0.00  0.00    +0.041 C 
ATOM     25  C   UNL     1     -31.281  30.418   5.943  0.00  0.00    +0.017 C 
ATOM     26  C   UNL     1     -30.894  29.474   6.867  0.00  0.00    +0.062 C 
ATOM     27  H   UNL     1     -31.328  27.430   6.991  0.00  0.00    +0.152 HD
BRANCH  21  28
ATOM     28  O   UNL     1     -34.172  29.681   1.958  0.00  0.00    -0.468 OA
ATOM     29  C   UNL     1     -34.562  31.052   1.912  0.00  0.00    +0.253 C 
ENDBRANCH  21  28
ENDBRANCH  17  19
ENDBRANCH   5  17
TORSDOF 8
ENDMDL
MODEL 6
REMARK VINA RESULT:      -6.0      3.069      6.403
REMARK  Name = 196513
REMARK  8 active torsions:
REMARK  status: ('A' for Active; 'I' for Inactive)
REMARK    1  A    between atoms: C_2  and  O_7
REMARK    2  A    between atoms: C_3  and  O_9
REMARK    3  A    between atoms: C_4  and  O_11
REMARK    4  A    between atoms: C_5  and  O_17
REMARK    5  A    between atoms: C_6  and  C_14
REMARK    6  A    between atoms: C_14  and  O_15
REMARK    7  A    between atoms: O_17  and  C_19
REMARK    8  A    between atoms: C_21  and  O_28
REMARK                            x       y       z     vdW  Elec       q    Type
REMARK                         _______ _______ _______ _____ _____    ______ ____
ROOT
ATOM      1  O   UNL     1     -37.005  23.010   3.847  0.00  0.00    -0.307 OA
ATOM      2  C   UNL     1     -38.101  25.518   2.973  0.00  0.00    +0.173 C 
ATOM      3  C   UNL     1     -38.776  24.180   2.672  0.00  0.00    +0.210 C 
ATOM      4  C   UNL     1     -37.165  25.413   4.178  0.00  0.00    +0.178 C 
ATOM      5  C   UNL     1     -37.757  23.041   2.636  0.00  0.00    +0.319 C 
ATOM      6  C   UNL     1     -36.252  24.200   4.048  0.00  0.00    +0.246 C 
ENDROOT
BRANCH   2   7
ATOM      7  O   UNL     1     -39.096  26.499   3.271  0.00  0.00    -0.379 OA
ATOM      8  H   UNL     1     -39.703  26.581   2.520  0.00  0.00    +0.211 HD
ENDBRANCH   2   7
BRANCH   3   9
ATOM      9  O   UNL     1     -39.415  24.249   1.398  0.00  0.00    -0.377 OA
ATOM     10  H   UNL     1     -38.938  23.690   0.765  0.00  0.00    +0.211 HD
ENDBRANCH   3   9
BRANCH   4  11
ATOM     11  O   UNL     1     -36.359  26.588   4.248  0.00  0.00    -0.379 OA
ATOM     12  H   UNL     1     -35.482  26.358   4.594  0.00  0.00    +0.211 HD
ENDBRANCH   4  11
BRANCH   6  14
ATOM     13  O   UNL     1     -34.631  24.631   5.783  0.00  0.00    -0.247 OA
ATOM     14  C   UNL     1     -35.527  23.936   5.327  0.00  0.00    +0.344 C 
BRANCH  14  15
ATOM     15  O   UNL     1     -35.998  22.812   5.921  0.00  0.00    -0.478 OA
ATOM     16  H   UNL     1     -35.603  21.982   5.735  0.00  0.00    +0.295 HD
ENDBRANCH  14  15
ENDBRANCH   6  14
BRANCH   5  17
ATOM     17  O   UNL     1     -38.472  21.815   2.481  0.00  0.00    -0.447 OA
BRANCH  17  19
ATOM     18  N   UNL     1     -35.244  18.688   0.566  0.00  0.00    -0.311 N 
ATOM     19  C   UNL     1     -38.029  20.969   1.501  0.00  0.00    +0.176 C 
ATOM     20  C   UNL     1     -36.810  20.314   1.682  0.00  0.00    +0.055 C 
ATOM     21  C   UNL     1     -38.791  20.775   0.352  0.00  0.00    +0.173 C 
ATOM     22  C   UNL     1     -36.383  19.454   0.663  0.00  0.00    +0.052 C 
ATOM     23  C   UNL     1     -37.123  19.239  -0.501  0.00  0.00    +0.018 C 
ATOM     24  C   UNL     1     -38.351  19.914  -0.658  0.00  0.00    +0.041 C 
ATOM     25  C   UNL     1     -36.390  18.316  -1.299  0.00  0.00    +0.017 C 
ATOM     26  C   UNL     1     -35.239  17.997  -0.615  0.00  0.00    +0.062 C 
ATOM     27  H   UNL     1     -34.535  18.643   1.247  0.00  0.00    +0.152 HD
BRANCH  21  28
ATOM     28  O   UNL     1     -39.979  21.426   0.194  0.00  0.00    -0.468 OA
ATOM     29  C   UNL     1     -40.729  21.123  -0.981  0.00  0.00    +0.253 C 
ENDBRANCH  21  28
ENDBRANCH  17  19
ENDBRANCH   5  17
TORSDOF 8
ENDMDL
MODEL 7
REMARK VINA RESULT:      -6.0      1.860      2.816
REMARK  Name = 196513
REMARK  8 active torsions:
REMARK  status: ('A' for Active; 'I' for Inactive)
REMARK    1  A    between atoms: C_2  and  O_7
REMARK    2  A    between atoms: C_3  and  O_9
REMARK    3  A    between atoms: C_4  and  O_11
REMARK    4  A    between atoms: C_5  and  O_17
REMARK    5  A    between atoms: C_6  and  C_14
REMARK    6  A    between atoms: C_14  and  O_15
REMARK    7  A    between atoms: O_17  and  C_19
REMARK    8  A    between atoms: C_21  and  O_28
REMARK                            x       y       z     vdW  Elec       q    Type
REMARK                         _______ _______ _______ _____ _____    ______ ____
ROOT
ATOM      1  O   UNL     1     -38.728  22.470   1.807  0.00  0.00    -0.307 OA
ATOM      2  C   UNL     1     -36.944  20.372   0.987  0.00  0.00    +0.173 C 
ATOM      3  C   UNL     1     -36.853  21.035   2.362  0.00  0.00    +0.210 C 
ATOM      4  C   UNL     1     -38.335  20.546   0.375  0.00  0.00    +0.178 C 
ATOM      5  C   UNL     1     -37.401  22.461   2.328  0.00  0.00    +0.319 C 
ATOM      6  C   UNL     1     -38.787  21.998   0.467  0.00  0.00    +0.246 C 
ENDROOT
BRANCH   2   7
ATOM      7  O   UNL     1     -36.689  18.972   1.114  0.00  0.00    -0.379 OA
ATOM      8  H   UNL     1     -37.530  18.491   1.127  0.00  0.00    +0.211 HD
ENDBRANCH   2   7
BRANCH   3   9
ATOM      9  O   UNL     1     -35.487  21.089   2.771  0.00  0.00    -0.377 OA
ATOM     10  H   UNL     1     -35.346  20.480   3.513  0.00  0.00    +0.211 HD
ENDBRANCH   3   9
BRANCH   4  11
ATOM     11  O   UNL     1     -38.291  20.165  -0.999  0.00  0.00    -0.379 OA
ATOM     12  H   UNL     1     -37.369  20.149  -1.300  0.00  0.00    +0.211 HD
ENDBRANCH   4  11
BRANCH   6  14
ATOM     13  O   UNL     1     -40.749  23.118  -0.385  0.00  0.00    -0.247 OA
ATOM     14  C   UNL     1     -40.235  22.131   0.120  0.00  0.00    +0.344 C 
BRANCH  14  15
ATOM     15  O   UNL     1     -40.910  21.000   0.444  0.00  0.00    -0.478 OA
ATOM     16  H   UNL     1     -41.196  20.862   1.326  0.00  0.00    +0.295 HD
ENDBRANCH  14  15
ENDBRANCH   6  14
BRANCH   5  17
ATOM     17  O   UNL     1     -37.403  22.964   3.664  0.00  0.00    -0.447 OA
BRANCH  17  19
ATOM     18  N   UNL     1     -34.908  27.054   2.707  0.00  0.00    -0.311 N 
ATOM     19  C   UNL     1     -36.468  23.918   3.960  0.00  0.00    +0.176 C 
ATOM     20  C   UNL     1     -36.273  24.967   3.060  0.00  0.00    +0.055 C 
ATOM     21  C   UNL     1     -35.733  23.830   5.138  0.00  0.00    +0.173 C 
ATOM     22  C   UNL     1     -35.310  25.928   3.389  0.00  0.00    +0.052 C 
ATOM     23  C   UNL     1     -34.556  25.868   4.563  0.00  0.00    +0.018 C 
ATOM     24  C   UNL     1     -34.773  24.798   5.454  0.00  0.00    +0.041 C 
ATOM     25  C   UNL     1     -33.690  26.997   4.562  0.00  0.00    +0.017 C 
ATOM     26  C   UNL     1     -33.929  27.706   3.407  0.00  0.00    +0.062 C 
ATOM     27  H   UNL     1     -35.271  27.347   1.840  0.00  0.00    +0.152 HD
BRANCH  21  28
ATOM     28  O   UNL     1     -35.937  22.796   6.004  0.00  0.00    -0.468 OA
ATOM     29  C   UNL     1     -34.968  21.750   6.000  0.00  0.00    +0.253 C 
ENDBRANCH  21  28
ENDBRANCH  17  19
ENDBRANCH   5  17
TORSDOF 8
ENDMDL
MODEL 8
REMARK VINA RESULT:      -5.9      2.897      6.777
REMARK  Name = 196513
REMARK  8 active torsions:
REMARK  status: ('A' for Active; 'I' for Inactive)
REMARK    1  A    between atoms: C_2  and  O_7
REMARK    2  A    between atoms: C_3  and  O_9
REMARK    3  A    between atoms: C_4  and  O_11
REMARK    4  A    between atoms: C_5  and  O_17
REMARK    5  A    between atoms: C_6  and  C_14
REMARK    6  A    between atoms: C_14  and  O_15
REMARK    7  A    between atoms: O_17  and  C_19
REMARK    8  A    between atoms: C_21  and  O_28
REMARK                            x       y       z     vdW  Elec       q    Type
REMARK                         _______ _______ _______ _____ _____    ______ ____
ROOT
ATOM      1  O   UNL     1     -37.082  23.196   4.138  0.00  0.00    -0.307 OA
ATOM      2  C   UNL     1     -35.803  25.767   4.051  0.00  0.00    +0.173 C 
ATOM      3  C   UNL     1     -37.315  25.599   3.904  0.00  0.00    +0.210 C 
ATOM      4  C   UNL     1     -35.174  24.567   4.761  0.00  0.00    +0.178 C 
ATOM      5  C   UNL     1     -37.668  24.222   3.341  0.00  0.00    +0.319 C 
ATOM      6  C   UNL     1     -35.661  23.260   4.147  0.00  0.00    +0.246 C 
ENDROOT
BRANCH   2   7
ATOM      7  O   UNL     1     -35.525  26.935   4.827  0.00  0.00    -0.379 OA
ATOM      8  H   UNL     1     -35.087  27.596   4.269  0.00  0.00    +0.211 HD
ENDBRANCH   2   7
BRANCH   3   9
ATOM      9  O   UNL     1     -37.817  26.591   3.009  0.00  0.00    -0.377 OA
ATOM     10  H   UNL     1     -38.204  26.160   2.231  0.00  0.00    +0.211 HD
ENDBRANCH   3   9
BRANCH   4  11
ATOM     11  O   UNL     1     -33.756  24.636   4.628  0.00  0.00    -0.379 OA
ATOM     12  H   UNL     1     -33.347  23.946   5.174  0.00  0.00    +0.211 HD
ENDBRANCH   4  11
BRANCH   6  14
ATOM     13  O   UNL     1     -34.778  22.167   6.109  0.00  0.00    -0.247 OA
ATOM     14  C   UNL     1     -35.269  22.092   4.992  0.00  0.00    +0.344 C 
BRANCH  14  15
ATOM     15  O   UNL     1     -35.531  20.927   4.350  0.00  0.00    -0.478 OA
ATOM     16  H   UNL     1     -36.128  20.914   3.627  0.00  0.00    +0.295 HD
ENDBRANCH  14  15
ENDBRANCH   6  14
BRANCH   5  17
ATOM     17  O   UNL     1     -39.089  24.092   3.355  0.00  0.00    -0.447 OA
BRANCH  17  19
ATOM     18  N   UNL     1     -41.717  25.474  -0.525  0.00  0.00    -0.311 N 
ATOM     19  C   UNL     1     -39.694  23.863   2.149  0.00  0.00    +0.176 C 
ATOM     20  C   UNL     1     -40.379  24.912   1.533  0.00  0.00    +0.055 C 
ATOM     21  C   UNL     1     -39.621  22.604   1.561  0.00  0.00    +0.173 C 
ATOM     22  C   UNL     1     -40.987  24.649   0.300  0.00  0.00    +0.052 C 
ATOM     23  C   UNL     1     -40.932  23.397  -0.315  0.00  0.00    +0.018 C 
ATOM     24  C   UNL     1     -40.235  22.355   0.329  0.00  0.00    +0.041 C 
ATOM     25  C   UNL     1     -41.652  23.500  -1.539  0.00  0.00    +0.017 C 
ATOM     26  C   UNL     1     -42.123  24.789  -1.638  0.00  0.00    +0.062 C 
ATOM     27  H   UNL     1     -41.919  26.419  -0.342  0.00  0.00    +0.152 HD
BRANCH  21  28
ATOM     28  O   UNL     1     -38.948  21.591   2.180  0.00  0.00    -0.468 OA
ATOM     29  C   UNL     1     -37.838  21.031   1.481  0.00  0.00    +0.253 C 
ENDBRANCH  21  28
ENDBRANCH  17  19
ENDBRANCH   5  17
TORSDOF 8
ENDMDL
MODEL 9
REMARK VINA RESULT:      -5.9      4.081      7.347
REMARK  Name = 196513
REMARK  8 active torsions:
REMARK  status: ('A' for Active; 'I' for Inactive)
REMARK    1  A    between atoms: C_2  and  O_7
REMARK    2  A    between atoms: C_3  and  O_9
REMARK    3  A    between atoms: C_4  and  O_11
REMARK    4  A    between atoms: C_5  and  O_17
REMARK    5  A    between atoms: C_6  and  C_14
REMARK    6  A    between atoms: C_14  and  O_15
REMARK    7  A    between atoms: O_17  and  C_19
REMARK    8  A    between atoms: C_21  and  O_28
REMARK                            x       y       z     vdW  Elec       q    Type
REMARK                         _______ _______ _______ _____ _____    ______ ____
ROOT
ATOM      1  O   UNL     1     -33.271  27.920   5.074  0.00  0.00    -0.307 OA
ATOM      2  C   UNL     1     -32.731  29.677   2.866  0.00  0.00    +0.173 C 
ATOM      3  C   UNL     1     -34.052  28.921   3.007  0.00  0.00    +0.210 C 
ATOM      4  C   UNL     1     -32.023  29.820   4.214  0.00  0.00    +0.178 C 
ATOM      5  C   UNL     1     -33.870  27.635   3.813  0.00  0.00    +0.319 C 
ATOM      6  C   UNL     1     -31.971  28.482   4.941  0.00  0.00    +0.246 C 
ENDROOT
BRANCH   2   7
ATOM      7  O   UNL     1     -32.983  30.989   2.358  0.00  0.00    -0.379 OA
ATOM      8  H   UNL     1     -32.186  31.531   2.454  0.00  0.00    +0.211 HD
ENDBRANCH   2   7
BRANCH   3   9
ATOM      9  O   UNL     1     -34.538  28.572   1.711  0.00  0.00    -0.377 OA
ATOM     10  H   UNL     1     -34.851  29.370   1.257  0.00  0.00    +0.211 HD
ENDBRANCH   3   9
BRANCH   4  11
ATOM     11  O   UNL     1     -30.689  30.275   3.995  0.00  0.00    -0.379 OA
ATOM     12  H   UNL     1     -30.550  30.424   3.046  0.00  0.00    +0.211 HD
ENDBRANCH   4  11
BRANCH   6  14
ATOM     13  O   UNL     1     -31.533  29.718   6.968  0.00  0.00    -0.247 OA
ATOM     14  C   UNL     1     -31.526  28.659   6.357  0.00  0.00    +0.344 C 
BRANCH  14  15
ATOM     15  O   UNL     1     -31.109  27.479   6.879  0.00  0.00    -0.478 OA
ATOM     16  H   UNL     1     -31.721  26.915   7.311  0.00  0.00    +0.295 HD
ENDBRANCH  14  15
ENDBRANCH   6  14
BRANCH   5  17
ATOM     17  O   UNL     1     -35.160  27.055   4.012  0.00  0.00    -0.447 OA
BRANCH  17  19
ATOM     18  N   UNL     1     -35.163  22.750   6.322  0.00  0.00    -0.311 N 
ATOM     19  C   UNL     1     -35.218  25.688   4.042  0.00  0.00    +0.176 C 
ATOM     20  C   UNL     1     -35.147  25.040   5.276  0.00  0.00    +0.055 C 
ATOM     21  C   UNL     1     -35.344  24.971   2.855  0.00  0.00    +0.173 C 
ATOM     22  C   UNL     1     -35.209  23.642   5.275  0.00  0.00    +0.052 C 
ATOM     23  C   UNL     1     -35.334  22.894   4.103  0.00  0.00    +0.018 C 
ATOM     24  C   UNL     1     -35.403  23.573   2.869  0.00  0.00    +0.041 C 
ATOM     25  C   UNL     1     -35.366  21.523   4.483  0.00  0.00    +0.017 C 
ATOM     26  C   UNL     1     -35.258  21.467   5.853  0.00  0.00    +0.062 C 
ATOM     27  H   UNL     1     -35.076  22.997   7.270  0.00  0.00    +0.152 HD
BRANCH  21  28
ATOM     28  O   UNL     1     -35.410  25.622   1.658  0.00  0.00    -0.468 OA
ATOM     29  C   UNL     1     -36.708  25.811   1.097  0.00  0.00    +0.253 C 
ENDBRANCH  21  28
ENDBRANCH  17  19
ENDBRANCH   5  17
TORSDOF 8
ENDMDL
