MODEL 1
REMARK VINA RESULT:      -6.5      0.000      0.000
REMARK  Name = 57505363
REMARK  12 active torsions:
REMARK  status: ('A' for Active; 'I' for Inactive)
REMARK    1  A    between atoms: N_2  and  C_5
REMARK    2  A    between atoms: C_3  and  C_22
REMARK    3  A    between atoms: C_5  and  C_10
REMARK    4  A    between atoms: C_11  and  C_13
REMARK    5  A    between atoms: C_13  and  N_14
REMARK    6  A    between atoms: N_14  and  C_17
REMARK    7  A    between atoms: C_17  and  C_18
REMARK    8  A    between atoms: C_18  and  C_19
REMARK    9  A    between atoms: C_22  and  N_23
REMARK   10  A    between atoms: C_22  and  C_27
REMARK   11  A    between atoms: C_27  and  C_28
REMARK   12  A    between atoms: C_33  and  O_34
REMARK                            x       y       z     vdW  Elec       q    Type
REMARK                         _______ _______ _______ _____ _____    ______ ____
ROOT
ATOM      1  O   UNL     1     -31.772  27.112   3.816  0.00  0.00    -0.277 OA
ATOM      2  N   UNL     1     -33.138  28.895   4.392  0.00  0.00    -0.300 N 
ATOM      3  C   UNL     1     -32.890  27.579   4.026  0.00  0.00    +0.202 C 
ATOM      4  H   UNL     1     -34.069  29.181   4.539  0.00  0.00    +0.150 HD
ENDROOT
BRANCH   2   5
ATOM      5  C   UNL     1     -32.081  29.858   4.561  0.00  0.00    +0.149 C 
ATOM      6  C   UNL     1     -31.855  30.169   6.033  0.00  0.00    +0.031 C 
BRANCH   5  10
ATOM      7  O   UNL     1     -31.687  32.069   3.650  0.00  0.00    -0.273 OA
ATOM      8  O   UNL     1     -33.803  33.073   2.112  0.00  0.00    -0.277 OA
ATOM      9  N   UNL     1     -33.730  31.027   3.229  0.00  0.00    -0.256 N 
ATOM     10  C   UNL     1     -32.453  31.117   3.789  0.00  0.00    +0.246 C 
ATOM     11  C   UNL     1     -34.323  32.007   2.428  0.00  0.00    +0.207 C 
ATOM     12  H   UNL     1     -34.250  30.212   3.411  0.00  0.00    +0.157 HD
BRANCH  11  13
ATOM     13  C   UNL     1     -35.711  31.583   1.989  0.00  0.00    +0.006 C 
BRANCH  13  14
ATOM     14  N   UNL     1     -36.443  32.749   1.516  0.00  0.00    +0.390 N 
ATOM     15  H   UNL     1     -36.056  33.586   1.951  0.00  0.00    -0.084 HD
ATOM     16  H   UNL     1     -36.353  32.800   0.501  0.00  0.00    -0.084 HD
BRANCH  14  17
ATOM     17  C   UNL     1     -37.857  32.649   1.852  0.00  0.00    -0.081 C 
BRANCH  17  18
ATOM     18  C   UNL     1     -38.619  33.849   1.287  0.00  0.00    -0.023 C 
BRANCH  18  19
ATOM     19  C   UNL     1     -38.270  35.178   1.984  0.00  0.00    -0.002 C 
ATOM     20  C   UNL     1     -39.406  35.690   2.870  0.00  0.00    -0.000 C 
ATOM     21  C   UNL     1     -37.915  36.236   0.937  0.00  0.00    -0.000 C 
ENDBRANCH  18  19
ENDBRANCH  17  18
ENDBRANCH  14  17
ENDBRANCH  13  14
ENDBRANCH  11  13
ENDBRANCH   5  10
ENDBRANCH   2   5
BRANCH   3  22
ATOM     22  C   UNL     1     -34.164  26.743   3.935  0.00  0.00    +0.017 C 
BRANCH  22  23
ATOM     23  N   UNL     1     -35.287  27.680   3.948  0.00  0.00    +0.388 N 
ATOM     24  H   UNL     1     -35.031  28.525   3.438  0.00  0.00    -0.089 HD
ATOM     25  H   UNL     1     -35.518  27.922   4.912  0.00  0.00    -0.089 HD
ATOM     26  H   UNL     1     -36.096  27.247   3.503  0.00  0.00    -0.089 HD
ENDBRANCH  22  23
BRANCH  22  27
ATOM     27  C   UNL     1     -34.272  25.783   5.130  0.00  0.00    +0.013 C 
BRANCH  27  28
ATOM     28  C   UNL     1     -34.710  24.394   4.728  0.00  0.00    -0.024 C 
ATOM     29  C   UNL     1     -34.869  24.074   3.380  0.00  0.00    -0.001 C 
ATOM     30  C   UNL     1     -34.955  23.430   5.707  0.00  0.00    -0.001 C 
ATOM     31  C   UNL     1     -35.273  22.792   3.009  0.00  0.00    +0.036 C 
ATOM     32  C   UNL     1     -35.358  22.147   5.337  0.00  0.00    +0.036 C 
ATOM     33  C   UNL     1     -35.518  21.828   3.988  0.00  0.00    +0.134 C 
BRANCH  33  34
ATOM     34  O   UNL     1     -35.911  20.577   3.627  0.00  0.00    -0.506 OA
ATOM     35  H   UNL     1     -35.952  20.342   2.720  0.00  0.00    +0.292 HD
ENDBRANCH  33  34
ENDBRANCH  27  28
ENDBRANCH  22  27
ENDBRANCH   3  22
TORSDOF 12
ENDMDL
MODEL 2
REMARK VINA RESULT:      -6.5      5.285      9.799
REMARK  Name = 57505363
REMARK  12 active torsions:
REMARK  status: ('A' for Active; 'I' for Inactive)
REMARK    1  A    between atoms: N_2  and  C_5
REMARK    2  A    between atoms: C_3  and  C_22
REMARK    3  A    between atoms: C_5  and  C_10
REMARK    4  A    between atoms: C_11  and  C_13
REMARK    5  A    between atoms: C_13  and  N_14
REMARK    6  A    between atoms: N_14  and  C_17
REMARK    7  A    between atoms: C_17  and  C_18
REMARK    8  A    between atoms: C_18  and  C_19
REMARK    9  A    between atoms: C_22  and  N_23
REMARK   10  A    between atoms: C_22  and  C_27
REMARK   11  A    between atoms: C_27  and  C_28
REMARK   12  A    between atoms: C_33  and  O_34
REMARK                            x       y       z     vdW  Elec       q    Type
REMARK                         _______ _______ _______ _____ _____    ______ ____
ROOT
ATOM      1  O   UNL     1     -37.212  27.075   1.600  0.00  0.00    -0.277 OA
ATOM      2  N   UNL     1     -38.000  25.307   2.876  0.00  0.00    -0.300 N 
ATOM      3  C   UNL     1     -37.108  26.326   2.569  0.00  0.00    +0.202 C 
ATOM      4  H   UNL     1     -37.836  24.755   3.674  0.00  0.00    +0.150 HD
ENDROOT
BRANCH   2   5
ATOM      5  C   UNL     1     -39.158  25.030   2.066  0.00  0.00    +0.149 C 
ATOM      6  C   UNL     1     -40.433  25.487   2.758  0.00  0.00    +0.031 C 
BRANCH   5  10
ATOM      7  O   UNL     1     -40.144  22.816   2.106  0.00  0.00    -0.273 OA
ATOM      8  O   UNL     1     -38.613  20.852   0.822  0.00  0.00    -0.277 OA
ATOM      9  N   UNL     1     -38.066  23.103   1.087  0.00  0.00    -0.256 N 
ATOM     10  C   UNL     1     -39.197  23.533   1.785  0.00  0.00    +0.246 C 
ATOM     11  C   UNL     1     -37.845  21.794   0.650  0.00  0.00    +0.207 C 
ATOM     12  H   UNL     1     -37.374  23.773   0.888  0.00  0.00    +0.157 HD
BRANCH  11  13
ATOM     13  C   UNL     1     -36.518  21.680  -0.075  0.00  0.00    +0.006 C 
BRANCH  13  14
ATOM     14  N   UNL     1     -35.913  20.392   0.228  0.00  0.00    +0.390 N 
ATOM     15  H   UNL     1     -36.388  19.981   1.032  0.00  0.00    -0.084 HD
ATOM     16  H   UNL     1     -36.006  19.788  -0.589  0.00  0.00    -0.084 HD
BRANCH  14  17
ATOM     17  C   UNL     1     -34.497  20.540   0.537  0.00  0.00    -0.081 C 
BRANCH  17  18
ATOM     18  C   UNL     1     -34.081  19.525   1.603  0.00  0.00    -0.023 C 
BRANCH  18  19
ATOM     19  C   UNL     1     -32.819  18.726   1.226  0.00  0.00    -0.002 C 
ATOM     20  C   UNL     1     -31.855  19.532   0.355  0.00  0.00    -0.000 C 
ATOM     21  C   UNL     1     -33.217  17.438   0.501  0.00  0.00    -0.000 C 
ENDBRANCH  18  19
ENDBRANCH  17  18
ENDBRANCH  14  17
ENDBRANCH  13  14
ENDBRANCH  11  13
ENDBRANCH   5  10
ENDBRANCH   2   5
BRANCH   3  22
ATOM     22  C   UNL     1     -35.977  26.444   3.586  0.00  0.00    +0.017 C 
BRANCH  22  23
ATOM     23  N   UNL     1     -35.463  27.811   3.490  0.00  0.00    +0.388 N 
ATOM     24  H   UNL     1     -35.677  28.316   4.350  0.00  0.00    -0.089 HD
ATOM     25  H   UNL     1     -35.902  28.285   2.700  0.00  0.00    -0.089 HD
ATOM     26  H   UNL     1     -34.453  27.786   3.353  0.00  0.00    -0.089 HD
ENDBRANCH  22  23
BRANCH  22  27
ATOM     27  C   UNL     1     -34.855  25.443   3.272  0.00  0.00    +0.013 C 
BRANCH  27  28
ATOM     28  C   UNL     1     -35.025  24.127   3.996  0.00  0.00    -0.024 C 
ATOM     29  C   UNL     1     -35.300  22.964   3.277  0.00  0.00    -0.001 C 
ATOM     30  C   UNL     1     -34.905  24.075   5.385  0.00  0.00    -0.001 C 
ATOM     31  C   UNL     1     -35.457  21.751   3.945  0.00  0.00    +0.036 C 
ATOM     32  C   UNL     1     -35.060  22.861   6.054  0.00  0.00    +0.036 C 
ATOM     33  C   UNL     1     -35.337  21.699   5.334  0.00  0.00    +0.134 C 
BRANCH  33  34
ATOM     34  O   UNL     1     -35.488  20.515   5.986  0.00  0.00    -0.506 OA
ATOM     35  H   UNL     1     -35.230  19.715   5.571  0.00  0.00    +0.292 HD
ENDBRANCH  33  34
ENDBRANCH  27  28
ENDBRANCH  22  27
ENDBRANCH   3  22
TORSDOF 12
ENDMDL
MODEL 3
REMARK VINA RESULT:      -6.4      1.727      2.640
REMARK  Name = 57505363
REMARK  12 active torsions:
REMARK  status: ('A' for Active; 'I' for Inactive)
REMARK    1  A    between atoms: N_2  and  C_5
REMARK    2  A    between atoms: C_3  and  C_22
REMARK    3  A    between atoms: C_5  and  C_10
REMARK    4  A    between atoms: C_11  and  C_13
REMARK    5  A    between atoms: C_13  and  N_14
REMARK    6  A    between atoms: N_14  and  C_17
REMARK    7  A    between atoms: C_17  and  C_18
REMARK    8  A    between atoms: C_18  and  C_19
REMARK    9  A    between atoms: C_22  and  N_23
REMARK   10  A    between atoms: C_22  and  C_27
REMARK   11  A    between atoms: C_27  and  C_28
REMARK   12  A    between atoms: C_33  and  O_34
REMARK                            x       y       z     vdW  Elec       q    Type
REMARK                         _______ _______ _______ _____ _____    ______ ____
ROOT
ATOM      1  O   UNL     1     -32.909  25.715   3.724  0.00  0.00    -0.277 OA
ATOM      2  N   UNL     1     -33.622  27.456   5.081  0.00  0.00    -0.300 N 
ATOM      3  C   UNL     1     -33.761  26.542   4.044  0.00  0.00    +0.202 C 
ATOM      4  H   UNL     1     -34.359  28.082   5.265  0.00  0.00    +0.150 HD
ENDROOT
BRANCH   2   5
ATOM      5  C   UNL     1     -32.436  27.519   5.895  0.00  0.00    +0.149 C 
ATOM      6  C   UNL     1     -32.725  27.068   7.318  0.00  0.00    +0.031 C 
BRANCH   5  10
ATOM      7  O   UNL     1     -31.185  29.412   6.745  0.00  0.00    -0.273 OA
ATOM      8  O   UNL     1     -31.248  31.671   5.090  0.00  0.00    -0.277 OA
ATOM      9  N   UNL     1     -32.330  29.637   4.728  0.00  0.00    -0.256 N 
ATOM     10  C   UNL     1     -31.917  28.951   5.872  0.00  0.00    +0.246 C 
ATOM     11  C   UNL     1     -31.972  30.950   4.409  0.00  0.00    +0.207 C 
ATOM     12  H   UNL     1     -32.918  29.160   4.099  0.00  0.00    +0.157 HD
BRANCH  11  13
ATOM     13  C   UNL     1     -32.596  31.380   3.096  0.00  0.00    +0.006 C 
BRANCH  13  14
ATOM     14  N   UNL     1     -34.045  31.314   3.207  0.00  0.00    +0.390 N 
ATOM     15  H   UNL     1     -34.328  30.340   3.313  0.00  0.00    -0.084 HD
ATOM     16  H   UNL     1     -34.334  31.860   4.019  0.00  0.00    -0.084 HD
BRANCH  14  17
ATOM     17  C   UNL     1     -34.685  31.869   2.023  0.00  0.00    -0.081 C 
BRANCH  17  18
ATOM     18  C   UNL     1     -36.198  31.652   2.090  0.00  0.00    -0.023 C 
BRANCH  18  19
ATOM     19  C   UNL     1     -36.988  32.543   1.111  0.00  0.00    -0.002 C 
ATOM     20  C   UNL     1     -36.400  33.950   0.997  0.00  0.00    -0.000 C 
ATOM     21  C   UNL     1     -38.451  32.628   1.552  0.00  0.00    -0.000 C 
ENDBRANCH  18  19
ENDBRANCH  17  18
ENDBRANCH  14  17
ENDBRANCH  13  14
ENDBRANCH  11  13
ENDBRANCH   5  10
ENDBRANCH   2   5
BRANCH   3  22
ATOM     22  C   UNL     1     -35.113  26.648   3.344  0.00  0.00    +0.017 C 
BRANCH  22  23
ATOM     23  N   UNL     1     -35.397  28.075   3.185  0.00  0.00    +0.388 N 
ATOM     24  H   UNL     1     -35.515  28.502   4.103  0.00  0.00    -0.089 HD
ATOM     25  H   UNL     1     -36.252  28.193   2.642  0.00  0.00    -0.089 HD
ATOM     26  H   UNL     1     -34.620  28.523   2.699  0.00  0.00    -0.089 HD
ENDBRANCH  22  23
BRANCH  22  27
ATOM     27  C   UNL     1     -36.216  25.987   4.184  0.00  0.00    +0.013 C 
BRANCH  27  28
ATOM     28  C   UNL     1     -35.913  24.545   4.518  0.00  0.00    -0.024 C 
ATOM     29  C   UNL     1     -35.963  23.571   3.520  0.00  0.00    -0.001 C 
ATOM     30  C   UNL     1     -35.584  24.186   5.826  0.00  0.00    -0.001 C 
ATOM     31  C   UNL     1     -35.684  22.241   3.829  0.00  0.00    +0.036 C 
ATOM     32  C   UNL     1     -35.304  22.855   6.135  0.00  0.00    +0.036 C 
ATOM     33  C   UNL     1     -35.355  21.882   5.136  0.00  0.00    +0.134 C 
BRANCH  33  34
ATOM     34  O   UNL     1     -35.082  20.584   5.437  0.00  0.00    -0.506 OA
ATOM     35  H   UNL     1     -35.780  19.995   5.651  0.00  0.00    +0.292 HD
ENDBRANCH  33  34
ENDBRANCH  27  28
ENDBRANCH  22  27
ENDBRANCH   3  22
TORSDOF 12
ENDMDL
MODEL 4
REMARK VINA RESULT:      -6.4      4.585      7.446
REMARK  Name = 57505363
REMARK  12 active torsions:
REMARK  status: ('A' for Active; 'I' for Inactive)
REMARK    1  A    between atoms: N_2  and  C_5
REMARK    2  A    between atoms: C_3  and  C_22
REMARK    3  A    between atoms: C_5  and  C_10
REMARK    4  A    between atoms: C_11  and  C_13
REMARK    5  A    between atoms: C_13  and  N_14
REMARK    6  A    between atoms: N_14  and  C_17
REMARK    7  A    between atoms: C_17  and  C_18
REMARK    8  A    between atoms: C_18  and  C_19
REMARK    9  A    between atoms: C_22  and  N_23
REMARK   10  A    between atoms: C_22  and  C_27
REMARK   11  A    between atoms: C_27  and  C_28
REMARK   12  A    between atoms: C_33  and  O_34
REMARK                            x       y       z     vdW  Elec       q    Type
REMARK                         _______ _______ _______ _____ _____    ______ ____
ROOT
ATOM      1  O   UNL     1     -34.850  23.058   2.300  0.00  0.00    -0.277 OA
ATOM      2  N   UNL     1     -35.776  21.805   4.018  0.00  0.00    -0.300 N 
ATOM      3  C   UNL     1     -35.568  22.137   2.686  0.00  0.00    +0.202 C 
ATOM      4  H   UNL     1     -36.370  21.050   4.233  0.00  0.00    +0.150 HD
ENDROOT
BRANCH   2   5
ATOM      5  C   UNL     1     -35.154  22.529   5.096  0.00  0.00    +0.149 C 
ATOM      6  C   UNL     1     -35.509  21.918   6.442  0.00  0.00    +0.031 C 
BRANCH   5  10
ATOM      7  O   UNL     1     -36.790  24.315   5.029  0.00  0.00    -0.273 OA
ATOM      8  O   UNL     1     -35.684  26.888   4.972  0.00  0.00    -0.277 OA
ATOM      9  N   UNL     1     -34.525  24.864   4.992  0.00  0.00    -0.256 N 
ATOM     10  C   UNL     1     -35.607  23.981   5.020  0.00  0.00    +0.246 C 
ATOM     11  C   UNL     1     -34.630  26.258   4.970  0.00  0.00    +0.207 C 
ATOM     12  H   UNL     1     -33.621  24.476   4.988  0.00  0.00    +0.157 HD
BRANCH  11  13
ATOM     13  C   UNL     1     -33.260  26.906   4.944  0.00  0.00    +0.006 C 
BRANCH  13  14
ATOM     14  N   UNL     1     -32.917  27.361   6.284  0.00  0.00    +0.390 N 
ATOM     15  H   UNL     1     -33.629  28.016   6.606  0.00  0.00    -0.084 HD
ATOM     16  H   UNL     1     -32.871  26.550   6.901  0.00  0.00    -0.084 HD
BRANCH  14  17
ATOM     17  C   UNL     1     -31.621  28.025   6.293  0.00  0.00    -0.081 C 
BRANCH  17  18
ATOM     18  C   UNL     1     -31.790  29.506   6.637  0.00  0.00    -0.023 C 
BRANCH  18  19
ATOM     19  C   UNL     1     -31.388  30.450   5.487  0.00  0.00    -0.002 C 
ATOM     20  C   UNL     1     -32.526  30.676   4.491  0.00  0.00    -0.000 C 
ATOM     21  C   UNL     1     -30.166  29.887   4.757  0.00  0.00    -0.000 C 
ENDBRANCH  18  19
ENDBRANCH  17  18
ENDBRANCH  14  17
ENDBRANCH  13  14
ENDBRANCH  11  13
ENDBRANCH   5  10
ENDBRANCH   2   5
BRANCH   3  22
ATOM     22  C   UNL     1     -36.311  21.211   1.725  0.00  0.00    +0.017 C 
BRANCH  22  23
ATOM     23  N   UNL     1     -37.687  21.111   2.214  0.00  0.00    +0.388 N 
ATOM     24  H   UNL     1     -38.257  20.619   1.527  0.00  0.00    -0.089 HD
ATOM     25  H   UNL     1     -38.064  22.048   2.360  0.00  0.00    -0.089 HD
ATOM     26  H   UNL     1     -37.698  20.599   3.096  0.00  0.00    -0.089 HD
ENDBRANCH  22  23
BRANCH  22  27
ATOM     27  C   UNL     1     -35.664  19.819   1.701  0.00  0.00    +0.013 C 
BRANCH  27  28
ATOM     28  C   UNL     1     -34.267  19.831   1.124  0.00  0.00    -0.024 C 
ATOM     29  C   UNL     1     -33.338  18.868   1.520  0.00  0.00    -0.001 C 
ATOM     30  C   UNL     1     -33.906  20.807   0.194  0.00  0.00    -0.001 C 
ATOM     31  C   UNL     1     -32.051  18.880   0.988  0.00  0.00    +0.036 C 
ATOM     32  C   UNL     1     -32.617  20.818  -0.340  0.00  0.00    +0.036 C 
ATOM     33  C   UNL     1     -31.689  19.856   0.058  0.00  0.00    +0.134 C 
BRANCH  33  34
ATOM     34  O   UNL     1     -30.432  19.867  -0.463  0.00  0.00    -0.506 OA
ATOM     35  H   UNL     1     -30.245  20.381  -1.224  0.00  0.00    +0.292 HD
ENDBRANCH  33  34
ENDBRANCH  27  28
ENDBRANCH  22  27
ENDBRANCH   3  22
TORSDOF 12
ENDMDL
MODEL 5
REMARK VINA RESULT:      -6.3      5.300     10.622
REMARK  Name = 57505363
REMARK  12 active torsions:
REMARK  status: ('A' for Active; 'I' for Inactive)
REMARK    1  A    between atoms: N_2  and  C_5
REMARK    2  A    between atoms: C_3  and  C_22
REMARK    3  A    between atoms: C_5  and  C_10
REMARK    4  A    between atoms: C_11  and  C_13
REMARK    5  A    between atoms: C_13  and  N_14
REMARK    6  A    between atoms: N_14  and  C_17
REMARK    7  A    between atoms: C_17  and  C_18
REMARK    8  A    between atoms: C_18  and  C_19
REMARK    9  A    between atoms: C_22  and  N_23
REMARK   10  A    between atoms: C_22  and  C_27
REMARK   11  A    between atoms: C_27  and  C_28
REMARK   12  A    between atoms: C_33  and  O_34
REMARK                            x       y       z     vdW  Elec       q    Type
REMARK                         _______ _______ _______ _____ _____    ______ ____
ROOT
ATOM      1  O   UNL     1     -35.994  23.001   5.854  0.00  0.00    -0.277 OA
ATOM      2  N   UNL     1     -36.499  23.321   3.614  0.00  0.00    -0.300 N 
ATOM      3  C   UNL     1     -36.158  23.747   4.890  0.00  0.00    +0.202 C 
ATOM      4  H   UNL     1     -36.609  23.991   2.901  0.00  0.00    +0.150 HD
ENDROOT
BRANCH   2   5
ATOM      5  C   UNL     1     -36.697  21.930   3.295  0.00  0.00    +0.149 C 
ATOM      6  C   UNL     1     -35.385  21.266   2.907  0.00  0.00    +0.031 C 
BRANCH   5  10
ATOM      7  O   UNL     1     -38.546  22.714   1.939  0.00  0.00    -0.273 OA
ATOM      8  O   UNL     1     -39.194  21.033  -0.206  0.00  0.00    -0.277 OA
ATOM      9  N   UNL     1     -37.535  20.685   1.396  0.00  0.00    -0.256 N 
ATOM     10  C   UNL     1     -37.711  21.840   2.162  0.00  0.00    +0.246 C 
ATOM     11  C   UNL     1     -38.285  20.354   0.264  0.00  0.00    +0.207 C 
ATOM     12  H   UNL     1     -36.831  20.058   1.675  0.00  0.00    +0.157 HD
BRANCH  11  13
ATOM     13  C   UNL     1     -37.829  19.033  -0.324  0.00  0.00    +0.006 C 
BRANCH  13  14
ATOM     14  N   UNL     1     -36.758  18.486   0.496  0.00  0.00    +0.390 N 
ATOM     15  H   UNL     1     -36.536  19.148   1.240  0.00  0.00    -0.084 HD
ATOM     16  H   UNL     1     -37.069  17.599   0.889  0.00  0.00    -0.084 HD
BRANCH  14  17
ATOM     17  C   UNL     1     -35.562  18.247  -0.300  0.00  0.00    -0.081 C 
BRANCH  17  18
ATOM     18  C   UNL     1     -34.635  19.463  -0.238  0.00  0.00    -0.023 C 
BRANCH  18  19
ATOM     19  C   UNL     1     -33.180  19.104   0.122  0.00  0.00    -0.002 C 
ATOM     20  C   UNL     1     -33.070  18.393   1.471  0.00  0.00    -0.000 C 
ATOM     21  C   UNL     1     -32.320  20.370   0.134  0.00  0.00    -0.000 C 
ENDBRANCH  18  19
ENDBRANCH  17  18
ENDBRANCH  14  17
ENDBRANCH  13  14
ENDBRANCH  11  13
ENDBRANCH   5  10
ENDBRANCH   2   5
BRANCH   3  22
ATOM     22  C   UNL     1     -35.976  25.260   4.977  0.00  0.00    +0.017 C 
BRANCH  22  23
ATOM     23  N   UNL     1     -37.204  25.864   4.459  0.00  0.00    +0.388 N 
ATOM     24  H   UNL     1     -37.692  26.344   5.214  0.00  0.00    -0.089 HD
ATOM     25  H   UNL     1     -37.806  25.135   4.075  0.00  0.00    -0.089 HD
ATOM     26  H   UNL     1     -36.970  26.533   3.725  0.00  0.00    -0.089 HD
ENDBRANCH  22  23
BRANCH  22  27
ATOM     27  C   UNL     1     -34.775  25.713   4.133  0.00  0.00    +0.013 C 
BRANCH  27  28
ATOM     28  C   UNL     1     -33.796  26.558   4.914  0.00  0.00    -0.024 C 
ATOM     29  C   UNL     1     -33.644  26.364   6.287  0.00  0.00    -0.001 C 
ATOM     30  C   UNL     1     -33.042  27.534   4.261  0.00  0.00    -0.001 C 
ATOM     31  C   UNL     1     -32.741  27.144   7.007  0.00  0.00    +0.036 C 
ATOM     32  C   UNL     1     -32.137  28.314   4.981  0.00  0.00    +0.036 C 
ATOM     33  C   UNL     1     -31.987  28.120   6.354  0.00  0.00    +0.134 C 
BRANCH  33  34
ATOM     34  O   UNL     1     -31.105  28.881   7.056  0.00  0.00    -0.506 OA
ATOM     35  H   UNL     1     -31.197  29.814   7.069  0.00  0.00    +0.292 HD
ENDBRANCH  33  34
ENDBRANCH  27  28
ENDBRANCH  22  27
ENDBRANCH   3  22
TORSDOF 12
ENDMDL
MODEL 6
REMARK VINA RESULT:      -6.3      2.651      3.308
REMARK  Name = 57505363
REMARK  12 active torsions:
REMARK  status: ('A' for Active; 'I' for Inactive)
REMARK    1  A    between atoms: N_2  and  C_5
REMARK    2  A    between atoms: C_3  and  C_22
REMARK    3  A    between atoms: C_5  and  C_10
REMARK    4  A    between atoms: C_11  and  C_13
REMARK    5  A    between atoms: C_13  and  N_14
REMARK    6  A    between atoms: N_14  and  C_17
REMARK    7  A    between atoms: C_17  and  C_18
REMARK    8  A    between atoms: C_18  and  C_19
REMARK    9  A    between atoms: C_22  and  N_23
REMARK   10  A    between atoms: C_22  and  C_27
REMARK   11  A    between atoms: C_27  and  C_28
REMARK   12  A    between atoms: C_33  and  O_34
REMARK                            x       y       z     vdW  Elec       q    Type
REMARK                         _______ _______ _______ _____ _____    ______ ____
ROOT
ATOM      1  O   UNL     1     -32.946  25.725   3.389  0.00  0.00    -0.277 OA
ATOM      2  N   UNL     1     -33.696  27.374   4.836  0.00  0.00    -0.300 N 
ATOM      3  C   UNL     1     -33.820  26.505   3.760  0.00  0.00    +0.202 C 
ATOM      4  H   UNL     1     -34.451  27.965   5.061  0.00  0.00    +0.150 HD
ENDROOT
BRANCH   2   5
ATOM      5  C   UNL     1     -32.500  27.442   5.635  0.00  0.00    +0.149 C 
ATOM      6  C   UNL     1     -32.785  27.067   7.081  0.00  0.00    +0.031 C 
BRANCH   5  10
ATOM      7  O   UNL     1     -30.984  29.245   6.207  0.00  0.00    -0.273 OA
ATOM      8  O   UNL     1     -31.377  31.591   4.727  0.00  0.00    -0.277 OA
ATOM      9  N   UNL     1     -32.607  29.616   4.575  0.00  0.00    -0.256 N 
ATOM     10  C   UNL     1     -31.940  28.855   5.538  0.00  0.00    +0.246 C 
ATOM     11  C   UNL     1     -32.286  30.932   4.231  0.00  0.00    +0.207 C 
ATOM     12  H   UNL     1     -33.360  29.193   4.104  0.00  0.00    +0.157 HD
BRANCH  11  13
ATOM     13  C   UNL     1     -33.212  31.452   3.149  0.00  0.00    +0.006 C 
BRANCH  13  14
ATOM     14  N   UNL     1     -32.477  31.561   1.898  0.00  0.00    +0.390 N 
ATOM     15  H   UNL     1     -31.500  31.316   2.062  0.00  0.00    -0.084 HD
ATOM     16  H   UNL     1     -32.895  30.927   1.218  0.00  0.00    -0.084 HD
BRANCH  14  17
ATOM     17  C   UNL     1     -32.545  32.917   1.369  0.00  0.00    -0.081 C 
BRANCH  17  18
ATOM     18  C   UNL     1     -33.764  33.645   1.939  0.00  0.00    -0.023 C 
BRANCH  18  19
ATOM     19  C   UNL     1     -33.485  35.117   2.297  0.00  0.00    -0.002 C 
ATOM     20  C   UNL     1     -33.549  36.038   1.078  0.00  0.00    -0.000 C 
ATOM     21  C   UNL     1     -32.112  35.238   2.964  0.00  0.00    -0.000 C 
ENDBRANCH  18  19
ENDBRANCH  17  18
ENDBRANCH  14  17
ENDBRANCH  13  14
ENDBRANCH  11  13
ENDBRANCH   5  10
ENDBRANCH   2   5
BRANCH   3  22
ATOM     22  C   UNL     1     -35.187  26.596   3.086  0.00  0.00    +0.017 C 
BRANCH  22  23
ATOM     23  N   UNL     1     -35.465  28.018   2.883  0.00  0.00    +0.388 N 
ATOM     24  H   UNL     1     -34.815  28.574   3.438  0.00  0.00    -0.089 HD
ATOM     25  H   UNL     1     -36.422  28.222   3.175  0.00  0.00    -0.089 HD
ATOM     26  H   UNL     1     -35.354  28.249   1.896  0.00  0.00    -0.089 HD
ENDBRANCH  22  23
BRANCH  22  27
ATOM     27  C   UNL     1     -36.274  25.972   3.973  0.00  0.00    +0.013 C 
BRANCH  27  28
ATOM     28  C   UNL     1     -35.963  24.548   4.369  0.00  0.00    -0.024 C 
ATOM     29  C   UNL     1     -35.563  24.256   5.673  0.00  0.00    -0.001 C 
ATOM     30  C   UNL     1     -36.075  23.522   3.428  0.00  0.00    -0.001 C 
ATOM     31  C   UNL     1     -35.275  22.941   6.037  0.00  0.00    +0.036 C 
ATOM     32  C   UNL     1     -35.789  22.207   3.793  0.00  0.00    +0.036 C 
ATOM     33  C   UNL     1     -35.388  21.916   5.097  0.00  0.00    +0.134 C 
BRANCH  33  34
ATOM     34  O   UNL     1     -35.108  20.633   5.453  0.00  0.00    -0.506 OA
ATOM     35  H   UNL     1     -35.189  19.944   4.822  0.00  0.00    +0.292 HD
ENDBRANCH  33  34
ENDBRANCH  27  28
ENDBRANCH  22  27
ENDBRANCH   3  22
TORSDOF 12
ENDMDL
MODEL 7
REMARK VINA RESULT:      -6.3      4.871      8.187
REMARK  Name = 57505363
REMARK  12 active torsions:
REMARK  status: ('A' for Active; 'I' for Inactive)
REMARK    1  A    between atoms: N_2  and  C_5
REMARK    2  A    between atoms: C_3  and  C_22
REMARK    3  A    between atoms: C_5  and  C_10
REMARK    4  A    between atoms: C_11  and  C_13
REMARK    5  A    between atoms: C_13  and  N_14
REMARK    6  A    between atoms: N_14  and  C_17
REMARK    7  A    between atoms: C_17  and  C_18
REMARK    8  A    between atoms: C_18  and  C_19
REMARK    9  A    between atoms: C_22  and  N_23
REMARK   10  A    between atoms: C_22  and  C_27
REMARK   11  A    between atoms: C_27  and  C_28
REMARK   12  A    between atoms: C_33  and  O_34
REMARK                            x       y       z     vdW  Elec       q    Type
REMARK                         _______ _______ _______ _____ _____    ______ ____
ROOT
ATOM      1  O   UNL     1     -37.591  24.768   4.429  0.00  0.00    -0.277 OA
ATOM      2  N   UNL     1     -35.442  23.951   4.732  0.00  0.00    -0.300 N 
ATOM      3  C   UNL     1     -36.373  24.942   4.449  0.00  0.00    +0.202 C 
ATOM      4  H   UNL     1     -34.484  24.183   4.725  0.00  0.00    +0.150 HD
ENDROOT
BRANCH   2   5
ATOM      5  C   UNL     1     -35.827  22.598   5.034  0.00  0.00    +0.149 C 
ATOM      6  C   UNL     1     -34.748  21.887   5.835  0.00  0.00    +0.031 C 
BRANCH   5  10
ATOM      7  O   UNL     1     -35.286  21.113   3.197  0.00  0.00    -0.273 OA
ATOM      8  O   UNL     1     -37.353  20.787   1.333  0.00  0.00    -0.277 OA
ATOM      9  N   UNL     1     -37.377  22.142   3.231  0.00  0.00    -0.256 N 
ATOM     10  C   UNL     1     -36.097  21.873   3.721  0.00  0.00    +0.246 C 
ATOM     11  C   UNL     1     -37.924  21.584   2.072  0.00  0.00    +0.207 C 
ATOM     12  H   UNL     1     -37.936  22.771   3.741  0.00  0.00    +0.157 HD
BRANCH  11  13
ATOM     13  C   UNL     1     -39.333  22.093   1.836  0.00  0.00    +0.006 C 
BRANCH  13  14
ATOM     14  N   UNL     1     -39.452  23.444   2.364  0.00  0.00    +0.390 N 
ATOM     15  H   UNL     1     -40.159  23.454   3.099  0.00  0.00    -0.084 HD
ATOM     16  H   UNL     1     -38.546  23.729   2.735  0.00  0.00    -0.084 HD
BRANCH  14  17
ATOM     17  C   UNL     1     -39.839  24.380   1.317  0.00  0.00    -0.081 C 
BRANCH  17  18
ATOM     18  C   UNL     1     -39.803  25.813   1.852  0.00  0.00    -0.023 C 
BRANCH  18  19
ATOM     19  C   UNL     1     -41.203  26.406   2.105  0.00  0.00    -0.002 C 
ATOM     20  C   UNL     1     -41.512  26.561   3.595  0.00  0.00    -0.000 C 
ATOM     21  C   UNL     1     -42.267  25.525   1.446  0.00  0.00    -0.000 C 
ENDBRANCH  18  19
ENDBRANCH  17  18
ENDBRANCH  14  17
ENDBRANCH  13  14
ENDBRANCH  11  13
ENDBRANCH   5  10
ENDBRANCH   2   5
BRANCH   3  22
ATOM     22  C   UNL     1     -35.728  26.300   4.187  0.00  0.00    +0.017 C 
BRANCH  22  23
ATOM     23  N   UNL     1     -36.398  26.867   3.016  0.00  0.00    +0.388 N 
ATOM     24  H   UNL     1     -35.765  26.844   2.218  0.00  0.00    -0.089 HD
ATOM     25  H   UNL     1     -36.664  27.833   3.211  0.00  0.00    -0.089 HD
ATOM     26  H   UNL     1     -37.233  26.321   2.805  0.00  0.00    -0.089 HD
ENDBRANCH  22  23
BRANCH  22  27
ATOM     27  C   UNL     1     -34.227  26.144   3.904  0.00  0.00    +0.013 C 
BRANCH  27  28
ATOM     28  C   UNL     1     -33.367  26.971   4.831  0.00  0.00    -0.024 C 
ATOM     29  C   UNL     1     -32.642  28.054   4.331  0.00  0.00    -0.001 C 
ATOM     30  C   UNL     1     -33.297  26.653   6.188  0.00  0.00    -0.001 C 
ATOM     31  C   UNL     1     -31.848  28.817   5.186  0.00  0.00    +0.036 C 
ATOM     32  C   UNL     1     -32.504  27.417   7.044  0.00  0.00    +0.036 C 
ATOM     33  C   UNL     1     -31.779  28.499   6.543  0.00  0.00    +0.134 C 
BRANCH  33  34
ATOM     34  O   UNL     1     -31.005  29.244   7.378  0.00  0.00    -0.506 OA
ATOM     35  H   UNL     1     -30.104  29.396   7.170  0.00  0.00    +0.292 HD
ENDBRANCH  33  34
ENDBRANCH  27  28
ENDBRANCH  22  27
ENDBRANCH   3  22
TORSDOF 12
ENDMDL
MODEL 8
REMARK VINA RESULT:      -6.3      4.421      7.327
REMARK  Name = 57505363
REMARK  12 active torsions:
REMARK  status: ('A' for Active; 'I' for Inactive)
REMARK    1  A    between atoms: N_2  and  C_5
REMARK    2  A    between atoms: C_3  and  C_22
REMARK    3  A    between atoms: C_5  and  C_10
REMARK    4  A    between atoms: C_11  and  C_13
REMARK    5  A    between atoms: C_13  and  N_14
REMARK    6  A    between atoms: N_14  and  C_17
REMARK    7  A    between atoms: C_17  and  C_18
REMARK    8  A    between atoms: C_18  and  C_19
REMARK    9  A    between atoms: C_22  and  N_23
REMARK   10  A    between atoms: C_22  and  C_27
REMARK   11  A    between atoms: C_27  and  C_28
REMARK   12  A    between atoms: C_33  and  O_34
REMARK                            x       y       z     vdW  Elec       q    Type
REMARK                         _______ _______ _______ _____ _____    ______ ____
ROOT
ATOM      1  O   UNL     1     -34.879  21.627   2.094  0.00  0.00    -0.277 OA
ATOM      2  N   UNL     1     -36.241  21.820   3.960  0.00  0.00    -0.300 N 
ATOM      3  C   UNL     1     -35.956  21.439   2.656  0.00  0.00    +0.202 C 
ATOM      4  H   UNL     1     -37.134  21.628   4.328  0.00  0.00    +0.150 HD
ENDROOT
BRANCH   2   5
ATOM      5  C   UNL     1     -35.275  22.486   4.795  0.00  0.00    +0.149 C 
ATOM      6  C   UNL     1     -35.223  21.860   6.179  0.00  0.00    +0.031 C 
BRANCH   5  10
ATOM      7  O   UNL     1     -36.814  24.352   4.954  0.00  0.00    -0.273 OA
ATOM      8  O   UNL     1     -35.571  26.857   5.117  0.00  0.00    -0.277 OA
ATOM      9  N   UNL     1     -34.524  24.785   4.902  0.00  0.00    -0.256 N 
ATOM     10  C   UNL     1     -35.651  23.960   4.876  0.00  0.00    +0.246 C 
ATOM     11  C   UNL     1     -34.554  26.178   5.021  0.00  0.00    +0.207 C 
ATOM     12  H   UNL     1     -33.643  24.353   4.832  0.00  0.00    +0.157 HD
BRANCH  11  13
ATOM     13  C   UNL     1     -33.151  26.754   5.017  0.00  0.00    +0.006 C 
BRANCH  13  14
ATOM     14  N   UNL     1     -32.919  27.463   6.266  0.00  0.00    +0.390 N 
ATOM     15  H   UNL     1     -33.658  28.153   6.400  0.00  0.00    -0.084 HD
ATOM     16  H   UNL     1     -32.918  26.787   7.029  0.00  0.00    -0.084 HD
BRANCH  14  17
ATOM     17  C   UNL     1     -31.631  28.143   6.247  0.00  0.00    -0.081 C 
BRANCH  17  18
ATOM     18  C   UNL     1     -31.836  29.659   6.202  0.00  0.00    -0.023 C 
BRANCH  18  19
ATOM     19  C   UNL     1     -31.571  30.270   4.812  0.00  0.00    -0.002 C 
ATOM     20  C   UNL     1     -30.688  31.516   4.880  0.00  0.00    -0.000 C 
ATOM     21  C   UNL     1     -32.899  30.614   4.134  0.00  0.00    -0.000 C 
ENDBRANCH  18  19
ENDBRANCH  17  18
ENDBRANCH  14  17
ENDBRANCH  13  14
ENDBRANCH  11  13
ENDBRANCH   5  10
ENDBRANCH   2   5
BRANCH   3  22
ATOM     22  C   UNL     1     -37.125  20.726   1.982  0.00  0.00    +0.017 C 
BRANCH  22  23
ATOM     23  N   UNL     1     -36.576  19.539   1.326  0.00  0.00    +0.388 N 
ATOM     24  H   UNL     1     -37.173  19.276   0.542  0.00  0.00    -0.089 HD
ATOM     25  H   UNL     1     -36.533  18.770   1.994  0.00  0.00    -0.089 HD
ATOM     26  H   UNL     1     -35.637  19.744   0.983  0.00  0.00    -0.089 HD
ENDBRANCH  22  23
BRANCH  22  27
ATOM     27  C   UNL     1     -37.790  21.637   0.939  0.00  0.00    +0.013 C 
BRANCH  27  28
ATOM     28  C   UNL     1     -38.234  22.962   1.516  0.00  0.00    -0.024 C 
ATOM     29  C   UNL     1     -37.532  24.128   1.208  0.00  0.00    -0.001 C 
ATOM     30  C   UNL     1     -39.346  23.019   2.357  0.00  0.00    -0.001 C 
ATOM     31  C   UNL     1     -37.941  25.349   1.740  0.00  0.00    +0.036 C 
ATOM     32  C   UNL     1     -39.756  24.241   2.889  0.00  0.00    +0.036 C 
ATOM     33  C   UNL     1     -39.053  25.407   2.582  0.00  0.00    +0.134 C 
BRANCH  33  34
ATOM     34  O   UNL     1     -39.453  26.599   3.100  0.00  0.00    -0.506 OA
ATOM     35  H   UNL     1     -39.392  26.753   4.023  0.00  0.00    +0.292 HD
ENDBRANCH  33  34
ENDBRANCH  27  28
ENDBRANCH  22  27
ENDBRANCH   3  22
TORSDOF 12
ENDMDL
MODEL 9
REMARK VINA RESULT:      -6.3      5.965      8.893
REMARK  Name = 57505363
REMARK  12 active torsions:
REMARK  status: ('A' for Active; 'I' for Inactive)
REMARK    1  A    between atoms: N_2  and  C_5
REMARK    2  A    between atoms: C_3  and  C_22
REMARK    3  A    between atoms: C_5  and  C_10
REMARK    4  A    between atoms: C_11  and  C_13
REMARK    5  A    between atoms: C_13  and  N_14
REMARK    6  A    between atoms: N_14  and  C_17
REMARK    7  A    between atoms: C_17  and  C_18
REMARK    8  A    between atoms: C_18  and  C_19
REMARK    9  A    between atoms: C_22  and  N_23
REMARK   10  A    between atoms: C_22  and  C_27
REMARK   11  A    between atoms: C_27  and  C_28
REMARK   12  A    between atoms: C_33  and  O_34
REMARK                            x       y       z     vdW  Elec       q    Type
REMARK                         _______ _______ _______ _____ _____    ______ ____
ROOT
ATOM      1  O   UNL     1     -37.001  20.881  -1.295  0.00  0.00    -0.277 OA
ATOM      2  N   UNL     1     -35.844  22.120   0.287  0.00  0.00    -0.300 N 
ATOM      3  C   UNL     1     -36.305  20.941  -0.283  0.00  0.00    +0.202 C 
ATOM      4  H   UNL     1     -35.291  22.071   1.100  0.00  0.00    +0.150 HD
ENDROOT
BRANCH   2   5
ATOM      5  C   UNL     1     -36.149  23.413  -0.269  0.00  0.00    +0.149 C 
ATOM      6  C   UNL     1     -34.893  24.259  -0.407  0.00  0.00    +0.031 C 
BRANCH   5  10
ATOM      7  O   UNL     1     -38.382  23.935   0.514  0.00  0.00    -0.273 OA
ATOM      8  O   UNL     1     -38.451  25.597   2.768  0.00  0.00    -0.277 OA
ATOM      9  N   UNL     1     -36.555  24.862   1.626  0.00  0.00    -0.256 N 
ATOM     10  C   UNL     1     -37.169  24.093   0.635  0.00  0.00    +0.246 C 
ATOM     11  C   UNL     1     -37.232  25.564   2.628  0.00  0.00    +0.207 C 
ATOM     12  H   UNL     1     -35.573  24.913   1.619  0.00  0.00    +0.157 HD
BRANCH  11  13
ATOM     13  C   UNL     1     -36.259  26.290   3.536  0.00  0.00    +0.006 C 
BRANCH  13  14
ATOM     14  N   UNL     1     -36.588  26.000   4.924  0.00  0.00    +0.390 N 
ATOM     15  H   UNL     1     -37.044  26.815   5.335  0.00  0.00    -0.084 HD
ATOM     16  H   UNL     1     -37.209  25.192   4.949  0.00  0.00    -0.084 HD
BRANCH  14  17
ATOM     17  C   UNL     1     -35.389  25.689   5.691  0.00  0.00    -0.081 C 
BRANCH  17  18
ATOM     18  C   UNL     1     -34.777  24.375   5.202  0.00  0.00    -0.023 C 
BRANCH  18  19
ATOM     19  C   UNL     1     -35.709  23.161   5.387  0.00  0.00    -0.002 C 
ATOM     20  C   UNL     1     -35.201  22.191   6.454  0.00  0.00    -0.000 C 
ATOM     21  C   UNL     1     -35.874  22.425   4.055  0.00  0.00    -0.000 C 
ENDBRANCH  18  19
ENDBRANCH  17  18
ENDBRANCH  14  17
ENDBRANCH  13  14
ENDBRANCH  11  13
ENDBRANCH   5  10
ENDBRANCH   2   5
BRANCH   3  22
ATOM     22  C   UNL     1     -35.831  19.699   0.467  0.00  0.00    +0.017 C 
BRANCH  22  23
ATOM     23  N   UNL     1     -36.998  19.154   1.163  0.00  0.00    +0.388 N 
ATOM     24  H   UNL     1     -36.900  18.144   1.251  0.00  0.00    -0.089 HD
ATOM     25  H   UNL     1     -37.841  19.369   0.631  0.00  0.00    -0.089 HD
ATOM     26  H   UNL     1     -37.065  19.572   2.091  0.00  0.00    -0.089 HD
ENDBRANCH  22  23
BRANCH  22  27
ATOM     27  C   UNL     1     -34.739  20.062   1.485  0.00  0.00    +0.013 C 
BRANCH  27  28
ATOM     28  C   UNL     1     -33.361  19.622   1.049  0.00  0.00    -0.024 C 
ATOM     29  C   UNL     1     -32.586  20.453   0.240  0.00  0.00    -0.001 C 
ATOM     30  C   UNL     1     -32.863  18.383   1.455  0.00  0.00    -0.001 C 
ATOM     31  C   UNL     1     -31.315  20.047  -0.162  0.00  0.00    +0.036 C 
ATOM     32  C   UNL     1     -31.591  17.977   1.054  0.00  0.00    +0.036 C 
ATOM     33  C   UNL     1     -30.817  18.809   0.244  0.00  0.00    +0.134 C 
BRANCH  33  34
ATOM     34  O   UNL     1     -29.576  18.412  -0.148  0.00  0.00    -0.506 OA
ATOM     35  H   UNL     1     -28.825  18.658   0.356  0.00  0.00    +0.292 HD
ENDBRANCH  33  34
ENDBRANCH  27  28
ENDBRANCH  22  27
ENDBRANCH   3  22
TORSDOF 12
ENDMDL
