MODEL 1
REMARK VINA RESULT:      -6.3      0.000      0.000
REMARK  Name = 5153
REMARK  6 active torsions:
REMARK  status: ('A' for Active; 'I' for Inactive)
REMARK    1  A    between atoms: N_1  and  C1*_11
REMARK    2  A    between atoms: C_7  and  C_24
REMARK    3  A    between atoms: C2*_12  and  O2*_15
REMARK    4  A    between atoms: C3*_13  and  O3*_17
REMARK    5  A    between atoms: C4*_14  and  C5*_19
REMARK    6  A    between atoms: C5*_19  and  O5*_20
REMARK                            x       y       z     vdW  Elec       q    Type
REMARK                         _______ _______ _______ _____ _____    ______ ____
ROOT
ATOM      1  N   UNL     1     -38.003  24.453   3.078  0.00  0.00    -0.250 N 
ATOM      2  N   UNL     1     -39.456  26.307   2.554  0.00  0.00    -0.233 NA
ATOM      3  N   UNL     1     -41.383  25.657   1.215  0.00  0.00    -0.234 NA
ATOM      4  C   UNL     1     -39.116  25.006   2.497  0.00  0.00    +0.122 C 
ATOM      5  C   UNL     1     -37.978  23.106   2.815  0.00  0.00    +0.069 C 
ATOM      6  C   UNL     1     -39.814  23.993   1.851  0.00  0.00    +0.135 C 
ATOM      7  C   UNL     1     -39.086  22.794   2.058  0.00  0.00    +0.059 C 
ATOM      8  C   UNL     1     -40.986  24.363   1.194  0.00  0.00    +0.110 C 
ATOM      9  C   UNL     1     -40.604  26.536   1.884  0.00  0.00    +0.252 C 
ATOM     10  N   UNL     1     -41.766  23.411   0.511  0.00  0.00    -0.346 N 
ATOM     11  H   UNL     1     -42.591  23.689   0.052  0.00  0.00    +0.143 HD
ATOM     12  H   UNL     1     -41.485  22.468   0.491  0.00  0.00    +0.143 HD
ENDROOT
BRANCH   1  14
ATOM     13  O4* UNL     1     -36.867  24.564   5.153  0.00  0.00    -0.333 OA
ATOM     14  C1* UNL     1     -36.999  25.173   3.855  0.00  0.00    +0.227 C 
ATOM     15  C2* UNL     1     -35.612  25.172   3.230  0.00  0.00    +0.187 C 
ATOM     16  C3* UNL     1     -34.739  25.355   4.451  0.00  0.00    +0.171 C 
ATOM     17  C4* UNL     1     -35.469  24.535   5.511  0.00  0.00    +0.175 C 
BRANCH  15  18
ATOM     18  O2* UNL     1     -35.444  26.251   2.327  0.00  0.00    -0.378 OA
ATOM     19  H2* UNL     1     -34.515  26.306   2.057  0.00  0.00    +0.211 HD
ENDBRANCH  15  18
BRANCH  16  20
ATOM     20  O3* UNL     1     -33.414  24.926   4.208  0.00  0.00    -0.379 OA
ATOM     21  H3* UNL     1     -32.844  25.699   4.072  0.00  0.00    +0.211 HD
ENDBRANCH  16  20
BRANCH  17  22
ATOM     22  C5* UNL     1     -35.027  23.081   5.620  0.00  0.00    +0.169 C 
BRANCH  22  23
ATOM     23  O5* UNL     1     -36.164  22.275   5.884  0.00  0.00    -0.379 OA
ATOM     24  H5* UNL     1     -36.879  22.513   5.274  0.00  0.00    +0.211 HD
ENDBRANCH  22  23
ENDBRANCH  17  22
ENDBRANCH   1  14
BRANCH   7  27
ATOM     25  O   UNL     1     -40.551  21.000   1.631  0.00  0.00    -0.271 OA
ATOM     26  N   UNL     1     -38.351  20.693   1.066  0.00  0.00    -0.326 N 
ATOM     27  C   UNL     1     -39.390  21.470   1.593  0.00  0.00    +0.241 C 
ATOM     28  H   UNL     1     -38.532  19.782   0.741  0.00  0.00    +0.145 HD
ATOM     29  H   UNL     1     -37.438  21.059   1.022  0.00  0.00    +0.145 HD
ENDBRANCH   7  27
TORSDOF 6
ENDMDL
MODEL 2
REMARK VINA RESULT:      -6.1      2.081      4.361
REMARK  Name = 5153
REMARK  6 active torsions:
REMARK  status: ('A' for Active; 'I' for Inactive)
REMARK    1  A    between atoms: N_1  and  C1*_11
REMARK    2  A    between atoms: C_7  and  C_24
REMARK    3  A    between atoms: C2*_12  and  O2*_15
REMARK    4  A    between atoms: C3*_13  and  O3*_17
REMARK    5  A    between atoms: C4*_14  and  C5*_19
REMARK    6  A    between atoms: C5*_19  and  O5*_20
REMARK                            x       y       z     vdW  Elec       q    Type
REMARK                         _______ _______ _______ _____ _____    ______ ____
ROOT
ATOM      1  N   UNL     1     -36.359  22.633   2.853  0.00  0.00    -0.250 N 
ATOM      2  N   UNL     1     -34.914  21.000   1.821  0.00  0.00    -0.233 NA
ATOM      3  N   UNL     1     -36.107  19.462   0.358  0.00  0.00    -0.234 NA
ATOM      4  C   UNL     1     -36.119  21.557   2.036  0.00  0.00    +0.122 C 
ATOM      5  C   UNL     1     -37.700  22.927   2.830  0.00  0.00    +0.069 C 
ATOM      6  C   UNL     1     -37.330  21.157   1.482  0.00  0.00    +0.135 C 
ATOM      7  C   UNL     1     -38.324  22.030   1.991  0.00  0.00    +0.059 C 
ATOM      8  C   UNL     1     -37.290  20.066   0.616  0.00  0.00    +0.110 C 
ATOM      9  C   UNL     1     -35.008  19.959   0.968  0.00  0.00    +0.252 C 
ATOM     10  N   UNL     1     -38.461  19.584   0.003  0.00  0.00    -0.346 N 
ATOM     11  H   UNL     1     -38.416  18.812  -0.607  0.00  0.00    +0.143 HD
ATOM     12  H   UNL     1     -39.326  20.018   0.185  0.00  0.00    +0.143 HD
ENDROOT
BRANCH   1  14
ATOM     13  O4* UNL     1     -34.798  24.414   2.823  0.00  0.00    -0.333 OA
ATOM     14  C1* UNL     1     -35.357  23.358   3.627  0.00  0.00    +0.227 C 
ATOM     15  C2* UNL     1     -35.899  24.011   4.889  0.00  0.00    +0.187 C 
ATOM     16  C3* UNL     1     -34.913  25.141   5.082  0.00  0.00    +0.171 C 
ATOM     17  C4* UNL     1     -34.626  25.584   3.650  0.00  0.00    +0.175 C 
BRANCH  15  18
ATOM     18  O2* UNL     1     -35.867  23.123   5.993  0.00  0.00    -0.378 OA
ATOM     19  H2* UNL     1     -36.004  23.621   6.813  0.00  0.00    +0.211 HD
ENDBRANCH  15  18
BRANCH  16  20
ATOM     20  O3* UNL     1     -35.451  26.162   5.899  0.00  0.00    -0.379 OA
ATOM     21  H3* UNL     1     -34.766  26.485   6.504  0.00  0.00    +0.211 HD
ENDBRANCH  16  20
BRANCH  17  22
ATOM     22  C5* UNL     1     -35.532  26.689   3.121  0.00  0.00    +0.169 C 
BRANCH  22  23
ATOM     23  O5* UNL     1     -35.162  27.916   3.729  0.00  0.00    -0.379 OA
ATOM     24  H5* UNL     1     -34.308  27.811   4.176  0.00  0.00    +0.211 HD
ENDBRANCH  22  23
ENDBRANCH  17  22
ENDBRANCH   1  14
BRANCH   7  27
ATOM     25  O   UNL     1     -40.431  20.994   1.797  0.00  0.00    -0.271 OA
ATOM     26  N   UNL     1     -40.346  23.248   1.386  0.00  0.00    -0.326 N 
ATOM     27  C   UNL     1     -39.735  22.034   1.723  0.00  0.00    +0.241 C 
ATOM     28  H   UNL     1     -41.312  23.278   1.198  0.00  0.00    +0.145 HD
ATOM     29  H   UNL     1     -39.810  24.072   1.338  0.00  0.00    +0.145 HD
ENDBRANCH   7  27
TORSDOF 6
ENDMDL
MODEL 3
REMARK VINA RESULT:      -6.0      2.579      3.796
REMARK  Name = 5153
REMARK  6 active torsions:
REMARK  status: ('A' for Active; 'I' for Inactive)
REMARK    1  A    between atoms: N_1  and  C1*_11
REMARK    2  A    between atoms: C_7  and  C_24
REMARK    3  A    between atoms: C2*_12  and  O2*_15
REMARK    4  A    between atoms: C3*_13  and  O3*_17
REMARK    5  A    between atoms: C4*_14  and  C5*_19
REMARK    6  A    between atoms: C5*_19  and  O5*_20
REMARK                            x       y       z     vdW  Elec       q    Type
REMARK                         _______ _______ _______ _____ _____    ______ ____
ROOT
ATOM      1  N   UNL     1     -36.437  22.499   3.341  0.00  0.00    -0.250 N 
ATOM      2  N   UNL     1     -38.777  22.638   2.770  0.00  0.00    -0.233 NA
ATOM      3  N   UNL     1     -39.378  21.241   0.870  0.00  0.00    -0.234 NA
ATOM      4  C   UNL     1     -37.531  22.164   2.585  0.00  0.00    +0.122 C 
ATOM      5  C   UNL     1     -35.337  21.827   2.867  0.00  0.00    +0.069 C 
ATOM      6  C   UNL     1     -37.123  21.262   1.610  0.00  0.00    +0.135 C 
ATOM      7  C   UNL     1     -35.733  21.055   1.796  0.00  0.00    +0.059 C 
ATOM      8  C   UNL     1     -38.105  20.802   0.734  0.00  0.00    +0.110 C 
ATOM      9  C   UNL     1     -39.631  22.120   1.865  0.00  0.00    +0.252 C 
ATOM     10  N   UNL     1     -37.794  19.886  -0.287  0.00  0.00    -0.346 N 
ATOM     11  H   UNL     1     -38.499  19.571  -0.898  0.00  0.00    +0.143 HD
ATOM     12  H   UNL     1     -36.870  19.562  -0.393  0.00  0.00    +0.143 HD
ENDROOT
BRANCH   1  14
ATOM     13  O4* UNL     1     -35.105  23.487   5.032  0.00  0.00    -0.333 OA
ATOM     14  C1* UNL     1     -36.430  23.421   4.473  0.00  0.00    +0.227 C 
ATOM     15  C2* UNL     1     -36.825  24.846   4.116  0.00  0.00    +0.187 C 
ATOM     16  C3* UNL     1     -36.125  25.627   5.205  0.00  0.00    +0.171 C 
ATOM     17  C4* UNL     1     -34.818  24.858   5.381  0.00  0.00    +0.175 C 
BRANCH  15  18
ATOM     18  O2* UNL     1     -38.228  25.033   4.186  0.00  0.00    -0.378 OA
ATOM     19  H2* UNL     1     -38.675  24.180   4.077  0.00  0.00    +0.211 HD
ENDBRANCH  15  18
BRANCH  16  20
ATOM     20  O3* UNL     1     -35.947  26.980   4.838  0.00  0.00    -0.379 OA
ATOM     21  H3* UNL     1     -35.581  27.025   3.940  0.00  0.00    +0.211 HD
ENDBRANCH  16  20
BRANCH  17  22
ATOM     22  C5* UNL     1     -33.660  25.346   4.520  0.00  0.00    +0.169 C 
BRANCH  22  23
ATOM     23  O5* UNL     1     -33.076  26.482   5.137  0.00  0.00    -0.379 OA
ATOM     24  H5* UNL     1     -32.130  26.512   4.929  0.00  0.00    +0.211 HD
ENDBRANCH  22  23
ENDBRANCH  17  22
ENDBRANCH   1  14
BRANCH   7  27
ATOM     25  O   UNL     1     -34.719  20.315  -0.196  0.00  0.00    -0.271 OA
ATOM     26  N   UNL     1     -34.085  19.261   1.738  0.00  0.00    -0.326 N 
ATOM     27  C   UNL     1     -34.844  20.213   1.046  0.00  0.00    +0.241 C 
ATOM     28  H   UNL     1     -33.468  18.671   1.247  0.00  0.00    +0.145 HD
ATOM     29  H   UNL     1     -34.167  19.182   2.716  0.00  0.00    +0.145 HD
ENDBRANCH   7  27
TORSDOF 6
ENDMDL
MODEL 4
REMARK VINA RESULT:      -6.0      3.306      5.607
REMARK  Name = 5153
REMARK  6 active torsions:
REMARK  status: ('A' for Active; 'I' for Inactive)
REMARK    1  A    between atoms: N_1  and  C1*_11
REMARK    2  A    between atoms: C_7  and  C_24
REMARK    3  A    between atoms: C2*_12  and  O2*_15
REMARK    4  A    between atoms: C3*_13  and  O3*_17
REMARK    5  A    between atoms: C4*_14  and  C5*_19
REMARK    6  A    between atoms: C5*_19  and  O5*_20
REMARK                            x       y       z     vdW  Elec       q    Type
REMARK                         _______ _______ _______ _____ _____    ______ ____
ROOT
ATOM      1  N   UNL     1     -36.627  22.432   2.018  0.00  0.00    -0.250 N 
ATOM      2  N   UNL     1     -37.715  24.383   1.106  0.00  0.00    -0.233 NA
ATOM      3  N   UNL     1     -37.800  26.245   2.672  0.00  0.00    -0.234 NA
ATOM      4  C   UNL     1     -37.082  23.724   2.093  0.00  0.00    +0.122 C 
ATOM      5  C   UNL     1     -36.033  22.091   3.208  0.00  0.00    +0.069 C 
ATOM      6  C   UNL     1     -36.772  24.217   3.355  0.00  0.00    +0.135 C 
ATOM      7  C   UNL     1     -36.109  23.177   4.053  0.00  0.00    +0.059 C 
ATOM      8  C   UNL     1     -37.159  25.529   3.625  0.00  0.00    +0.110 C 
ATOM      9  C   UNL     1     -38.035  25.635   1.488  0.00  0.00    +0.252 C 
ATOM     10  N   UNL     1     -36.891  26.122   4.872  0.00  0.00    -0.346 N 
ATOM     11  H   UNL     1     -37.171  27.049   5.047  0.00  0.00    +0.143 HD
ATOM     12  H   UNL     1     -36.426  25.608   5.571  0.00  0.00    +0.143 HD
ENDROOT
BRANCH   1  14
ATOM     13  O4* UNL     1     -35.438  21.172   0.403  0.00  0.00    -0.333 OA
ATOM     14  C1* UNL     1     -36.749  21.549   0.862  0.00  0.00    +0.227 C 
ATOM     15  C2* UNL     1     -37.503  20.258   1.142  0.00  0.00    +0.187 C 
ATOM     16  C3* UNL     1     -36.924  19.344   0.086  0.00  0.00    +0.171 C 
ATOM     17  C4* UNL     1     -35.461  19.777   0.033  0.00  0.00    +0.175 C 
BRANCH  15  18
ATOM     18  O2* UNL     1     -38.899  20.415   0.960  0.00  0.00    -0.378 OA
ATOM     19  H2* UNL     1     -39.207  19.802   0.276  0.00  0.00    +0.211 HD
ENDBRANCH  15  18
BRANCH  16  20
ATOM     20  O3* UNL     1     -37.105  17.984   0.422  0.00  0.00    -0.379 OA
ATOM     21  H3* UNL     1     -36.851  17.428  -0.331  0.00  0.00    +0.211 HD
ENDBRANCH  16  20
BRANCH  17  22
ATOM     22  C5* UNL     1     -34.528  19.013   0.965  0.00  0.00    +0.169 C 
BRANCH  22  23
ATOM     23  O5* UNL     1     -34.373  17.691   0.476  0.00  0.00    -0.379 OA
ATOM     24  H5* UNL     1     -33.630  17.263   0.928  0.00  0.00    +0.211 HD
ENDBRANCH  22  23
ENDBRANCH  17  22
ENDBRANCH   1  14
BRANCH   7  27
ATOM     25  O   UNL     1     -34.840  24.100   5.810  0.00  0.00    -0.271 OA
ATOM     26  N   UNL     1     -35.949  22.144   6.254  0.00  0.00    -0.326 N 
ATOM     27  C   UNL     1     -35.588  23.186   5.392  0.00  0.00    +0.241 C 
ATOM     28  H   UNL     1     -35.606  22.126   7.177  0.00  0.00    +0.145 HD
ATOM     29  H   UNL     1     -36.547  21.428   5.938  0.00  0.00    +0.145 HD
ENDBRANCH   7  27
TORSDOF 6
ENDMDL
MODEL 5
REMARK VINA RESULT:      -6.0      1.753      2.365
REMARK  Name = 5153
REMARK  6 active torsions:
REMARK  status: ('A' for Active; 'I' for Inactive)
REMARK    1  A    between atoms: N_1  and  C1*_11
REMARK    2  A    between atoms: C_7  and  C_24
REMARK    3  A    between atoms: C2*_12  and  O2*_15
REMARK    4  A    between atoms: C3*_13  and  O3*_17
REMARK    5  A    between atoms: C4*_14  and  C5*_19
REMARK    6  A    between atoms: C5*_19  and  O5*_20
REMARK                            x       y       z     vdW  Elec       q    Type
REMARK                         _______ _______ _______ _____ _____    ______ ____
ROOT
ATOM      1  N   UNL     1     -37.839  23.384   2.975  0.00  0.00    -0.250 N 
ATOM      2  N   UNL     1     -39.956  24.325   2.304  0.00  0.00    -0.233 NA
ATOM      3  N   UNL     1     -41.000  23.109   0.472  0.00  0.00    -0.234 NA
ATOM      4  C   UNL     1     -38.969  23.417   2.198  0.00  0.00    +0.122 C 
ATOM      5  C   UNL     1     -37.055  22.324   2.589  0.00  0.00    +0.069 C 
ATOM      6  C   UNL     1     -38.905  22.360   1.299  0.00  0.00    +0.135 C 
ATOM      7  C   UNL     1     -37.691  21.674   1.553  0.00  0.00    +0.059 C 
ATOM      8  C   UNL     1     -39.975  22.227   0.415  0.00  0.00    +0.110 C 
ATOM      9  C   UNL     1     -40.928  24.089   1.399  0.00  0.00    +0.252 C 
ATOM     10  N   UNL     1     -40.007  21.189  -0.534  0.00  0.00    -0.346 N 
ATOM     11  H   UNL     1     -40.769  21.110  -1.151  0.00  0.00    +0.143 HD
ATOM     12  H   UNL     1     -39.265  20.544  -0.582  0.00  0.00    +0.143 HD
ENDROOT
BRANCH   1  14
ATOM     13  O4* UNL     1     -36.420  23.795   4.827  0.00  0.00    -0.333 OA
ATOM     14  C1* UNL     1     -37.510  24.319   4.047  0.00  0.00    +0.227 C 
ATOM     15  C2* UNL     1     -37.077  25.694   3.560  0.00  0.00    +0.187 C 
ATOM     16  C3* UNL     1     -36.224  26.161   4.718  0.00  0.00    +0.171 C 
ATOM     17  C4* UNL     1     -35.525  24.877   5.158  0.00  0.00    +0.175 C 
BRANCH  15  18
ATOM     18  O2* UNL     1     -38.186  26.557   3.373  0.00  0.00    -0.378 OA
ATOM     19  H2* UNL     1     -38.088  27.337   3.939  0.00  0.00    +0.211 HD
ENDBRANCH  15  18
BRANCH  16  20
ATOM     20  O3* UNL     1     -35.338  27.189   4.326  0.00  0.00    -0.379 OA
ATOM     21  H3* UNL     1     -34.462  27.024   4.709  0.00  0.00    +0.211 HD
ENDBRANCH  16  20
BRANCH  17  22
ATOM     22  C5* UNL     1     -34.179  24.615   4.493  0.00  0.00    +0.169 C 
BRANCH  22  23
ATOM     23  O5* UNL     1     -33.249  25.587   4.940  0.00  0.00    -0.379 OA
ATOM     24  H5* UNL     1     -32.892  25.321   5.801  0.00  0.00    +0.211 HD
ENDBRANCH  22  23
ENDBRANCH  17  22
ENDBRANCH   1  14
BRANCH   7  27
ATOM     25  O   UNL     1     -37.019  20.461  -0.351  0.00  0.00    -0.271 OA
ATOM     26  N   UNL     1     -36.780  19.417   1.676  0.00  0.00    -0.326 N 
ATOM     27  C   UNL     1     -37.162  20.514   0.893  0.00  0.00    +0.241 C 
ATOM     28  H   UNL     1     -36.415  18.610   1.248  0.00  0.00    +0.145 HD
ATOM     29  H   UNL     1     -36.878  19.455   2.655  0.00  0.00    +0.145 HD
ENDBRANCH   7  27
TORSDOF 6
ENDMDL
MODEL 6
REMARK VINA RESULT:      -6.0      2.960      5.612
REMARK  Name = 5153
REMARK  6 active torsions:
REMARK  status: ('A' for Active; 'I' for Inactive)
REMARK    1  A    between atoms: N_1  and  C1*_11
REMARK    2  A    between atoms: C_7  and  C_24
REMARK    3  A    between atoms: C2*_12  and  O2*_15
REMARK    4  A    between atoms: C3*_13  and  O3*_17
REMARK    5  A    between atoms: C4*_14  and  C5*_19
REMARK    6  A    between atoms: C5*_19  and  O5*_20
REMARK                            x       y       z     vdW  Elec       q    Type
REMARK                         _______ _______ _______ _____ _____    ______ ____
ROOT
ATOM      1  N   UNL     1     -36.916  24.040   2.409  0.00  0.00    -0.250 N 
ATOM      2  N   UNL     1     -36.327  25.092   4.499  0.00  0.00    -0.233 NA
ATOM      3  N   UNL     1     -35.265  23.563   6.068  0.00  0.00    -0.234 NA
ATOM      4  C   UNL     1     -36.386  24.030   3.675  0.00  0.00    +0.122 C 
ATOM      5  C   UNL     1     -36.807  22.784   1.864  0.00  0.00    +0.069 C 
ATOM      6  C   UNL     1     -35.931  22.745   3.942  0.00  0.00    +0.135 C 
ATOM      7  C   UNL     1     -36.201  21.963   2.790  0.00  0.00    +0.059 C 
ATOM      8  C   UNL     1     -35.355  22.534   5.193  0.00  0.00    +0.110 C 
ATOM      9  C   UNL     1     -35.751  24.761   5.672  0.00  0.00    +0.252 C 
ATOM     10  N   UNL     1     -34.862  21.269   5.561  0.00  0.00    -0.346 N 
ATOM     11  H   UNL     1     -34.458  21.137   6.449  0.00  0.00    +0.143 HD
ATOM     12  H   UNL     1     -34.923  20.515   4.931  0.00  0.00    +0.143 HD
ENDROOT
BRANCH   1  14
ATOM     13  O4* UNL     1     -37.598  24.934   0.325  0.00  0.00    -0.333 OA
ATOM     14  C1* UNL     1     -37.504  25.195   1.738  0.00  0.00    +0.227 C 
ATOM     15  C2* UNL     1     -38.907  25.542   2.212  0.00  0.00    +0.187 C 
ATOM     16  C3* UNL     1     -39.464  26.246   0.995  0.00  0.00    +0.171 C 
ATOM     17  C4* UNL     1     -38.856  25.452  -0.158  0.00  0.00    +0.175 C 
BRANCH  15  18
ATOM     18  O2* UNL     1     -38.881  26.414   3.329  0.00  0.00    -0.378 OA
ATOM     19  H2* UNL     1     -39.787  26.583   3.629  0.00  0.00    +0.211 HD
ENDBRANCH  15  18
BRANCH  16  20
ATOM     20  O3* UNL     1     -40.876  26.252   1.003  0.00  0.00    -0.379 OA
ATOM     21  H3* UNL     1     -41.205  25.910   0.157  0.00  0.00    +0.211 HD
ENDBRANCH  16  20
BRANCH  17  22
ATOM     22  C5* UNL     1     -39.701  24.285  -0.655  0.00  0.00    +0.169 C 
BRANCH  22  23
ATOM     23  O5* UNL     1     -40.730  24.788  -1.492  0.00  0.00    -0.379 OA
ATOM     24  H5* UNL     1     -40.881  24.171  -2.225  0.00  0.00    +0.211 HD
ENDBRANCH  22  23
ENDBRANCH  17  22
ENDBRANCH   1  14
BRANCH   7  27
ATOM     25  O   UNL     1     -34.788  20.080   2.758  0.00  0.00    -0.271 OA
ATOM     26  N   UNL     1     -36.968  19.745   2.134  0.00  0.00    -0.326 N 
ATOM     27  C   UNL     1     -35.924  20.572   2.566  0.00  0.00    +0.241 C 
ATOM     28  H   UNL     1     -36.804  18.788   1.972  0.00  0.00    +0.145 HD
ATOM     29  H   UNL     1     -37.867  20.122   1.992  0.00  0.00    +0.145 HD
ENDBRANCH   7  27
TORSDOF 6
ENDMDL
MODEL 7
REMARK VINA RESULT:      -5.8      1.881      3.059
REMARK  Name = 5153
REMARK  6 active torsions:
REMARK  status: ('A' for Active; 'I' for Inactive)
REMARK    1  A    between atoms: N_1  and  C1*_11
REMARK    2  A    between atoms: C_7  and  C_24
REMARK    3  A    between atoms: C2*_12  and  O2*_15
REMARK    4  A    between atoms: C3*_13  and  O3*_17
REMARK    5  A    between atoms: C4*_14  and  C5*_19
REMARK    6  A    between atoms: C5*_19  and  O5*_20
REMARK                            x       y       z     vdW  Elec       q    Type
REMARK                         _______ _______ _______ _____ _____    ______ ____
ROOT
ATOM      1  N   UNL     1     -36.395  22.519   2.777  0.00  0.00    -0.250 N 
ATOM      2  N   UNL     1     -38.276  23.972   3.194  0.00  0.00    -0.233 NA
ATOM      3  N   UNL     1     -40.300  23.263   2.041  0.00  0.00    -0.234 NA
ATOM      4  C   UNL     1     -37.705  22.897   2.620  0.00  0.00    +0.122 C 
ATOM      5  C   UNL     1     -36.164  21.378   2.048  0.00  0.00    +0.069 C 
ATOM      6  C   UNL     1     -38.320  21.981   1.777  0.00  0.00    +0.135 C 
ATOM      7  C   UNL     1     -37.337  21.023   1.419  0.00  0.00    +0.059 C 
ATOM      8  C   UNL     1     -39.668  22.199   1.495  0.00  0.00    +0.110 C 
ATOM      9  C   UNL     1     -39.574  24.073   2.845  0.00  0.00    +0.252 C 
ATOM     10  N   UNL     1     -40.383  21.328   0.652  0.00  0.00    -0.346 N 
ATOM     11  H   UNL     1     -41.334  21.497   0.462  0.00  0.00    +0.143 HD
ATOM     12  H   UNL     1     -39.931  20.552   0.250  0.00  0.00    +0.143 HD
ENDROOT
BRANCH   1  14
ATOM     13  O4* UNL     1     -34.841  24.305   2.834  0.00  0.00    -0.333 OA
ATOM     14  C1* UNL     1     -35.397  23.211   3.587  0.00  0.00    +0.227 C 
ATOM     15  C2* UNL     1     -35.945  23.801   4.877  0.00  0.00    +0.187 C 
ATOM     16  C3* UNL     1     -34.964  24.925   5.126  0.00  0.00    +0.171 C 
ATOM     17  C4* UNL     1     -34.675  25.436   3.716  0.00  0.00    +0.175 C 
BRANCH  15  18
ATOM     18  O2* UNL     1     -35.912  22.863   5.938  0.00  0.00    -0.378 OA
ATOM     19  H2* UNL     1     -35.773  21.973   5.579  0.00  0.00    +0.211 HD
ENDBRANCH  15  18
BRANCH  16  20
ATOM     20  O3* UNL     1     -35.507  25.904   5.988  0.00  0.00    -0.379 OA
ATOM     21  H3* UNL     1     -35.741  26.693   5.474  0.00  0.00    +0.211 HD
ENDBRANCH  16  20
BRANCH  17  22
ATOM     22  C5* UNL     1     -35.585  26.561   3.238  0.00  0.00    +0.169 C 
BRANCH  22  23
ATOM     23  O5* UNL     1     -35.231  27.756   3.916  0.00  0.00    -0.379 OA
ATOM     24  H5* UNL     1     -35.853  28.460   3.676  0.00  0.00    +0.211 HD
ENDBRANCH  22  23
ENDBRANCH  17  22
ENDBRANCH   1  14
BRANCH   7  27
ATOM     25  O   UNL     1     -38.104  19.919  -0.515  0.00  0.00    -0.271 OA
ATOM     26  N   UNL     1     -36.860  18.679   0.958  0.00  0.00    -0.326 N 
ATOM     27  C   UNL     1     -37.472  19.876   0.567  0.00  0.00    +0.241 C 
ATOM     28  H   UNL     1     -36.937  17.878   0.392  0.00  0.00    +0.145 HD
ATOM     29  H   UNL     1     -36.351  18.639   1.800  0.00  0.00    +0.145 HD
ENDBRANCH   7  27
TORSDOF 6
ENDMDL
MODEL 8
REMARK VINA RESULT:      -5.8      3.735      4.759
REMARK  Name = 5153
REMARK  6 active torsions:
REMARK  status: ('A' for Active; 'I' for Inactive)
REMARK    1  A    between atoms: N_1  and  C1*_11
REMARK    2  A    between atoms: C_7  and  C_24
REMARK    3  A    between atoms: C2*_12  and  O2*_15
REMARK    4  A    between atoms: C3*_13  and  O3*_17
REMARK    5  A    between atoms: C4*_14  and  C5*_19
REMARK    6  A    between atoms: C5*_19  and  O5*_20
REMARK                            x       y       z     vdW  Elec       q    Type
REMARK                         _______ _______ _______ _____ _____    ______ ____
ROOT
ATOM      1  N   UNL     1     -35.464  22.650   3.220  0.00  0.00    -0.250 N 
ATOM      2  N   UNL     1     -34.481  24.454   1.956  0.00  0.00    -0.233 NA
ATOM      3  N   UNL     1     -33.762  23.776  -0.269  0.00  0.00    -0.234 NA
ATOM      4  C   UNL     1     -34.874  23.176   2.099  0.00  0.00    +0.122 C 
ATOM      5  C   UNL     1     -35.729  21.319   3.010  0.00  0.00    +0.069 C 
ATOM      6  C   UNL     1     -34.760  22.162   1.156  0.00  0.00    +0.135 C 
ATOM      7  C   UNL     1     -35.303  20.990   1.741  0.00  0.00    +0.059 C 
ATOM      8  C   UNL     1     -34.177  22.505  -0.063  0.00  0.00    +0.110 C 
ATOM      9  C   UNL     1     -33.937  24.660   0.740  0.00  0.00    +0.252 C 
ATOM     10  N   UNL     1     -34.017  21.551  -1.084  0.00  0.00    -0.346 N 
ATOM     11  H   UNL     1     -33.603  21.810  -1.939  0.00  0.00    +0.143 HD
ATOM     12  H   UNL     1     -34.316  20.624  -0.943  0.00  0.00    +0.143 HD
ENDROOT
BRANCH   1  14
ATOM     13  O4* UNL     1     -34.542  23.754   5.102  0.00  0.00    -0.333 OA
ATOM     14  C1* UNL     1     -35.768  23.379   4.448  0.00  0.00    +0.227 C 
ATOM     15  C2* UNL     1     -36.556  24.662   4.229  0.00  0.00    +0.187 C 
ATOM     16  C3* UNL     1     -36.155  25.465   5.446  0.00  0.00    +0.171 C 
ATOM     17  C4* UNL     1     -34.686  25.091   5.625  0.00  0.00    +0.175 C 
BRANCH  15  18
ATOM     18  O2* UNL     1     -37.953  24.425   4.222  0.00  0.00    -0.378 OA
ATOM     19  H2* UNL     1     -38.385  25.014   4.859  0.00  0.00    +0.211 HD
ENDBRANCH  15  18
BRANCH  16  20
ATOM     20  O3* UNL     1     -36.373  26.847   5.250  0.00  0.00    -0.379 OA
ATOM     21  H3* UNL     1     -37.057  26.972   4.574  0.00  0.00    +0.211 HD
ENDBRANCH  16  20
BRANCH  17  22
ATOM     22  C5* UNL     1     -33.696  26.001   4.908  0.00  0.00    +0.169 C 
BRANCH  22  23
ATOM     23  O5* UNL     1     -33.427  27.124   5.732  0.00  0.00    -0.379 OA
ATOM     24  H5* UNL     1     -32.581  26.996   6.188  0.00  0.00    +0.211 HD
ENDBRANCH  22  23
ENDBRANCH  17  22
ENDBRANCH   1  14
BRANCH   7  27
ATOM     25  O   UNL     1     -34.428  19.054   0.725  0.00  0.00    -0.271 OA
ATOM     26  N   UNL     1     -36.681  19.072   1.145  0.00  0.00    -0.326 N 
ATOM     27  C   UNL     1     -35.419  19.676   1.175  0.00  0.00    +0.241 C 
ATOM     28  H   UNL     1     -36.788  18.171   0.761  0.00  0.00    +0.145 HD
ATOM     29  H   UNL     1     -37.463  19.548   1.507  0.00  0.00    +0.145 HD
ENDBRANCH   7  27
TORSDOF 6
ENDMDL
MODEL 9
REMARK VINA RESULT:      -5.7      1.891      3.493
REMARK  Name = 5153
REMARK  6 active torsions:
REMARK  status: ('A' for Active; 'I' for Inactive)
REMARK    1  A    between atoms: N_1  and  C1*_11
REMARK    2  A    between atoms: C_7  and  C_24
REMARK    3  A    between atoms: C2*_12  and  O2*_15
REMARK    4  A    between atoms: C3*_13  and  O3*_17
REMARK    5  A    between atoms: C4*_14  and  C5*_19
REMARK    6  A    between atoms: C5*_19  and  O5*_20
REMARK                            x       y       z     vdW  Elec       q    Type
REMARK                         _______ _______ _______ _____ _____    ______ ____
ROOT
ATOM      1  N   UNL     1     -38.011  24.355   2.573  0.00  0.00    -0.250 N 
ATOM      2  N   UNL     1     -38.468  22.445   1.171  0.00  0.00    -0.233 NA
ATOM      3  N   UNL     1     -40.737  22.434   0.288  0.00  0.00    -0.234 NA
ATOM      4  C   UNL     1     -38.825  23.595   1.772  0.00  0.00    +0.122 C 
ATOM      5  C   UNL     1     -38.706  25.455   3.010  0.00  0.00    +0.069 C 
ATOM      6  C   UNL     1     -40.062  24.222   1.696  0.00  0.00    +0.135 C 
ATOM      7  C   UNL     1     -39.978  25.398   2.483  0.00  0.00    +0.059 C 
ATOM      8  C   UNL     1     -41.034  23.594   0.919  0.00  0.00    +0.110 C 
ATOM      9  C   UNL     1     -39.490  21.938   0.452  0.00  0.00    +0.252 C 
ATOM     10  N   UNL     1     -42.319  24.149   0.777  0.00  0.00    -0.346 N 
ATOM     11  H   UNL     1     -42.994  23.692   0.225  0.00  0.00    +0.143 HD
ATOM     12  H   UNL     1     -42.544  24.992   1.232  0.00  0.00    +0.143 HD
ENDROOT
BRANCH   1  14
ATOM     13  O4* UNL     1     -35.963  25.253   3.355  0.00  0.00    -0.333 OA
ATOM     14  C1* UNL     1     -36.624  24.052   2.914  0.00  0.00    +0.227 C 
ATOM     15  C2* UNL     1     -36.467  23.032   4.031  0.00  0.00    +0.187 C 
ATOM     16  C3* UNL     1     -35.110  23.405   4.582  0.00  0.00    +0.171 C 
ATOM     17  C4* UNL     1     -35.111  24.928   4.473  0.00  0.00    +0.175 C 
BRANCH  15  18
ATOM     18  O2* UNL     1     -36.459  21.706   3.533  0.00  0.00    -0.378 OA
ATOM     19  H2* UNL     1     -36.745  21.096   4.230  0.00  0.00    +0.211 HD
ENDBRANCH  15  18
BRANCH  16  20
ATOM     20  O3* UNL     1     -34.937  22.927   5.901  0.00  0.00    -0.379 OA
ATOM     21  H3* UNL     1     -34.842  23.679   6.507  0.00  0.00    +0.211 HD
ENDBRANCH  16  20
BRANCH  17  22
ATOM     22  C5* UNL     1     -35.626  25.663   5.704  0.00  0.00    +0.169 C 
BRANCH  22  23
ATOM     23  O5* UNL     1     -36.497  26.702   5.287  0.00  0.00    -0.379 OA
ATOM     24  H5* UNL     1     -36.927  26.450   4.456  0.00  0.00    +0.211 HD
ENDBRANCH  22  23
ENDBRANCH  17  22
ENDBRANCH   1  14
BRANCH   7  27
ATOM     25  O   UNL     1     -41.564  26.998   1.796  0.00  0.00    -0.271 OA
ATOM     26  N   UNL     1     -41.350  26.659   4.053  0.00  0.00    -0.326 N 
ATOM     27  C   UNL     1     -40.990  26.388   2.727  0.00  0.00    +0.241 C 
ATOM     28  H   UNL     1     -42.041  27.333   4.248  0.00  0.00    +0.145 HD
ATOM     29  H   UNL     1     -40.913  26.175   4.790  0.00  0.00    +0.145 HD
ENDBRANCH   7  27
TORSDOF 6
ENDMDL
