MODEL 1
REMARK VINA RESULT:      -5.7      0.000      0.000
REMARK  Name = 191942
REMARK  9 active torsions:
REMARK  status: ('A' for Active; 'I' for Inactive)
REMARK    1  A    between atoms: C_2  and  O_17
REMARK    2  A    between atoms: C_3  and  O_19
REMARK    3  A    between atoms: C_4  and  C_21
REMARK    4  A    between atoms: C_5  and  N_8
REMARK    5  A    between atoms: C_12  and  O_15
REMARK    6  A    between atoms: C_21  and  O_22
REMARK    7  A    between atoms: O_22  and  P_23
REMARK    8  A    between atoms: P_23  and  O_25
REMARK    9  A    between atoms: P_23  and  O_27
REMARK                            x       y       z     vdW  Elec       q    Type
REMARK                         _______ _______ _______ _____ _____    ______ ____
ROOT
ATOM      1  O   UNL     1     -37.099  22.900   4.032  0.00  0.00    -0.333 OA
ATOM      2  C   UNL     1     -35.554  21.618   2.776  0.00  0.00    +0.171 C 
ATOM      3  C   UNL     1     -36.493  22.317   1.816  0.00  0.00    +0.187 C 
ATOM      4  C   UNL     1     -35.733  22.433   4.049  0.00  0.00    +0.176 C 
ATOM      5  C   UNL     1     -37.655  22.684   2.724  0.00  0.00    +0.229 C 
ENDROOT
BRANCH   5   8
ATOM      6  O   UNL     1     -40.371  22.803   1.964  0.00  0.00    -0.252 OA
ATOM      7  O   UNL     1     -40.139  27.321   1.106  0.00  0.00    -0.266 OA
ATOM      8  N   UNL     1     -38.326  23.880   2.300  0.00  0.00    -0.214 N 
ATOM      9  N   UNL     1     -40.248  25.054   1.540  0.00  0.00    -0.233 N 
ATOM     10  C   UNL     1     -37.631  25.083   2.244  0.00  0.00    +0.113 C 
ATOM     11  C   UNL     1     -39.692  23.832   1.939  0.00  0.00    +0.316 C 
ATOM     12  C   UNL     1     -38.171  26.243   1.861  0.00  0.00    +0.207 C 
ATOM     13  C   UNL     1     -39.600  26.278   1.466  0.00  0.00    +0.288 C 
ATOM     14  H   UNL     1     -41.198  25.043   1.284  0.00  0.00    +0.160 HD
BRANCH  12  15
ATOM     15  O   UNL     1     -37.469  27.425   1.811  0.00  0.00    -0.466 OA
ATOM     16  C   UNL     1     -36.651  27.477   0.656  0.00  0.00    +0.253 C 
ENDBRANCH  12  15
ENDBRANCH   5   8
BRANCH   2  17
ATOM     17  O   UNL     1     -36.010  20.290   3.036  0.00  0.00    -0.379 OA
ATOM     18  H   UNL     1     -35.328  19.655   2.765  0.00  0.00    +0.211 HD
ENDBRANCH   2  17
BRANCH   3  19
ATOM     19  O   UNL     1     -36.884  21.483   0.744  0.00  0.00    -0.378 OA
ATOM     20  H   UNL     1     -36.099  21.208   0.246  0.00  0.00    +0.211 HD
ENDBRANCH   3  19
BRANCH   4  21
ATOM     21  C   UNL     1     -34.817  23.648   4.120  0.00  0.00    +0.186 C 
BRANCH  21  22
ATOM     22  O   UNL     1     -35.227  24.462   5.203  0.00  0.00    -0.271 OA
BRANCH  22  23
ATOM     23  P   UNL     1     -35.048  26.067   5.075  0.00  0.00    +0.473 P 
ATOM     24  O   UNL     1     -33.963  26.654   5.930  0.00  0.00    -0.227 OA
BRANCH  23  25
ATOM     25  O   UNL     1     -36.534  26.642   5.353  0.00  0.00    -0.303 OA
ATOM     26  H   UNL     1     -37.051  25.981   5.839  0.00  0.00    +0.222 HD
ENDBRANCH  23  25
BRANCH  23  27
ATOM     27  O   UNL     1     -34.857  26.283   3.484  0.00  0.00    -0.303 OA
ATOM     28  H   UNL     1     -34.373  25.529   3.111  0.00  0.00    +0.222 HD
ENDBRANCH  23  27
ENDBRANCH  22  23
ENDBRANCH  21  22
ENDBRANCH   4  21
TORSDOF 9
ENDMDL
MODEL 2
REMARK VINA RESULT:      -5.7      1.924      4.513
REMARK  Name = 191942
REMARK  9 active torsions:
REMARK  status: ('A' for Active; 'I' for Inactive)
REMARK    1  A    between atoms: C_2  and  O_17
REMARK    2  A    between atoms: C_3  and  O_19
REMARK    3  A    between atoms: C_4  and  C_21
REMARK    4  A    between atoms: C_5  and  N_8
REMARK    5  A    between atoms: C_12  and  O_15
REMARK    6  A    between atoms: C_21  and  O_22
REMARK    7  A    between atoms: O_22  and  P_23
REMARK    8  A    between atoms: P_23  and  O_25
REMARK    9  A    between atoms: P_23  and  O_27
REMARK                            x       y       z     vdW  Elec       q    Type
REMARK                         _______ _______ _______ _____ _____    ______ ____
ROOT
ATOM      1  O   UNL     1     -35.528  24.227   2.915  0.00  0.00    -0.333 OA
ATOM      2  C   UNL     1     -35.246  24.555   5.243  0.00  0.00    +0.171 C 
ATOM      3  C   UNL     1     -36.488  25.297   4.800  0.00  0.00    +0.187 C 
ATOM      4  C   UNL     1     -35.037  23.569   4.103  0.00  0.00    +0.176 C 
ATOM      5  C   UNL     1     -36.278  25.392   3.298  0.00  0.00    +0.229 C 
ENDROOT
BRANCH   5   8
ATOM      6  O   UNL     1     -37.184  27.570   1.748  0.00  0.00    -0.252 OA
ATOM      7  O   UNL     1     -41.044  25.365   0.548  0.00  0.00    -0.266 OA
ATOM      8  N   UNL     1     -37.516  25.410   2.571  0.00  0.00    -0.214 N 
ATOM      9  N   UNL     1     -39.105  26.465   1.153  0.00  0.00    -0.233 N 
ATOM     10  C   UNL     1     -38.355  24.302   2.604  0.00  0.00    +0.113 C 
ATOM     11  C   UNL     1     -37.878  26.554   1.823  0.00  0.00    +0.316 C 
ATOM     12  C   UNL     1     -39.524  24.229   1.961  0.00  0.00    +0.207 C 
ATOM     13  C   UNL     1     -39.977  25.387   1.154  0.00  0.00    +0.288 C 
ATOM     14  H   UNL     1     -39.377  27.250   0.626  0.00  0.00    +0.160 HD
BRANCH  12  15
ATOM     15  O   UNL     1     -40.344  23.125   2.005  0.00  0.00    -0.466 OA
ATOM     16  C   UNL     1     -39.588  21.931   1.905  0.00  0.00    +0.253 C 
ENDBRANCH  12  15
ENDBRANCH   5   8
BRANCH   2  17
ATOM     17  O   UNL     1     -34.125  25.439   5.271  0.00  0.00    -0.379 OA
ATOM     18  H   UNL     1     -34.376  26.266   5.712  0.00  0.00    +0.211 HD
ENDBRANCH   2  17
BRANCH   3  19
ATOM     19  O   UNL     1     -36.605  26.564   5.413  0.00  0.00    -0.378 OA
ATOM     20  H   UNL     1     -36.741  27.241   4.732  0.00  0.00    +0.211 HD
ENDBRANCH   3  19
BRANCH   4  21
ATOM     21  C   UNL     1     -35.812  22.270   4.280  0.00  0.00    +0.186 C 
BRANCH  21  22
ATOM     22  O   UNL     1     -35.045  21.207   3.746  0.00  0.00    -0.271 OA
BRANCH  22  23
ATOM     23  P   UNL     1     -35.488  20.570   2.325  0.00  0.00    +0.473 P 
ATOM     24  O   UNL     1     -34.434  19.750   1.641  0.00  0.00    -0.227 OA
BRANCH  23  25
ATOM     25  O   UNL     1     -36.028  21.843   1.486  0.00  0.00    -0.303 OA
ATOM     26  H   UNL     1     -36.998  21.832   1.469  0.00  0.00    +0.222 HD
ENDBRANCH  23  25
BRANCH  23  27
ATOM     27  O   UNL     1     -36.843  19.769   2.696  0.00  0.00    -0.303 OA
ATOM     28  H   UNL     1     -36.629  18.842   2.889  0.00  0.00    +0.222 HD
ENDBRANCH  23  27
ENDBRANCH  22  23
ENDBRANCH  21  22
ENDBRANCH   4  21
TORSDOF 9
ENDMDL
MODEL 3
REMARK VINA RESULT:      -5.7      2.726      5.325
REMARK  Name = 191942
REMARK  9 active torsions:
REMARK  status: ('A' for Active; 'I' for Inactive)
REMARK    1  A    between atoms: C_2  and  O_17
REMARK    2  A    between atoms: C_3  and  O_19
REMARK    3  A    between atoms: C_4  and  C_21
REMARK    4  A    between atoms: C_5  and  N_8
REMARK    5  A    between atoms: C_12  and  O_15
REMARK    6  A    between atoms: C_21  and  O_22
REMARK    7  A    between atoms: O_22  and  P_23
REMARK    8  A    between atoms: P_23  and  O_25
REMARK    9  A    between atoms: P_23  and  O_27
REMARK                            x       y       z     vdW  Elec       q    Type
REMARK                         _______ _______ _______ _____ _____    ______ ____
ROOT
ATOM      1  O   UNL     1     -36.996  23.545   3.796  0.00  0.00    -0.333 OA
ATOM      2  C   UNL     1     -38.831  24.173   2.438  0.00  0.00    +0.171 C 
ATOM      3  C   UNL     1     -37.926  25.374   2.611  0.00  0.00    +0.187 C 
ATOM      4  C   UNL     1     -37.908  23.020   2.807  0.00  0.00    +0.176 C 
ATOM      5  C   UNL     1     -37.106  24.977   3.827  0.00  0.00    +0.229 C 
ENDROOT
BRANCH   5   8
ATOM      6  O   UNL     1     -35.899  26.268   6.028  0.00  0.00    -0.252 OA
ATOM      7  O   UNL     1     -32.045  27.133   3.661  0.00  0.00    -0.266 OA
ATOM      8  N   UNL     1     -35.788  25.546   3.810  0.00  0.00    -0.214 N 
ATOM      9  N   UNL     1     -33.982  26.694   4.843  0.00  0.00    -0.233 N 
ATOM     10  C   UNL     1     -35.019  25.481   2.653  0.00  0.00    +0.113 C 
ATOM     11  C   UNL     1     -35.276  26.173   4.969  0.00  0.00    +0.316 C 
ATOM     12  C   UNL     1     -33.786  25.982   2.545  0.00  0.00    +0.207 C 
ATOM     13  C   UNL     1     -33.175  26.656   3.716  0.00  0.00    +0.288 C 
ATOM     14  H   UNL     1     -33.605  27.135   5.639  0.00  0.00    +0.160 HD
BRANCH  12  15
ATOM     15  O   UNL     1     -33.038  25.909   1.392  0.00  0.00    -0.466 OA
ATOM     16  C   UNL     1     -33.282  24.693   0.709  0.00  0.00    +0.253 C 
ENDBRANCH  12  15
ENDBRANCH   5   8
BRANCH   2  17
ATOM     17  O   UNL     1     -39.891  24.211   3.393  0.00  0.00    -0.379 OA
ATOM     18  H   UNL     1     -40.614  24.761   3.053  0.00  0.00    +0.211 HD
ENDBRANCH   2  17
BRANCH   3  19
ATOM     19  O   UNL     1     -38.651  26.570   2.811  0.00  0.00    -0.378 OA
ATOM     20  H   UNL     1     -39.541  26.473   2.438  0.00  0.00    +0.211 HD
ENDBRANCH   3  19
BRANCH   4  21
ATOM     21  C   UNL     1     -37.088  22.506   1.632  0.00  0.00    +0.186 C 
BRANCH  21  22
ATOM     22  O   UNL     1     -35.796  22.158   2.097  0.00  0.00    -0.271 OA
BRANCH  22  23
ATOM     23  P   UNL     1     -35.525  20.629   2.558  0.00  0.00    +0.473 P 
ATOM     24  O   UNL     1     -34.337  19.975   1.916  0.00  0.00    -0.227 OA
BRANCH  23  25
ATOM     25  O   UNL     1     -36.943  19.894   2.300  0.00  0.00    -0.303 OA
ATOM     26  H   UNL     1     -37.575  20.161   2.985  0.00  0.00    +0.222 HD
ENDBRANCH  23  25
BRANCH  23  27
ATOM     27  O   UNL     1     -35.455  20.745   4.169  0.00  0.00    -0.303 OA
ATOM     28  H   UNL     1     -34.622  20.361   4.485  0.00  0.00    +0.222 HD
ENDBRANCH  23  27
ENDBRANCH  22  23
ENDBRANCH  21  22
ENDBRANCH   4  21
TORSDOF 9
ENDMDL
MODEL 4
REMARK VINA RESULT:      -5.6      1.138      1.249
REMARK  Name = 191942
REMARK  9 active torsions:
REMARK  status: ('A' for Active; 'I' for Inactive)
REMARK    1  A    between atoms: C_2  and  O_17
REMARK    2  A    between atoms: C_3  and  O_19
REMARK    3  A    between atoms: C_4  and  C_21
REMARK    4  A    between atoms: C_5  and  N_8
REMARK    5  A    between atoms: C_12  and  O_15
REMARK    6  A    between atoms: C_21  and  O_22
REMARK    7  A    between atoms: O_22  and  P_23
REMARK    8  A    between atoms: P_23  and  O_25
REMARK    9  A    between atoms: P_23  and  O_27
REMARK                            x       y       z     vdW  Elec       q    Type
REMARK                         _______ _______ _______ _____ _____    ______ ____
ROOT
ATOM      1  O   UNL     1     -36.892  23.296   3.836  0.00  0.00    -0.333 OA
ATOM      2  C   UNL     1     -35.532  21.655   2.805  0.00  0.00    +0.171 C 
ATOM      3  C   UNL     1     -36.814  21.786   2.011  0.00  0.00    +0.187 C 
ATOM      4  C   UNL     1     -35.510  22.956   3.595  0.00  0.00    +0.176 C 
ATOM      5  C   UNL     1     -37.732  22.475   3.007  0.00  0.00    +0.229 C 
ENDROOT
BRANCH   5   8
ATOM      6  O   UNL     1     -40.198  21.543   1.998  0.00  0.00    -0.252 OA
ATOM      7  O   UNL     1     -41.423  25.744   0.563  0.00  0.00    -0.266 OA
ATOM      8  N   UNL     1     -38.711  23.307   2.367  0.00  0.00    -0.214 N 
ATOM      9  N   UNL     1     -40.802  23.639   1.287  0.00  0.00    -0.233 N 
ATOM     10  C   UNL     1     -38.471  24.667   2.212  0.00  0.00    +0.113 C 
ATOM     11  C   UNL     1     -39.917  22.740   1.895  0.00  0.00    +0.316 C 
ATOM     12  C   UNL     1     -39.322  25.516   1.629  0.00  0.00    +0.207 C 
ATOM     13  C   UNL     1     -40.611  25.001   1.107  0.00  0.00    +0.288 C 
ATOM     14  H   UNL     1     -41.648  23.265   0.950  0.00  0.00    +0.160 HD
BRANCH  12  15
ATOM     15  O   UNL     1     -39.069  26.861   1.484  0.00  0.00    -0.466 OA
ATOM     16  C   UNL     1     -37.749  27.078   1.020  0.00  0.00    +0.253 C 
ENDBRANCH  12  15
ENDBRANCH   5   8
BRANCH   2  17
ATOM     17  O   UNL     1     -35.634  20.577   3.736  0.00  0.00    -0.379 OA
ATOM     18  H   UNL     1     -36.500  20.609   4.174  0.00  0.00    +0.211 HD
ENDBRANCH   2  17
BRANCH   3  19
ATOM     19  O   UNL     1     -37.315  20.534   1.588  0.00  0.00    -0.378 OA
ATOM     20  H   UNL     1     -38.261  20.480   1.792  0.00  0.00    +0.211 HD
ENDBRANCH   3  19
BRANCH   4  21
ATOM     21  C   UNL     1     -34.863  24.108   2.838  0.00  0.00    +0.186 C 
BRANCH  21  22
ATOM     22  O   UNL     1     -35.521  25.311   3.193  0.00  0.00    -0.271 OA
BRANCH  22  23
ATOM     23  P   UNL     1     -35.048  26.086   4.534  0.00  0.00    +0.473 P 
ATOM     24  O   UNL     1     -33.699  25.685   5.055  0.00  0.00    -0.227 OA
BRANCH  23  25
ATOM     25  O   UNL     1     -36.279  25.866   5.559  0.00  0.00    -0.303 OA
ATOM     26  H   UNL     1     -37.030  25.476   5.084  0.00  0.00    +0.222 HD
ENDBRANCH  23  25
BRANCH  23  27
ATOM     27  O   UNL     1     -35.184  27.642   4.118  0.00  0.00    -0.303 OA
ATOM     28  H   UNL     1     -34.440  27.892   3.548  0.00  0.00    +0.222 HD
ENDBRANCH  23  27
ENDBRANCH  22  23
ENDBRANCH  21  22
ENDBRANCH   4  21
TORSDOF 9
ENDMDL
MODEL 5
REMARK VINA RESULT:      -5.5      2.082      2.955
REMARK  Name = 191942
REMARK  9 active torsions:
REMARK  status: ('A' for Active; 'I' for Inactive)
REMARK    1  A    between atoms: C_2  and  O_17
REMARK    2  A    between atoms: C_3  and  O_19
REMARK    3  A    between atoms: C_4  and  C_21
REMARK    4  A    between atoms: C_5  and  N_8
REMARK    5  A    between atoms: C_12  and  O_15
REMARK    6  A    between atoms: C_21  and  O_22
REMARK    7  A    between atoms: O_22  and  P_23
REMARK    8  A    between atoms: P_23  and  O_25
REMARK    9  A    between atoms: P_23  and  O_27
REMARK                            x       y       z     vdW  Elec       q    Type
REMARK                         _______ _______ _______ _____ _____    ______ ____
ROOT
ATOM      1  O   UNL     1     -36.708  24.080   4.600  0.00  0.00    -0.333 OA
ATOM      2  C   UNL     1     -35.174  22.494   5.461  0.00  0.00    +0.171 C 
ATOM      3  C   UNL     1     -35.503  22.120   4.031  0.00  0.00    +0.187 C 
ATOM      4  C   UNL     1     -35.598  23.955   5.515  0.00  0.00    +0.176 C 
ATOM      5  C   UNL     1     -36.788  22.894   3.791  0.00  0.00    +0.229 C 
ENDROOT
BRANCH   5   8
ATOM      6  O   UNL     1     -39.275  23.427   2.566  0.00  0.00    -0.252 OA
ATOM      7  O   UNL     1     -37.302  24.354  -1.490  0.00  0.00    -0.266 OA
ATOM      8  N   UNL     1     -36.949  23.278   2.417  0.00  0.00    -0.214 N 
ATOM      9  N   UNL     1     -38.285  23.889   0.549  0.00  0.00    -0.233 N 
ATOM     10  C   UNL     1     -35.833  23.407   1.598  0.00  0.00    +0.113 C 
ATOM     11  C   UNL     1     -38.242  23.522   1.900  0.00  0.00    +0.316 C 
ATOM     12  C   UNL     1     -35.886  23.757   0.310  0.00  0.00    +0.207 C 
ATOM     13  C   UNL     1     -37.205  24.031  -0.310  0.00  0.00    +0.288 C 
ATOM     14  H   UNL     1     -39.175  24.063   0.168  0.00  0.00    +0.160 HD
BRANCH  12  15
ATOM     15  O   UNL     1     -34.771  23.881  -0.488  0.00  0.00    -0.466 OA
ATOM     16  C   UNL     1     -33.596  23.560   0.235  0.00  0.00    +0.253 C 
ENDBRANCH  12  15
ENDBRANCH   5   8
BRANCH   2  17
ATOM     17  O   UNL     1     -36.001  21.763   6.366  0.00  0.00    -0.379 OA
ATOM     18  H   UNL     1     -35.893  20.812   6.207  0.00  0.00    +0.211 HD
ENDBRANCH   2  17
BRANCH   3  19
ATOM     19  O   UNL     1     -35.670  20.727   3.865  0.00  0.00    -0.378 OA
ATOM     20  H   UNL     1     -36.376  20.561   3.222  0.00  0.00    +0.211 HD
ENDBRANCH   3  19
BRANCH   4  21
ATOM     21  C   UNL     1     -34.504  24.916   5.066  0.00  0.00    +0.186 C 
BRANCH  21  22
ATOM     22  O   UNL     1     -35.069  26.205   4.909  0.00  0.00    -0.271 OA
BRANCH  22  23
ATOM     23  P   UNL     1     -35.118  26.852   3.425  0.00  0.00    +0.473 P 
ATOM     24  O   UNL     1     -34.104  26.309   2.462  0.00  0.00    -0.227 OA
BRANCH  23  25
ATOM     25  O   UNL     1     -35.029  28.444   3.698  0.00  0.00    -0.303 OA
ATOM     26  H   UNL     1     -35.838  28.741   4.144  0.00  0.00    +0.222 HD
ENDBRANCH  23  25
BRANCH  23  27
ATOM     27  O   UNL     1     -36.660  26.636   2.988  0.00  0.00    -0.303 OA
ATOM     28  H   UNL     1     -37.046  27.488   2.729  0.00  0.00    +0.222 HD
ENDBRANCH  23  27
ENDBRANCH  22  23
ENDBRANCH  21  22
ENDBRANCH   4  21
TORSDOF 9
ENDMDL
MODEL 6
REMARK VINA RESULT:      -5.5      1.802      2.405
REMARK  Name = 191942
REMARK  9 active torsions:
REMARK  status: ('A' for Active; 'I' for Inactive)
REMARK    1  A    between atoms: C_2  and  O_17
REMARK    2  A    between atoms: C_3  and  O_19
REMARK    3  A    between atoms: C_4  and  C_21
REMARK    4  A    between atoms: C_5  and  N_8
REMARK    5  A    between atoms: C_12  and  O_15
REMARK    6  A    between atoms: C_21  and  O_22
REMARK    7  A    between atoms: O_22  and  P_23
REMARK    8  A    between atoms: P_23  and  O_25
REMARK    9  A    between atoms: P_23  and  O_27
REMARK                            x       y       z     vdW  Elec       q    Type
REMARK                         _______ _______ _______ _____ _____    ______ ____
ROOT
ATOM      1  O   UNL     1     -36.349  25.174   5.331  0.00  0.00    -0.333 OA
ATOM      2  C   UNL     1     -35.383  23.027   5.076  0.00  0.00    +0.171 C 
ATOM      3  C   UNL     1     -36.290  23.291   3.894  0.00  0.00    +0.187 C 
ATOM      4  C   UNL     1     -35.144  24.430   5.616  0.00  0.00    +0.176 C 
ATOM      5  C   UNL     1     -37.159  24.425   4.410  0.00  0.00    +0.229 C 
ENDROOT
BRANCH   5   8
ATOM      6  O   UNL     1     -39.816  24.562   3.466  0.00  0.00    -0.252 OA
ATOM      7  O   UNL     1     -38.760  27.808   0.376  0.00  0.00    -0.266 OA
ATOM      8  N   UNL     1     -37.602  25.299   3.361  0.00  0.00    -0.214 N 
ATOM      9  N   UNL     1     -39.282  26.180   1.930  0.00  0.00    -0.233 N 
ATOM     10  C   UNL     1     -36.696  26.151   2.740  0.00  0.00    +0.113 C 
ATOM     11  C   UNL     1     -38.958  25.290   2.961  0.00  0.00    +0.316 C 
ATOM     12  C   UNL     1     -37.017  26.996   1.756  0.00  0.00    +0.207 C 
ATOM     13  C   UNL     1     -38.420  27.048   1.279  0.00  0.00    +0.288 C 
ATOM     14  H   UNL     1     -40.222  26.190   1.636  0.00  0.00    +0.160 HD
BRANCH  12  15
ATOM     15  O   UNL     1     -36.108  27.833   1.152  0.00  0.00    -0.466 OA
ATOM     16  C   UNL     1     -35.198  27.098   0.353  0.00  0.00    +0.253 C 
ENDBRANCH  12  15
ENDBRANCH   5   8
BRANCH   2  17
ATOM     17  O   UNL     1     -36.078  22.283   6.077  0.00  0.00    -0.379 OA
ATOM     18  H   UNL     1     -35.737  22.522   6.953  0.00  0.00    +0.211 HD
ENDBRANCH   2  17
BRANCH   3  19
ATOM     19  O   UNL     1     -37.043  22.152   3.529  0.00  0.00    -0.378 OA
ATOM     20  H   UNL     1     -36.475  21.531   3.047  0.00  0.00    +0.211 HD
ENDBRANCH   3  19
BRANCH   4  21
ATOM     21  C   UNL     1     -33.977  25.142   4.946  0.00  0.00    +0.186 C 
BRANCH  21  22
ATOM     22  O   UNL     1     -34.133  26.538   5.128  0.00  0.00    -0.271 OA
BRANCH  22  23
ATOM     23  P   UNL     1     -33.164  27.539   4.301  0.00  0.00    +0.473 P 
ATOM     24  O   UNL     1     -32.142  26.861   3.437  0.00  0.00    -0.227 OA
BRANCH  23  25
ATOM     25  O   UNL     1     -32.567  28.521   5.439  0.00  0.00    -0.303 OA
ATOM     26  H   UNL     1     -31.994  28.014   6.036  0.00  0.00    +0.222 HD
ENDBRANCH  23  25
BRANCH  23  27
ATOM     27  O   UNL     1     -34.211  28.482   3.509  0.00  0.00    -0.303 OA
ATOM     28  H   UNL     1     -35.098  28.373   3.889  0.00  0.00    +0.222 HD
ENDBRANCH  23  27
ENDBRANCH  22  23
ENDBRANCH  21  22
ENDBRANCH   4  21
TORSDOF 9
ENDMDL
MODEL 7
REMARK VINA RESULT:      -5.3      2.781      4.944
REMARK  Name = 191942
REMARK  9 active torsions:
REMARK  status: ('A' for Active; 'I' for Inactive)
REMARK    1  A    between atoms: C_2  and  O_17
REMARK    2  A    between atoms: C_3  and  O_19
REMARK    3  A    between atoms: C_4  and  C_21
REMARK    4  A    between atoms: C_5  and  N_8
REMARK    5  A    between atoms: C_12  and  O_15
REMARK    6  A    between atoms: C_21  and  O_22
REMARK    7  A    between atoms: O_22  and  P_23
REMARK    8  A    between atoms: P_23  and  O_25
REMARK    9  A    between atoms: P_23  and  O_27
REMARK                            x       y       z     vdW  Elec       q    Type
REMARK                         _______ _______ _______ _____ _____    ______ ____
ROOT
ATOM      1  O   UNL     1     -36.449  24.182   2.702  0.00  0.00    -0.333 OA
ATOM      2  C   UNL     1     -35.510  24.441   4.860  0.00  0.00    +0.171 C 
ATOM      3  C   UNL     1     -35.749  22.967   4.612  0.00  0.00    +0.187 C 
ATOM      4  C   UNL     1     -35.532  25.011   3.449  0.00  0.00    +0.176 C 
ATOM      5  C   UNL     1     -36.742  22.999   3.463  0.00  0.00    +0.229 C 
ENDROOT
BRANCH   5   8
ATOM      6  O   UNL     1     -38.881  21.882   1.998  0.00  0.00    -0.252 OA
ATOM      7  O   UNL     1     -36.198  18.598   0.203  0.00  0.00    -0.266 OA
ATOM      8  N   UNL     1     -36.626  21.853   2.605  0.00  0.00    -0.214 N 
ATOM      9  N   UNL     1     -37.538  20.249   1.107  0.00  0.00    -0.233 N 
ATOM     10  C   UNL     1     -35.397  21.219   2.457  0.00  0.00    +0.113 C 
ATOM     11  C   UNL     1     -37.762  21.371   1.915  0.00  0.00    +0.316 C 
ATOM     12  C   UNL     1     -35.196  20.149   1.684  0.00  0.00    +0.207 C 
ATOM     13  C   UNL     1     -36.336  19.582   0.925  0.00  0.00    +0.288 C 
ATOM     14  H   UNL     1     -38.315  19.897   0.617  0.00  0.00    +0.160 HD
BRANCH  12  15
ATOM     15  O   UNL     1     -33.973  19.533   1.548  0.00  0.00    -0.466 OA
ATOM     16  C   UNL     1     -33.151  20.239   0.637  0.00  0.00    +0.253 C 
ENDBRANCH  12  15
ENDBRANCH   5   8
BRANCH   2  17
ATOM     17  O   UNL     1     -36.605  25.006   5.580  0.00  0.00    -0.379 OA
ATOM     18  H   UNL     1     -36.328  25.202   6.489  0.00  0.00    +0.211 HD
ENDBRANCH   2  17
BRANCH   3  19
ATOM     19  O   UNL     1     -36.259  22.306   5.752  0.00  0.00    -0.378 OA
ATOM     20  H   UNL     1     -36.349  22.941   6.480  0.00  0.00    +0.211 HD
ENDBRANCH   3  19
BRANCH   4  21
ATOM     21  C   UNL     1     -34.177  24.960   2.757  0.00  0.00    +0.186 C 
BRANCH  21  22
ATOM     22  O   UNL     1     -33.205  25.525   3.620  0.00  0.00    -0.271 OA
BRANCH  22  23
ATOM     23  P   UNL     1     -32.968  27.126   3.575  0.00  0.00    +0.473 P 
ATOM     24  O   UNL     1     -33.663  27.839   2.453  0.00  0.00    -0.227 OA
BRANCH  23  25
ATOM     25  O   UNL     1     -31.358  27.276   3.598  0.00  0.00    -0.303 OA
ATOM     26  H   UNL     1     -31.019  27.263   2.689  0.00  0.00    +0.222 HD
ENDBRANCH  23  25
BRANCH  23  27
ATOM     27  O   UNL     1     -33.406  27.597   5.059  0.00  0.00    -0.303 OA
ATOM     28  H   UNL     1     -32.966  27.038   5.719  0.00  0.00    +0.222 HD
ENDBRANCH  23  27
ENDBRANCH  22  23
ENDBRANCH  21  22
ENDBRANCH   4  21
TORSDOF 9
ENDMDL
MODEL 8
REMARK VINA RESULT:      -5.3      3.619      5.964
REMARK  Name = 191942
REMARK  9 active torsions:
REMARK  status: ('A' for Active; 'I' for Inactive)
REMARK    1  A    between atoms: C_2  and  O_17
REMARK    2  A    between atoms: C_3  and  O_19
REMARK    3  A    between atoms: C_4  and  C_21
REMARK    4  A    between atoms: C_5  and  N_8
REMARK    5  A    between atoms: C_12  and  O_15
REMARK    6  A    between atoms: C_21  and  O_22
REMARK    7  A    between atoms: O_22  and  P_23
REMARK    8  A    between atoms: P_23  and  O_25
REMARK    9  A    between atoms: P_23  and  O_27
REMARK                            x       y       z     vdW  Elec       q    Type
REMARK                         _______ _______ _______ _____ _____    ______ ____
ROOT
ATOM      1  O   UNL     1     -34.657  19.991   2.562  0.00  0.00    -0.333 OA
ATOM      2  C   UNL     1     -36.279  19.799   0.847  0.00  0.00    +0.171 C 
ATOM      3  C   UNL     1     -36.643  20.977   1.725  0.00  0.00    +0.187 C 
ATOM      4  C   UNL     1     -34.808  19.592   1.182  0.00  0.00    +0.176 C 
ATOM      5  C   UNL     1     -35.839  20.693   2.982  0.00  0.00    +0.229 C 
ENDROOT
BRANCH   5   8
ATOM      6  O   UNL     1     -35.365  20.858   5.760  0.00  0.00    -0.252 OA
ATOM      7  O   UNL     1     -34.353  25.344   5.521  0.00  0.00    -0.266 OA
ATOM      8  N   UNL     1     -35.449  21.892   3.668  0.00  0.00    -0.214 N 
ATOM      9  N   UNL     1     -34.861  23.092   5.633  0.00  0.00    -0.233 N 
ATOM     10  C   UNL     1     -35.283  23.075   2.956  0.00  0.00    +0.113 C 
ATOM     11  C   UNL     1     -35.237  21.868   5.065  0.00  0.00    +0.316 C 
ATOM     12  C   UNL     1     -34.925  24.237   3.508  0.00  0.00    +0.207 C 
ATOM     13  C   UNL     1     -34.683  24.297   4.970  0.00  0.00    +0.288 C 
ATOM     14  H   UNL     1     -34.708  23.099   6.605  0.00  0.00    +0.160 HD
BRANCH  12  15
ATOM     15  O   UNL     1     -34.765  25.399   2.789  0.00  0.00    -0.466 OA
ATOM     16  C   UNL     1     -36.021  25.951   2.437  0.00  0.00    +0.253 C 
ENDBRANCH  12  15
ENDBRANCH   5   8
BRANCH   2  17
ATOM     17  O   UNL     1     -36.992  18.634   1.261  0.00  0.00    -0.379 OA
ATOM     18  H   UNL     1     -37.173  18.686   2.213  0.00  0.00    +0.211 HD
ENDBRANCH   2  17
BRANCH   3  19
ATOM     19  O   UNL     1     -38.032  21.052   1.974  0.00  0.00    -0.378 OA
ATOM     20  H   UNL     1     -38.255  21.942   2.288  0.00  0.00    +0.211 HD
ENDBRANCH   3  19
BRANCH   4  21
ATOM     21  C   UNL     1     -33.872  20.445   0.337  0.00  0.00    +0.186 C 
BRANCH  21  22
ATOM     22  O   UNL     1     -32.537  20.179   0.729  0.00  0.00    -0.271 OA
BRANCH  22  23
ATOM     23  P   UNL     1     -31.857  18.785   0.264  0.00  0.00    +0.473 P 
ATOM     24  O   UNL     1     -32.486  18.142  -0.937  0.00  0.00    -0.227 OA
BRANCH  23  25
ATOM     25  O   UNL     1     -31.861  17.888   1.609  0.00  0.00    -0.303 OA
ATOM     26  H   UNL     1     -32.648  17.322   1.619  0.00  0.00    +0.222 HD
ENDBRANCH  23  25
BRANCH  23  27
ATOM     27  O   UNL     1     -30.300  19.185   0.088  0.00  0.00    -0.303 OA
ATOM     28  H   UNL     1     -29.744  18.518   0.521  0.00  0.00    +0.222 HD
ENDBRANCH  23  27
ENDBRANCH  22  23
ENDBRANCH  21  22
ENDBRANCH   4  21
TORSDOF 9
ENDMDL
MODEL 9
REMARK VINA RESULT:      -5.2      3.460      5.812
REMARK  Name = 191942
REMARK  9 active torsions:
REMARK  status: ('A' for Active; 'I' for Inactive)
REMARK    1  A    between atoms: C_2  and  O_17
REMARK    2  A    between atoms: C_3  and  O_19
REMARK    3  A    between atoms: C_4  and  C_21
REMARK    4  A    between atoms: C_5  and  N_8
REMARK    5  A    between atoms: C_12  and  O_15
REMARK    6  A    between atoms: C_21  and  O_22
REMARK    7  A    between atoms: O_22  and  P_23
REMARK    8  A    between atoms: P_23  and  O_25
REMARK    9  A    between atoms: P_23  and  O_27
REMARK                            x       y       z     vdW  Elec       q    Type
REMARK                         _______ _______ _______ _____ _____    ______ ____
ROOT
ATOM      1  O   UNL     1     -35.670  21.121   3.360  0.00  0.00    -0.333 OA
ATOM      2  C   UNL     1     -37.038  21.118   1.427  0.00  0.00    +0.171 C 
ATOM      3  C   UNL     1     -36.842  22.550   1.877  0.00  0.00    +0.187 C 
ATOM      4  C   UNL     1     -35.891  20.403   2.127  0.00  0.00    +0.176 C 
ATOM      5  C   UNL     1     -36.382  22.369   3.313  0.00  0.00    +0.229 C 
ENDROOT
BRANCH   5   8
ATOM      6  O   UNL     1     -35.984  23.101   6.010  0.00  0.00    -0.252 OA
ATOM      7  O   UNL     1     -33.007  26.426   4.876  0.00  0.00    -0.266 OA
ATOM      8  N   UNL     1     -35.507  23.421   3.747  0.00  0.00    -0.214 N 
ATOM      9  N   UNL     1     -34.501  24.755   5.437  0.00  0.00    -0.233 N 
ATOM     10  C   UNL     1     -34.789  24.156   2.810  0.00  0.00    +0.113 C 
ATOM     11  C   UNL     1     -35.379  23.709   5.125  0.00  0.00    +0.316 C 
ATOM     12  C   UNL     1     -33.954  25.151   3.120  0.00  0.00    +0.207 C 
ATOM     13  C   UNL     1     -33.763  25.516   4.544  0.00  0.00    +0.288 C 
ATOM     14  H   UNL     1     -34.397  24.972   6.392  0.00  0.00    +0.160 HD
BRANCH  12  15
ATOM     15  O   UNL     1     -33.250  25.869   2.180  0.00  0.00    -0.466 OA
ATOM     16  C   UNL     1     -33.164  25.155   0.960  0.00  0.00    +0.253 C 
ENDBRANCH  12  15
ENDBRANCH   5   8
BRANCH   2  17
ATOM     17  O   UNL     1     -38.262  20.599   1.947  0.00  0.00    -0.379 OA
ATOM     18  H   UNL     1     -38.528  21.116   2.725  0.00  0.00    +0.211 HD
ENDBRANCH   2  17
BRANCH   3  19
ATOM     19  O   UNL     1     -38.028  23.311   1.778  0.00  0.00    -0.378 OA
ATOM     20  H   UNL     1     -38.246  23.683   2.647  0.00  0.00    +0.211 HD
ENDBRANCH   3  19
BRANCH   4  21
ATOM     21  C   UNL     1     -34.593  20.422   1.329  0.00  0.00    +0.186 C 
BRANCH  21  22
ATOM     22  O   UNL     1     -33.737  19.411   1.831  0.00  0.00    -0.271 OA
BRANCH  22  23
ATOM     23  P   UNL     1     -33.068  18.373   0.784  0.00  0.00    +0.473 P 
ATOM     24  O   UNL     1     -32.598  18.985  -0.503  0.00  0.00    -0.227 OA
BRANCH  23  25
ATOM     25  O   UNL     1     -34.182  17.212   0.631  0.00  0.00    -0.303 OA
ATOM     26  H   UNL     1     -34.397  16.851   1.506  0.00  0.00    +0.222 HD
ENDBRANCH  23  25
BRANCH  23  27
ATOM     27  O   UNL     1     -31.913  17.665   1.667  0.00  0.00    -0.303 OA
ATOM     28  H   UNL     1     -32.274  17.415   2.532  0.00  0.00    +0.222 HD
ENDBRANCH  23  27
ENDBRANCH  22  23
ENDBRANCH  21  22
ENDBRANCH   4  21
TORSDOF 9
ENDMDL
