MODEL 1
REMARK VINA RESULT:      -7.3      0.000      0.000
REMARK  Name = 194912
REMARK  11 active torsions:
REMARK  status: ('A' for Active; 'I' for Inactive)
REMARK    1  A    between atoms: N_2  and  C_7
REMARK    2  A    between atoms: C_3  and  C_21
REMARK    3  A    between atoms: C_11  and  C_20
REMARK    4  A    between atoms: C_21  and  N_23
REMARK    5  A    between atoms: C_21  and  C_33
REMARK    6  A    between atoms: C_24  and  C_26
REMARK    7  A    between atoms: C_26  and  C_27
REMARK    8  A    between atoms: C_27  and  C_28
REMARK    9  A    between atoms: C_28  and  C_30
REMARK   10  A    between atoms: C_30  and  O_31
REMARK   11  A    between atoms: C_33  and  C_34
REMARK                            x       y       z     vdW  Elec       q    Type
REMARK                         _______ _______ _______ _____ _____    ______ ____
ROOT
ATOM      1  O   UNL     1     -34.548  29.980   3.525  0.00  0.00    -0.273 OA
ATOM      2  N   UNL     1     -35.944  30.084   1.636  0.00  0.00    -0.283 N 
ATOM      3  C   UNL     1     -35.182  29.439   2.623  0.00  0.00    +0.244 C 
ATOM      4  H   UNL     1     -36.355  29.498   0.961  0.00  0.00    +0.155 HD
ENDROOT
BRANCH   2   7
ATOM      5  O   UNL     1     -40.256  35.689   2.528  0.00  0.00    -0.270 OA
ATOM      6  N   UNL     1     -38.856  33.889   2.235  0.00  0.00    -0.280 N 
ATOM      7  C   UNL     1     -36.191  31.449   1.490  0.00  0.00    +0.052 C 
ATOM      8  C   UNL     1     -36.684  34.207   1.192  0.00  0.00    +0.018 C 
ATOM      9  C   UNL     1     -37.636  33.361   1.782  0.00  0.00    +0.052 C 
ATOM     10  C   UNL     1     -37.394  31.991   1.932  0.00  0.00    +0.029 C 
ATOM     11  C   UNL     1     -36.996  35.645   1.062  0.00  0.00    +0.077 C 
ATOM     12  C   UNL     1     -35.234  32.272   0.901  0.00  0.00    +0.015 C 
ATOM     13  C   UNL     1     -35.478  33.641   0.753  0.00  0.00    +0.002 C 
ATOM     14  C   UNL     1     -38.175  36.108   1.508  0.00  0.00    +0.062 C 
ATOM     15  C   UNL     1     -39.191  35.221   2.135  0.00  0.00    +0.250 C 
ATOM     16  H   UNL     1     -39.507  33.274   2.645  0.00  0.00    +0.155 HD
BRANCH  11  20
ATOM     17  F   UNL     1     -36.388  37.854   0.555  0.00  0.00    -0.166 F 
ATOM     18  F   UNL     1     -34.789  36.449   1.025  0.00  0.00    -0.166 F 
ATOM     19  F   UNL     1     -35.844  36.304  -0.877  0.00  0.00    -0.166 F 
ATOM     20  C   UNL     1     -35.994  36.572   0.434  0.00  0.00    +0.419 C 
ENDBRANCH  11  20
ENDBRANCH   2   7
BRANCH   3  21
ATOM     21  C   UNL     1     -35.159  27.921   2.428  0.00  0.00    +0.153 C 
BRANCH  21  23
ATOM     22  O   UNL     1     -33.152  26.254   3.626  0.00  0.00    -0.275 OA
ATOM     23  N   UNL     1     -35.203  27.333   3.745  0.00  0.00    -0.298 N 
ATOM     24  C   UNL     1     -34.178  26.537   4.237  0.00  0.00    +0.223 C 
ATOM     25  H   UNL     1     -35.989  27.501   4.314  0.00  0.00    +0.150 HD
BRANCH  24  26
ATOM     26  C   UNL     1     -34.489  26.021   5.632  0.00  0.00    +0.086 C 
BRANCH  26  27
ATOM     27  C   UNL     1     -35.433  24.821   5.648  0.00  0.00    +0.021 C 
BRANCH  27  28
ATOM     28  C   UNL     1     -34.774  23.553   5.101  0.00  0.00    +0.110 C 
BRANCH  28  30
ATOM     29  O   UNL     1     -36.023  22.152   6.652  0.00  0.00    -0.250 OA
ATOM     30  C   UNL     1     -35.488  22.303   5.563  0.00  0.00    +0.314 C 
BRANCH  30  31
ATOM     31  O   UNL     1     -35.474  21.341   4.604  0.00  0.00    -0.480 OA
ATOM     32  H   UNL     1     -34.800  20.690   4.603  0.00  0.00    +0.295 HD
ENDBRANCH  30  31
ENDBRANCH  28  30
ENDBRANCH  27  28
ENDBRANCH  26  27
ENDBRANCH  24  26
ENDBRANCH  21  23
BRANCH  21  33
ATOM     33  C   UNL     1     -36.347  27.443   1.585  0.00  0.00    +0.055 C 
BRANCH  33  34
ATOM     34  C   UNL     1     -36.861  26.083   1.990  0.00  0.00    -0.020 C 
ATOM     35  C   UNL     1     -37.987  25.994   2.793  0.00  0.00    -0.004 C 
ATOM     36  C   UNL     1     -36.199  24.947   1.550  0.00  0.00    -0.004 C 
ATOM     37  C   UNL     1     -38.463  24.738   3.168  0.00  0.00    -0.000 C 
ATOM     38  C   UNL     1     -36.674  23.691   1.925  0.00  0.00    -0.000 C 
ATOM     39  C   UNL     1     -37.807  23.585   2.733  0.00  0.00    -0.000 C 
ENDBRANCH  33  34
ENDBRANCH  21  33
ENDBRANCH   3  21
TORSDOF 11
ENDMDL
MODEL 2
REMARK VINA RESULT:      -7.1      5.539      9.875
REMARK  Name = 194912
REMARK  11 active torsions:
REMARK  status: ('A' for Active; 'I' for Inactive)
REMARK    1  A    between atoms: N_2  and  C_7
REMARK    2  A    between atoms: C_3  and  C_21
REMARK    3  A    between atoms: C_11  and  C_20
REMARK    4  A    between atoms: C_21  and  N_23
REMARK    5  A    between atoms: C_21  and  C_33
REMARK    6  A    between atoms: C_24  and  C_26
REMARK    7  A    between atoms: C_26  and  C_27
REMARK    8  A    between atoms: C_27  and  C_28
REMARK    9  A    between atoms: C_28  and  C_30
REMARK   10  A    between atoms: C_30  and  O_31
REMARK   11  A    between atoms: C_33  and  C_34
REMARK                            x       y       z     vdW  Elec       q    Type
REMARK                         _______ _______ _______ _____ _____    ______ ____
ROOT
ATOM      1  O   UNL     1     -33.706  28.269   1.784  0.00  0.00    -0.273 OA
ATOM      2  N   UNL     1     -34.914  28.098   3.794  0.00  0.00    -0.283 N 
ATOM      3  C   UNL     1     -34.287  28.779   2.738  0.00  0.00    +0.244 C 
ATOM      4  H   UNL     1     -35.298  28.664   4.501  0.00  0.00    +0.155 HD
ENDROOT
BRANCH   2   7
ATOM      5  O   UNL     1     -36.795  21.731   1.197  0.00  0.00    -0.270 OA
ATOM      6  N   UNL     1     -36.185  23.779   2.046  0.00  0.00    -0.280 N 
ATOM      7  C   UNL     1     -35.060  26.721   3.967  0.00  0.00    +0.052 C 
ATOM      8  C   UNL     1     -35.353  23.942   4.323  0.00  0.00    +0.018 C 
ATOM      9  C   UNL     1     -35.692  24.555   3.108  0.00  0.00    +0.052 C 
ATOM     10  C   UNL     1     -35.547  25.935   2.927  0.00  0.00    +0.029 C 
ATOM     11  C   UNL     1     -35.527  22.480   4.454  0.00  0.00    +0.077 C 
ATOM     12  C   UNL     1     -34.720  26.131   5.182  0.00  0.00    +0.015 C 
ATOM     13  C   UNL     1     -34.864  24.751   5.359  0.00  0.00    +0.002 C 
ATOM     14  C   UNL     1     -36.003  21.777   3.414  0.00  0.00    +0.062 C 
ATOM     15  C   UNL     1     -36.364  22.416   2.121  0.00  0.00    +0.250 C 
ATOM     16  H   UNL     1     -36.415  24.233   1.203  0.00  0.00    +0.155 HD
BRANCH  11  20
ATOM     17  F   UNL     1     -35.939  22.257   6.753  0.00  0.00    -0.166 F 
ATOM     18  F   UNL     1     -35.357  20.468   5.652  0.00  0.00    -0.166 F 
ATOM     19  F   UNL     1     -33.884  22.019   6.069  0.00  0.00    -0.166 F 
ATOM     20  C   UNL     1     -35.172  21.799   5.745  0.00  0.00    +0.419 C 
ENDBRANCH  11  20
ENDBRANCH   2   7
BRANCH   3  21
ATOM     21  C   UNL     1     -34.342  30.297   2.924  0.00  0.00    +0.153 C 
BRANCH  21  23
ATOM     22  O   UNL     1     -31.577  29.984   3.631  0.00  0.00    -0.275 OA
ATOM     23  N   UNL     1     -33.745  30.580   4.207  0.00  0.00    -0.298 N 
ATOM     24  C   UNL     1     -32.391  30.395   4.453  0.00  0.00    +0.223 C 
ATOM     25  H   UNL     1     -34.317  30.915   4.934  0.00  0.00    +0.150 HD
BRANCH  24  26
ATOM     26  C   UNL     1     -32.029  30.738   5.888  0.00  0.00    +0.086 C 
BRANCH  26  27
ATOM     27  C   UNL     1     -31.559  29.538   6.707  0.00  0.00    +0.021 C 
BRANCH  27  28
ATOM     28  C   UNL     1     -30.035  29.405   6.723  0.00  0.00    +0.110 C 
BRANCH  28  30
ATOM     29  O   UNL     1     -29.478  27.874   4.913  0.00  0.00    -0.250 OA
ATOM     30  C   UNL     1     -29.577  28.100   6.110  0.00  0.00    +0.314 C 
BRANCH  30  31
ATOM     31  O   UNL     1     -29.276  27.182   7.066  0.00  0.00    -0.480 OA
ATOM     32  H   UNL     1     -28.406  27.133   7.411  0.00  0.00    +0.295 HD
ENDBRANCH  30  31
ENDBRANCH  28  30
ENDBRANCH  27  28
ENDBRANCH  26  27
ENDBRANCH  24  26
ENDBRANCH  21  23
BRANCH  21  33
ATOM     33  C   UNL     1     -33.589  31.029   1.807  0.00  0.00    +0.055 C 
BRANCH  33  34
ATOM     34  C   UNL     1     -33.886  32.508   1.754  0.00  0.00    -0.020 C 
ATOM     35  C   UNL     1     -32.972  33.405   2.283  0.00  0.00    -0.004 C 
ATOM     36  C   UNL     1     -35.068  32.944   1.174  0.00  0.00    -0.004 C 
ATOM     37  C   UNL     1     -33.245  34.772   2.234  0.00  0.00    -0.000 C 
ATOM     38  C   UNL     1     -35.342  34.311   1.125  0.00  0.00    -0.000 C 
ATOM     39  C   UNL     1     -34.431  35.225   1.654  0.00  0.00    -0.000 C 
ENDBRANCH  33  34
ENDBRANCH  21  33
ENDBRANCH   3  21
TORSDOF 11
ENDMDL
MODEL 3
REMARK VINA RESULT:      -7.1      5.411      9.723
REMARK  Name = 194912
REMARK  11 active torsions:
REMARK  status: ('A' for Active; 'I' for Inactive)
REMARK    1  A    between atoms: N_2  and  C_7
REMARK    2  A    between atoms: C_3  and  C_21
REMARK    3  A    between atoms: C_11  and  C_20
REMARK    4  A    between atoms: C_21  and  N_23
REMARK    5  A    between atoms: C_21  and  C_33
REMARK    6  A    between atoms: C_24  and  C_26
REMARK    7  A    between atoms: C_26  and  C_27
REMARK    8  A    between atoms: C_27  and  C_28
REMARK    9  A    between atoms: C_28  and  C_30
REMARK   10  A    between atoms: C_30  and  O_31
REMARK   11  A    between atoms: C_33  and  C_34
REMARK                            x       y       z     vdW  Elec       q    Type
REMARK                         _______ _______ _______ _____ _____    ______ ____
ROOT
ATOM      1  O   UNL     1     -33.758  28.283   1.875  0.00  0.00    -0.273 OA
ATOM      2  N   UNL     1     -35.143  28.062   3.762  0.00  0.00    -0.283 N 
ATOM      3  C   UNL     1     -34.463  28.767   2.756  0.00  0.00    +0.244 C 
ATOM      4  H   UNL     1     -35.632  28.612   4.415  0.00  0.00    +0.155 HD
ENDROOT
BRANCH   2   7
ATOM      5  O   UNL     1     -36.200  21.525   1.123  0.00  0.00    -0.270 OA
ATOM      6  N   UNL     1     -35.857  23.629   1.986  0.00  0.00    -0.280 N 
ATOM      7  C   UNL     1     -35.212  26.682   3.954  0.00  0.00    +0.052 C 
ATOM      8  C   UNL     1     -35.349  23.896   4.348  0.00  0.00    +0.018 C 
ATOM      9  C   UNL     1     -35.566  24.459   3.081  0.00  0.00    +0.052 C 
ATOM     10  C   UNL     1     -35.498  25.842   2.882  0.00  0.00    +0.029 C 
ATOM     11  C   UNL     1     -35.432  22.428   4.496  0.00  0.00    +0.077 C 
ATOM     12  C   UNL     1     -34.993  26.142   5.219  0.00  0.00    +0.015 C 
ATOM     13  C   UNL     1     -35.061  24.759   5.415  0.00  0.00    +0.002 C 
ATOM     14  C   UNL     1     -35.714  21.671   3.423  0.00  0.00    +0.062 C 
ATOM     15  C   UNL     1     -35.945  22.257   2.076  0.00  0.00    +0.250 C 
ATOM     16  H   UNL     1     -36.005  24.048   1.108  0.00  0.00    +0.155 HD
BRANCH  11  20
ATOM     17  F   UNL     1     -35.566  20.503   5.831  0.00  0.00    -0.166 F 
ATOM     18  F   UNL     1     -33.904  21.866   6.188  0.00  0.00    -0.166 F 
ATOM     19  F   UNL     1     -35.922  22.425   6.794  0.00  0.00    -0.166 F 
ATOM     20  C   UNL     1     -35.204  21.800   5.841  0.00  0.00    +0.419 C 
ENDBRANCH  11  20
ENDBRANCH   2   7
BRANCH   3  21
ATOM     21  C   UNL     1     -34.639  30.280   2.899  0.00  0.00    +0.153 C 
BRANCH  21  23
ATOM     22  O   UNL     1     -31.815  30.770   2.746  0.00  0.00    -0.275 OA
ATOM     23  N   UNL     1     -33.779  30.698   3.979  0.00  0.00    -0.298 N 
ATOM     24  C   UNL     1     -32.418  30.910   3.806  0.00  0.00    +0.223 C 
ATOM     25  H   UNL     1     -34.171  30.837   4.872  0.00  0.00    +0.150 HD
BRANCH  24  26
ATOM     26  C   UNL     1     -31.743  31.313   5.106  0.00  0.00    +0.086 C 
BRANCH  26  27
ATOM     27  C   UNL     1     -30.903  30.203   5.733  0.00  0.00    +0.021 C 
BRANCH  27  28
ATOM     28  C   UNL     1     -31.711  29.335   6.698  0.00  0.00    +0.110 C 
BRANCH  28  30
ATOM     29  O   UNL     1     -32.008  27.667   4.949  0.00  0.00    -0.250 OA
ATOM     30  C   UNL     1     -31.963  27.953   6.137  0.00  0.00    +0.314 C 
BRANCH  30  31
ATOM     31  O   UNL     1     -32.134  27.039   7.128  0.00  0.00    -0.480 OA
ATOM     32  H   UNL     1     -32.846  27.128   7.730  0.00  0.00    +0.295 HD
ENDBRANCH  30  31
ENDBRANCH  28  30
ENDBRANCH  27  28
ENDBRANCH  26  27
ENDBRANCH  24  26
ENDBRANCH  21  23
BRANCH  21  33
ATOM     33  C   UNL     1     -34.272  31.016   1.604  0.00  0.00    +0.055 C 
BRANCH  33  34
ATOM     34  C   UNL     1     -34.917  32.375   1.483  0.00  0.00    -0.020 C 
ATOM     35  C   UNL     1     -36.281  32.462   1.256  0.00  0.00    -0.004 C 
ATOM     36  C   UNL     1     -34.133  33.512   1.602  0.00  0.00    -0.004 C 
ATOM     37  C   UNL     1     -36.878  33.718   1.144  0.00  0.00    -0.000 C 
ATOM     38  C   UNL     1     -34.729  34.768   1.489  0.00  0.00    -0.000 C 
ATOM     39  C   UNL     1     -36.102  34.872   1.261  0.00  0.00    -0.000 C 
ENDBRANCH  33  34
ENDBRANCH  21  33
ENDBRANCH   3  21
TORSDOF 11
ENDMDL
MODEL 4
REMARK VINA RESULT:      -7.0      5.649     10.557
REMARK  Name = 194912
REMARK  11 active torsions:
REMARK  status: ('A' for Active; 'I' for Inactive)
REMARK    1  A    between atoms: N_2  and  C_7
REMARK    2  A    between atoms: C_3  and  C_21
REMARK    3  A    between atoms: C_11  and  C_20
REMARK    4  A    between atoms: C_21  and  N_23
REMARK    5  A    between atoms: C_21  and  C_33
REMARK    6  A    between atoms: C_24  and  C_26
REMARK    7  A    between atoms: C_26  and  C_27
REMARK    8  A    between atoms: C_27  and  C_28
REMARK    9  A    between atoms: C_28  and  C_30
REMARK   10  A    between atoms: C_30  and  O_31
REMARK   11  A    between atoms: C_33  and  C_34
REMARK                            x       y       z     vdW  Elec       q    Type
REMARK                         _______ _______ _______ _____ _____    ______ ____
ROOT
ATOM      1  O   UNL     1     -31.702  27.991   3.515  0.00  0.00    -0.273 OA
ATOM      2  N   UNL     1     -33.948  28.002   4.209  0.00  0.00    -0.283 N 
ATOM      3  C   UNL     1     -32.733  28.585   3.816  0.00  0.00    +0.244 C 
ATOM      4  H   UNL     1     -34.665  28.629   4.457  0.00  0.00    +0.155 HD
ENDROOT
BRANCH   2   7
ATOM      5  O   UNL     1     -36.071  21.968   1.063  0.00  0.00    -0.270 OA
ATOM      6  N   UNL     1     -35.385  23.908   2.089  0.00  0.00    -0.280 N 
ATOM      7  C   UNL     1     -34.268  26.647   4.295  0.00  0.00    +0.052 C 
ATOM      8  C   UNL     1     -34.912  23.909   4.473  0.00  0.00    +0.018 C 
ATOM      9  C   UNL     1     -34.985  24.592   3.249  0.00  0.00    +0.052 C 
ATOM     10  C   UNL     1     -34.666  25.950   3.157  0.00  0.00    +0.029 C 
ATOM     11  C   UNL     1     -35.260  22.474   4.508  0.00  0.00    +0.077 C 
ATOM     12  C   UNL     1     -34.189  25.986   5.518  0.00  0.00    +0.015 C 
ATOM     13  C   UNL     1     -34.508  24.628   5.608  0.00  0.00    +0.002 C 
ATOM     14  C   UNL     1     -35.639  21.859   3.375  0.00  0.00    +0.062 C 
ATOM     15  C   UNL     1     -35.720  22.572   2.073  0.00  0.00    +0.250 C 
ATOM     16  H   UNL     1     -35.429  24.409   1.243  0.00  0.00    +0.155 HD
BRANCH  11  20
ATOM     17  F   UNL     1     -36.046  22.239   6.706  0.00  0.00    -0.166 F 
ATOM     18  F   UNL     1     -35.510  20.423   5.625  0.00  0.00    -0.166 F 
ATOM     19  F   UNL     1     -33.950  21.774   6.328  0.00  0.00    -0.166 F 
ATOM     20  C   UNL     1     -35.190  21.720   5.805  0.00  0.00    +0.419 C 
ENDBRANCH  11  20
ENDBRANCH   2   7
BRANCH   3  21
ATOM     21  C   UNL     1     -32.793  30.114   3.859  0.00  0.00    +0.153 C 
BRANCH  21  23
ATOM     22  O   UNL     1     -33.682  31.480   1.496  0.00  0.00    -0.275 OA
ATOM     23  N   UNL     1     -34.150  30.486   3.539  0.00  0.00    -0.298 N 
ATOM     24  C   UNL     1     -34.482  31.148   2.366  0.00  0.00    +0.223 C 
ATOM     25  H   UNL     1     -34.866  30.262   4.177  0.00  0.00    +0.150 HD
BRANCH  24  26
ATOM     26  C   UNL     1     -35.970  31.447   2.291  0.00  0.00    +0.086 C 
BRANCH  26  27
ATOM     27  C   UNL     1     -36.411  32.049   0.960  0.00  0.00    +0.021 C 
BRANCH  27  28
ATOM     28  C   UNL     1     -37.277  33.297   1.143  0.00  0.00    +0.110 C 
BRANCH  28  30
ATOM     29  O   UNL     1     -39.285  31.927   1.286  0.00  0.00    -0.250 OA
ATOM     30  C   UNL     1     -38.681  32.948   1.583  0.00  0.00    +0.314 C 
BRANCH  30  31
ATOM     31  O   UNL     1     -39.210  33.920   2.371  0.00  0.00    -0.480 OA
ATOM     32  H   UNL     1     -38.648  34.450   2.903  0.00  0.00    +0.295 HD
ENDBRANCH  30  31
ENDBRANCH  28  30
ENDBRANCH  27  28
ENDBRANCH  26  27
ENDBRANCH  24  26
ENDBRANCH  21  23
BRANCH  21  33
ATOM     33  C   UNL     1     -32.397  30.656   5.237  0.00  0.00    +0.055 C 
BRANCH  33  34
ATOM     34  C   UNL     1     -30.930  30.488   5.550  0.00  0.00    -0.020 C 
ATOM     35  C   UNL     1     -30.542  29.587   6.529  0.00  0.00    -0.004 C 
ATOM     36  C   UNL     1     -29.996  31.237   4.851  0.00  0.00    -0.004 C 
ATOM     37  C   UNL     1     -29.187  29.431   6.818  0.00  0.00    -0.000 C 
ATOM     38  C   UNL     1     -28.640  31.082   5.140  0.00  0.00    -0.000 C 
ATOM     39  C   UNL     1     -28.235  30.178   6.123  0.00  0.00    -0.000 C 
ENDBRANCH  33  34
ENDBRANCH  21  33
ENDBRANCH   3  21
TORSDOF 11
ENDMDL
MODEL 5
REMARK VINA RESULT:      -6.9      5.738     10.250
REMARK  Name = 194912
REMARK  11 active torsions:
REMARK  status: ('A' for Active; 'I' for Inactive)
REMARK    1  A    between atoms: N_2  and  C_7
REMARK    2  A    between atoms: C_3  and  C_21
REMARK    3  A    between atoms: C_11  and  C_20
REMARK    4  A    between atoms: C_21  and  N_23
REMARK    5  A    between atoms: C_21  and  C_33
REMARK    6  A    between atoms: C_24  and  C_26
REMARK    7  A    between atoms: C_26  and  C_27
REMARK    8  A    between atoms: C_27  and  C_28
REMARK    9  A    between atoms: C_28  and  C_30
REMARK   10  A    between atoms: C_30  and  O_31
REMARK   11  A    between atoms: C_33  and  C_34
REMARK                            x       y       z     vdW  Elec       q    Type
REMARK                         _______ _______ _______ _____ _____    ______ ____
ROOT
ATOM      1  O   UNL     1     -31.451  27.735   3.949  0.00  0.00    -0.273 OA
ATOM      2  N   UNL     1     -33.787  27.820   4.201  0.00  0.00    -0.283 N 
ATOM      3  C   UNL     1     -32.505  28.361   4.013  0.00  0.00    +0.244 C 
ATOM      4  H   UNL     1     -34.521  28.470   4.270  0.00  0.00    +0.155 HD
ENDROOT
BRANCH   2   7
ATOM      5  O   UNL     1     -36.052  21.805   1.117  0.00  0.00    -0.270 OA
ATOM      6  N   UNL     1     -35.321  23.739   2.123  0.00  0.00    -0.280 N 
ATOM      7  C   UNL     1     -34.150  26.477   4.303  0.00  0.00    +0.052 C 
ATOM      8  C   UNL     1     -34.883  23.764   4.514  0.00  0.00    +0.018 C 
ATOM      9  C   UNL     1     -34.917  24.429   3.278  0.00  0.00    +0.052 C 
ATOM     10  C   UNL     1     -34.553  25.775   3.169  0.00  0.00    +0.029 C 
ATOM     11  C   UNL     1     -35.278  22.341   4.565  0.00  0.00    +0.077 C 
ATOM     12  C   UNL     1     -34.111  25.834   5.538  0.00  0.00    +0.015 C 
ATOM     13  C   UNL     1     -34.474  24.488   5.643  0.00  0.00    +0.002 C 
ATOM     14  C   UNL     1     -35.658  21.721   3.437  0.00  0.00    +0.062 C 
ATOM     15  C   UNL     1     -35.697  22.415   2.123  0.00  0.00    +0.250 C 
ATOM     16  H   UNL     1     -35.336  24.228   1.268  0.00  0.00    +0.155 HD
BRANCH  11  20
ATOM     17  F   UNL     1     -34.010  21.605   6.397  0.00  0.00    -0.166 F 
ATOM     18  F   UNL     1     -36.077  22.187   6.768  0.00  0.00    -0.166 F 
ATOM     19  F   UNL     1     -35.640  20.327   5.719  0.00  0.00    -0.166 F 
ATOM     20  C   UNL     1     -35.251  21.607   5.875  0.00  0.00    +0.419 C 
ENDBRANCH  11  20
ENDBRANCH   2   7
BRANCH   3  21
ATOM     21  C   UNL     1     -32.533  29.890   3.955  0.00  0.00    +0.153 C 
BRANCH  21  23
ATOM     22  O   UNL     1     -33.220  32.181   2.367  0.00  0.00    -0.275 OA
ATOM     23  N   UNL     1     -33.855  30.264   3.511  0.00  0.00    -0.298 N 
ATOM     24  C   UNL     1     -34.087  31.397   2.742  0.00  0.00    +0.223 C 
ATOM     25  H   UNL     1     -34.618  29.697   3.762  0.00  0.00    +0.150 HD
BRANCH  24  26
ATOM     26  C   UNL     1     -35.565  31.575   2.439  0.00  0.00    +0.086 C 
BRANCH  26  27
ATOM     27  C   UNL     1     -35.920  31.369   0.968  0.00  0.00    +0.021 C 
BRANCH  27  28
ATOM     28  C   UNL     1     -36.759  30.109   0.743  0.00  0.00    +0.110 C 
BRANCH  28  30
ATOM     29  O   UNL     1     -34.889  28.558   0.910  0.00  0.00    -0.250 OA
ATOM     30  C   UNL     1     -36.037  28.862   1.202  0.00  0.00    +0.314 C 
BRANCH  30  31
ATOM     31  O   UNL     1     -36.826  28.099   2.002  0.00  0.00    -0.480 OA
ATOM     32  H   UNL     1     -37.714  27.928   1.759  0.00  0.00    +0.295 HD
ENDBRANCH  30  31
ENDBRANCH  28  30
ENDBRANCH  27  28
ENDBRANCH  26  27
ENDBRANCH  24  26
ENDBRANCH  21  23
BRANCH  21  33
ATOM     33  C   UNL     1     -32.229  30.513   5.322  0.00  0.00    +0.055 C 
BRANCH  33  34
ATOM     34  C   UNL     1     -30.774  30.420   5.714  0.00  0.00    -0.020 C 
ATOM     35  C   UNL     1     -29.841  31.203   5.052  0.00  0.00    -0.004 C 
ATOM     36  C   UNL     1     -30.397  29.555   6.729  0.00  0.00    -0.004 C 
ATOM     37  C   UNL     1     -28.497  31.118   5.413  0.00  0.00    -0.000 C 
ATOM     38  C   UNL     1     -29.053  29.469   7.090  0.00  0.00    -0.000 C 
ATOM     39  C   UNL     1     -28.102  30.251   6.433  0.00  0.00    -0.000 C 
ENDBRANCH  33  34
ENDBRANCH  21  33
ENDBRANCH   3  21
TORSDOF 11
ENDMDL
MODEL 6
REMARK VINA RESULT:      -6.9      1.830      2.482
REMARK  Name = 194912
REMARK  11 active torsions:
REMARK  status: ('A' for Active; 'I' for Inactive)
REMARK    1  A    between atoms: N_2  and  C_7
REMARK    2  A    between atoms: C_3  and  C_21
REMARK    3  A    between atoms: C_11  and  C_20
REMARK    4  A    between atoms: C_21  and  N_23
REMARK    5  A    between atoms: C_21  and  C_33
REMARK    6  A    between atoms: C_24  and  C_26
REMARK    7  A    between atoms: C_26  and  C_27
REMARK    8  A    between atoms: C_27  and  C_28
REMARK    9  A    between atoms: C_28  and  C_30
REMARK   10  A    between atoms: C_30  and  O_31
REMARK   11  A    between atoms: C_33  and  C_34
REMARK                            x       y       z     vdW  Elec       q    Type
REMARK                         _______ _______ _______ _____ _____    ______ ____
ROOT
ATOM      1  O   UNL     1     -34.488  29.808   3.654  0.00  0.00    -0.273 OA
ATOM      2  N   UNL     1     -35.646  30.029   1.620  0.00  0.00    -0.283 N 
ATOM      3  C   UNL     1     -35.072  29.323   2.689  0.00  0.00    +0.244 C 
ATOM      4  H   UNL     1     -36.041  29.479   0.906  0.00  0.00    +0.155 HD
ENDROOT
BRANCH   2   7
ATOM      5  O   UNL     1     -32.418  36.288   0.516  0.00  0.00    -0.270 OA
ATOM      6  N   UNL     1     -33.471  34.275   0.872  0.00  0.00    -0.280 N 
ATOM      7  C   UNL     1     -35.725  31.410   1.440  0.00  0.00    +0.052 C 
ATOM      8  C   UNL     1     -35.891  34.199   1.078  0.00  0.00    +0.018 C 
ATOM      9  C   UNL     1     -34.652  33.540   1.067  0.00  0.00    +0.052 C 
ATOM     10  C   UNL     1     -34.566  32.156   1.246  0.00  0.00    +0.029 C 
ATOM     11  C   UNL     1     -35.919  35.664   0.882  0.00  0.00    +0.077 C 
ATOM     12  C   UNL     1     -36.964  32.046   1.455  0.00  0.00    +0.015 C 
ATOM     13  C   UNL     1     -37.047  33.430   1.275  0.00  0.00    +0.002 C 
ATOM     14  C   UNL     1     -34.765  36.327   0.701  0.00  0.00    +0.062 C 
ATOM     15  C   UNL     1     -33.447  35.639   0.686  0.00  0.00    +0.250 C 
ATOM     16  H   UNL     1     -32.614  33.790   0.869  0.00  0.00    +0.155 HD
BRANCH  11  20
ATOM     17  F   UNL     1     -37.946  36.080   1.989  0.00  0.00    -0.166 F 
ATOM     18  F   UNL     1     -37.041  37.727   0.883  0.00  0.00    -0.166 F 
ATOM     19  F   UNL     1     -37.969  36.072  -0.191  0.00  0.00    -0.166 F 
ATOM     20  C   UNL     1     -37.232  36.393   0.890  0.00  0.00    +0.419 C 
ENDBRANCH  11  20
ENDBRANCH   2   7
BRANCH   3  21
ATOM     21  C   UNL     1     -35.193  27.809   2.505  0.00  0.00    +0.153 C 
BRANCH  21  23
ATOM     22  O   UNL     1     -33.066  26.350   3.765  0.00  0.00    -0.275 OA
ATOM     23  N   UNL     1     -35.212  27.230   3.827  0.00  0.00    -0.298 N 
ATOM     24  C   UNL     1     -34.128  26.539   4.351  0.00  0.00    +0.223 C 
ATOM     25  H   UNL     1     -36.022  27.328   4.377  0.00  0.00    +0.150 HD
BRANCH  24  26
ATOM     26  C   UNL     1     -34.420  26.008   5.744  0.00  0.00    +0.086 C 
BRANCH  26  27
ATOM     27  C   UNL     1     -35.376  24.818   5.760  0.00  0.00    +0.021 C 
BRANCH  27  28
ATOM     28  C   UNL     1     -34.750  23.559   5.157  0.00  0.00    +0.110 C 
BRANCH  28  30
ATOM     29  O   UNL     1     -36.012  22.075   6.617  0.00  0.00    -0.250 OA
ATOM     30  C   UNL     1     -35.527  22.313   5.521  0.00  0.00    +0.314 C 
BRANCH  30  31
ATOM     31  O   UNL     1     -35.633  21.468   4.462  0.00  0.00    -0.480 OA
ATOM     32  H   UNL     1     -35.601  21.805   3.588  0.00  0.00    +0.295 HD
ENDBRANCH  30  31
ENDBRANCH  28  30
ENDBRANCH  27  28
ENDBRANCH  26  27
ENDBRANCH  24  26
ENDBRANCH  21  23
BRANCH  21  33
ATOM     33  C   UNL     1     -36.465  27.433   1.736  0.00  0.00    +0.055 C 
BRANCH  33  34
ATOM     34  C   UNL     1     -37.006  26.072   2.099  0.00  0.00    -0.020 C 
ATOM     35  C   UNL     1     -36.312  24.938   1.708  0.00  0.00    -0.004 C 
ATOM     36  C   UNL     1     -38.187  25.979   2.819  0.00  0.00    -0.004 C 
ATOM     37  C   UNL     1     -36.811  23.680   2.043  0.00  0.00    -0.000 C 
ATOM     38  C   UNL     1     -38.688  24.721   3.153  0.00  0.00    -0.000 C 
ATOM     39  C   UNL     1     -37.999  23.570   2.766  0.00  0.00    -0.000 C 
ENDBRANCH  33  34
ENDBRANCH  21  33
ENDBRANCH   3  21
TORSDOF 11
ENDMDL
MODEL 7
REMARK VINA RESULT:      -6.9      7.715     11.226
REMARK  Name = 194912
REMARK  11 active torsions:
REMARK  status: ('A' for Active; 'I' for Inactive)
REMARK    1  A    between atoms: N_2  and  C_7
REMARK    2  A    between atoms: C_3  and  C_21
REMARK    3  A    between atoms: C_11  and  C_20
REMARK    4  A    between atoms: C_21  and  N_23
REMARK    5  A    between atoms: C_21  and  C_33
REMARK    6  A    between atoms: C_24  and  C_26
REMARK    7  A    between atoms: C_26  and  C_27
REMARK    8  A    between atoms: C_27  and  C_28
REMARK    9  A    between atoms: C_28  and  C_30
REMARK   10  A    between atoms: C_30  and  O_31
REMARK   11  A    between atoms: C_33  and  C_34
REMARK                            x       y       z     vdW  Elec       q    Type
REMARK                         _______ _______ _______ _____ _____    ______ ____
ROOT
ATOM      1  O   UNL     1     -37.516  24.070   1.075  0.00  0.00    -0.273 OA
ATOM      2  N   UNL     1     -37.394  22.444   2.769  0.00  0.00    -0.283 N 
ATOM      3  C   UNL     1     -37.810  23.655   2.192  0.00  0.00    +0.244 C 
ATOM      4  H   UNL     1     -37.690  22.286   3.693  0.00  0.00    +0.155 HD
ENDROOT
BRANCH   2   7
ATOM      5  O   UNL     1     -36.846  16.739  -1.470  0.00  0.00    -0.270 OA
ATOM      6  N   UNL     1     -37.010  18.579  -0.100  0.00  0.00    -0.280 N 
ATOM      7  C   UNL     1     -36.615  21.439   2.197  0.00  0.00    +0.052 C 
ATOM      8  C   UNL     1     -35.035  19.410   1.046  0.00  0.00    +0.018 C 
ATOM      9  C   UNL     1     -36.406  19.505   0.766  0.00  0.00    +0.052 C 
ATOM     10  C   UNL     1     -37.194  20.511   1.336  0.00  0.00    +0.029 C 
ATOM     11  C   UNL     1     -34.254  18.326   0.414  0.00  0.00    +0.077 C 
ATOM     12  C   UNL     1     -35.255  21.360   2.487  0.00  0.00    +0.015 C 
ATOM     13  C   UNL     1     -34.470  20.354   1.916  0.00  0.00    +0.002 C 
ATOM     14  C   UNL     1     -34.872  17.461  -0.408  0.00  0.00    +0.062 C 
ATOM     15  C   UNL     1     -36.324  17.553  -0.712  0.00  0.00    +0.250 C 
ATOM     16  H   UNL     1     -37.974  18.667  -0.280  0.00  0.00    +0.155 HD
BRANCH  11  20
ATOM     17  F   UNL     1     -32.131  19.322   0.333  0.00  0.00    -0.166 F 
ATOM     18  F   UNL     1     -32.564  17.998   2.010  0.00  0.00    -0.166 F 
ATOM     19  F   UNL     1     -32.248  17.168   0.020  0.00  0.00    -0.166 F 
ATOM     20  C   UNL     1     -32.785  18.201   0.697  0.00  0.00    +0.419 C 
ENDBRANCH  11  20
ENDBRANCH   2   7
BRANCH   3  21
ATOM     21  C   UNL     1     -38.659  24.486   3.157  0.00  0.00    +0.153 C 
BRANCH  21  23
ATOM     22  O   UNL     1     -36.354  26.196   3.216  0.00  0.00    -0.275 OA
ATOM     23  N   UNL     1     -37.827  24.771   4.302  0.00  0.00    -0.298 N 
ATOM     24  C   UNL     1     -36.728  25.616   4.230  0.00  0.00    +0.223 C 
ATOM     25  H   UNL     1     -38.047  24.350   5.165  0.00  0.00    +0.150 HD
BRANCH  24  26
ATOM     26  C   UNL     1     -36.011  25.718   5.566  0.00  0.00    +0.086 C 
BRANCH  26  27
ATOM     27  C   UNL     1     -34.599  25.138   5.552  0.00  0.00    +0.021 C 
BRANCH  27  28
ATOM     28  C   UNL     1     -34.528  23.796   4.821  0.00  0.00    +0.110 C 
BRANCH  28  30
ATOM     29  O   UNL     1     -36.316  22.545   5.901  0.00  0.00    -0.250 OA
ATOM     30  C   UNL     1     -35.128  22.676   5.641  0.00  0.00    +0.314 C 
BRANCH  30  31
ATOM     31  O   UNL     1     -34.176  21.804   6.063  0.00  0.00    -0.480 OA
ATOM     32  H   UNL     1     -34.425  20.992   6.458  0.00  0.00    +0.295 HD
ENDBRANCH  30  31
ENDBRANCH  28  30
ENDBRANCH  27  28
ENDBRANCH  26  27
ENDBRANCH  24  26
ENDBRANCH  21  23
BRANCH  21  33
ATOM     33  C   UNL     1     -39.141  25.788   2.506  0.00  0.00    +0.055 C 
BRANCH  33  34
ATOM     34  C   UNL     1     -40.643  25.929   2.486  0.00  0.00    -0.020 C 
ATOM     35  C   UNL     1     -41.364  25.380   1.437  0.00  0.00    -0.004 C 
ATOM     36  C   UNL     1     -41.277  26.603   3.518  0.00  0.00    -0.004 C 
ATOM     37  C   UNL     1     -42.752  25.509   1.418  0.00  0.00    -0.000 C 
ATOM     38  C   UNL     1     -42.665  26.734   3.500  0.00  0.00    -0.000 C 
ATOM     39  C   UNL     1     -43.404  26.186   2.450  0.00  0.00    -0.000 C 
ENDBRANCH  33  34
ENDBRANCH  21  33
ENDBRANCH   3  21
TORSDOF 11
ENDMDL
MODEL 8
REMARK VINA RESULT:      -6.9      5.051      9.500
REMARK  Name = 194912
REMARK  11 active torsions:
REMARK  status: ('A' for Active; 'I' for Inactive)
REMARK    1  A    between atoms: N_2  and  C_7
REMARK    2  A    between atoms: C_3  and  C_21
REMARK    3  A    between atoms: C_11  and  C_20
REMARK    4  A    between atoms: C_21  and  N_23
REMARK    5  A    between atoms: C_21  and  C_33
REMARK    6  A    between atoms: C_24  and  C_26
REMARK    7  A    between atoms: C_26  and  C_27
REMARK    8  A    between atoms: C_27  and  C_28
REMARK    9  A    between atoms: C_28  and  C_30
REMARK   10  A    between atoms: C_30  and  O_31
REMARK   11  A    between atoms: C_33  and  C_34
REMARK                            x       y       z     vdW  Elec       q    Type
REMARK                         _______ _______ _______ _____ _____    ______ ____
ROOT
ATOM      1  O   UNL     1     -33.820  28.656   1.566  0.00  0.00    -0.273 OA
ATOM      2  N   UNL     1     -35.108  28.107   3.454  0.00  0.00    -0.283 N 
ATOM      3  C   UNL     1     -34.476  28.977   2.553  0.00  0.00    +0.244 C 
ATOM      4  H   UNL     1     -35.559  28.533   4.218  0.00  0.00    +0.155 HD
ENDROOT
BRANCH   2   7
ATOM      5  O   UNL     1     -35.567  21.846   6.833  0.00  0.00    -0.270 OA
ATOM      6  N   UNL     1     -35.420  23.860   5.732  0.00  0.00    -0.280 N 
ATOM      7  C   UNL     1     -35.176  26.714   3.406  0.00  0.00    +0.052 C 
ATOM      8  C   UNL     1     -35.315  23.902   3.304  0.00  0.00    +0.018 C 
ATOM      9  C   UNL     1     -35.332  24.583   4.531  0.00  0.00    +0.052 C 
ATOM     10  C   UNL     1     -35.264  25.979   4.586  0.00  0.00    +0.029 C 
ATOM     11  C   UNL     1     -35.390  22.426   3.310  0.00  0.00    +0.077 C 
ATOM     12  C   UNL     1     -35.157  26.056   2.179  0.00  0.00    +0.015 C 
ATOM     13  C   UNL     1     -35.227  24.660   2.127  0.00  0.00    +0.002 C 
ATOM     14  C   UNL     1     -35.472  21.774   4.481  0.00  0.00    +0.062 C 
ATOM     15  C   UNL     1     -35.492  22.485   5.786  0.00  0.00    +0.250 C 
ATOM     16  H   UNL     1     -35.430  24.361   6.579  0.00  0.00    +0.155 HD
BRANCH  11  20
ATOM     17  F   UNL     1     -36.426  22.017   1.244  0.00  0.00    -0.166 F 
ATOM     18  F   UNL     1     -34.249  21.938   1.316  0.00  0.00    -0.166 F 
ATOM     19  F   UNL     1     -35.429  20.344   2.221  0.00  0.00    -0.166 F 
ATOM     20  C   UNL     1     -35.373  21.673   2.010  0.00  0.00    +0.419 C 
ENDBRANCH  11  20
ENDBRANCH   2   7
BRANCH   3  21
ATOM     21  C   UNL     1     -34.634  30.442   2.966  0.00  0.00    +0.153 C 
BRANCH  21  23
ATOM     22  O   UNL     1     -31.888  31.092   2.438  0.00  0.00    -0.275 OA
ATOM     23  N   UNL     1     -33.609  30.710   3.947  0.00  0.00    -0.298 N 
ATOM     24  C   UNL     1     -32.303  31.016   3.591  0.00  0.00    +0.223 C 
ATOM     25  H   UNL     1     -33.845  30.673   4.902  0.00  0.00    +0.150 HD
BRANCH  24  26
ATOM     26  C   UNL     1     -31.422  31.222   4.812  0.00  0.00    +0.086 C 
BRANCH  26  27
ATOM     27  C   UNL     1     -32.078  30.792   6.122  0.00  0.00    +0.021 C 
BRANCH  27  28
ATOM     28  C   UNL     1     -31.341  29.629   6.788  0.00  0.00    +0.110 C 
BRANCH  28  30
ATOM     29  O   UNL     1     -32.829  28.119   5.590  0.00  0.00    -0.250 OA
ATOM     30  C   UNL     1     -31.860  28.289   6.315  0.00  0.00    +0.314 C 
BRANCH  30  31
ATOM     31  O   UNL     1     -31.104  27.267   6.794  0.00  0.00    -0.480 OA
ATOM     32  H   UNL     1     -31.505  26.448   7.008  0.00  0.00    +0.295 HD
ENDBRANCH  30  31
ENDBRANCH  28  30
ENDBRANCH  27  28
ENDBRANCH  26  27
ENDBRANCH  24  26
ENDBRANCH  21  23
BRANCH  21  33
ATOM     33  C   UNL     1     -34.489  31.386   1.766  0.00  0.00    +0.055 C 
BRANCH  33  34
ATOM     34  C   UNL     1     -35.641  32.349   1.618  0.00  0.00    -0.020 C 
ATOM     35  C   UNL     1     -35.392  33.649   1.205  0.00  0.00    -0.004 C 
ATOM     36  C   UNL     1     -36.929  31.918   1.897  0.00  0.00    -0.004 C 
ATOM     37  C   UNL     1     -36.456  34.540   1.068  0.00  0.00    -0.000 C 
ATOM     38  C   UNL     1     -37.993  32.809   1.761  0.00  0.00    -0.000 C 
ATOM     39  C   UNL     1     -37.757  34.120   1.345  0.00  0.00    -0.000 C 
ENDBRANCH  33  34
ENDBRANCH  21  33
ENDBRANCH   3  21
TORSDOF 11
ENDMDL
MODEL 9
REMARK VINA RESULT:      -6.7      7.462     11.100
REMARK  Name = 194912
REMARK  11 active torsions:
REMARK  status: ('A' for Active; 'I' for Inactive)
REMARK    1  A    between atoms: N_2  and  C_7
REMARK    2  A    between atoms: C_3  and  C_21
REMARK    3  A    between atoms: C_11  and  C_20
REMARK    4  A    between atoms: C_21  and  N_23
REMARK    5  A    between atoms: C_21  and  C_33
REMARK    6  A    between atoms: C_24  and  C_26
REMARK    7  A    between atoms: C_26  and  C_27
REMARK    8  A    between atoms: C_27  and  C_28
REMARK    9  A    between atoms: C_28  and  C_30
REMARK   10  A    between atoms: C_30  and  O_31
REMARK   11  A    between atoms: C_33  and  C_34
REMARK                            x       y       z     vdW  Elec       q    Type
REMARK                         _______ _______ _______ _____ _____    ______ ____
ROOT
ATOM      1  O   UNL     1     -37.156  20.101  -0.588  0.00  0.00    -0.273 OA
ATOM      2  N   UNL     1     -36.509  19.520   1.596  0.00  0.00    -0.283 N 
ATOM      3  C   UNL     1     -36.799  19.272   0.245  0.00  0.00    +0.244 C 
ATOM      4  H   UNL     1     -36.276  18.732   2.136  0.00  0.00    +0.155 HD
ENDROOT
BRANCH   2   7
ATOM      5  O   UNL     1     -39.632  25.773   2.998  0.00  0.00    -0.270 OA
ATOM      6  N   UNL     1     -38.615  23.759   2.554  0.00  0.00    -0.280 N 
ATOM      7  C   UNL     1     -36.510  20.742   2.270  0.00  0.00    +0.052 C 
ATOM      8  C   UNL     1     -36.509  23.207   3.634  0.00  0.00    +0.018 C 
ATOM      9  C   UNL     1     -37.551  22.865   2.759  0.00  0.00    +0.052 C 
ATOM     10  C   UNL     1     -37.556  21.642   2.081  0.00  0.00    +0.029 C 
ATOM     11  C   UNL     1     -36.560  24.514   4.323  0.00  0.00    +0.077 C 
ATOM     12  C   UNL     1     -35.467  21.064   3.133  0.00  0.00    +0.015 C 
ATOM     13  C   UNL     1     -35.465  22.287   3.811  0.00  0.00    +0.002 C 
ATOM     14  C   UNL     1     -37.595  25.338   4.097  0.00  0.00    +0.062 C 
ATOM     15  C   UNL     1     -38.705  24.986   3.173  0.00  0.00    +0.250 C 
ATOM     16  H   UNL     1     -39.334  23.495   1.935  0.00  0.00    +0.155 HD
BRANCH  11  20
ATOM     17  F   UNL     1     -34.323  25.174   4.587  0.00  0.00    -0.166 F 
ATOM     18  F   UNL     1     -35.792  26.003   5.968  0.00  0.00    -0.166 F 
ATOM     19  F   UNL     1     -35.194  23.914   6.138  0.00  0.00    -0.166 F 
ATOM     20  C   UNL     1     -35.456  24.904   5.264  0.00  0.00    +0.419 C 
ENDBRANCH  11  20
ENDBRANCH   2   7
BRANCH   3  21
ATOM     21  C   UNL     1     -36.684  17.787  -0.102  0.00  0.00    +0.153 C 
BRANCH  21  23
ATOM     22  O   UNL     1     -38.026  15.258   0.117  0.00  0.00    -0.275 OA
ATOM     23  N   UNL     1     -37.923  17.412  -0.740  0.00  0.00    -0.298 N 
ATOM     24  C   UNL     1     -38.496  16.159  -0.572  0.00  0.00    +0.223 C 
ATOM     25  H   UNL     1     -38.378  18.069  -1.315  0.00  0.00    +0.150 HD
BRANCH  24  26
ATOM     26  C   UNL     1     -39.777  16.015  -1.376  0.00  0.00    +0.086 C 
BRANCH  26  27
ATOM     27  C   UNL     1     -40.274  14.576  -1.490  0.00  0.00    +0.021 C 
BRANCH  27  28
ATOM     28  C   UNL     1     -41.162  14.171  -0.312  0.00  0.00    +0.110 C 
BRANCH  28  30
ATOM     29  O   UNL     1     -39.881  12.111  -0.103  0.00  0.00    -0.250 OA
ATOM     30  C   UNL     1     -40.645  12.932   0.384  0.00  0.00    +0.314 C 
BRANCH  30  31
ATOM     31  O   UNL     1     -41.132  12.834   1.648  0.00  0.00    -0.480 OA
ATOM     32  H   UNL     1     -40.545  12.725   2.370  0.00  0.00    +0.295 HD
ENDBRANCH  30  31
ENDBRANCH  28  30
ENDBRANCH  27  28
ENDBRANCH  26  27
ENDBRANCH  24  26
ENDBRANCH  21  23
BRANCH  21  33
ATOM     33  C   UNL     1     -35.496  17.515  -1.032  0.00  0.00    +0.055 C 
BRANCH  33  34
ATOM     34  C   UNL     1     -34.190  18.066  -0.515  0.00  0.00    -0.020 C 
ATOM     35  C   UNL     1     -33.596  19.133  -1.168  0.00  0.00    -0.004 C 
ATOM     36  C   UNL     1     -33.608  17.495   0.607  0.00  0.00    -0.004 C 
ATOM     37  C   UNL     1     -32.389  19.643  -0.691  0.00  0.00    -0.000 C 
ATOM     38  C   UNL     1     -32.400  18.004   1.085  0.00  0.00    -0.000 C 
ATOM     39  C   UNL     1     -31.791  19.079   0.437  0.00  0.00    -0.000 C 
ENDBRANCH  33  34
ENDBRANCH  21  33
ENDBRANCH   3  21
TORSDOF 11
ENDMDL
