MODEL 1
REMARK VINA RESULT:      -5.9      0.000      0.000
REMARK  Name = 216262
REMARK  11 active torsions:
REMARK  status: ('A' for Active; 'I' for Inactive)
REMARK    1  A    between atoms: S_1  and  C_8
REMARK    2  A    between atoms: S_1  and  C_20
REMARK    3  A    between atoms: C_5  and  C_15
REMARK    4  A    between atoms: C_9  and  C_12
REMARK    5  A    between atoms: C_12  and  O_13
REMARK    6  A    between atoms: C_15  and  O_17
REMARK    7  A    between atoms: C_21  and  C_26
REMARK    8  A    between atoms: C_26  and  O_27
REMARK    9  A    between atoms: C_26  and  C_29
REMARK   10  A    between atoms: C_29  and  C_30
REMARK   11  A    between atoms: C_30  and  N_31
REMARK                            x       y       z     vdW  Elec       q    Type
REMARK                         _______ _______ _______ _____ _____    ______ ____
ROOT
ATOM      1  S   UNL     1     -36.076  23.488   1.040  0.00  0.00    -0.120 S 
ENDROOT
BRANCH   1   8
ATOM      2  O   UNL     1     -36.503  18.096  -0.540  0.00  0.00    -0.274 OA
ATOM      3  N   UNL     1     -35.780  19.598   1.127  0.00  0.00    -0.254 N 
ATOM      4  C   UNL     1     -34.331  19.837   1.285  0.00  0.00    +0.095 C 
ATOM      5  C   UNL     1     -34.141  18.719   0.211  0.00  0.00    +0.123 C 
ATOM      6  C   UNL     1     -34.185  21.364   1.116  0.00  0.00    +0.049 C 
ATOM      7  C   UNL     1     -35.682  18.655   0.152  0.00  0.00    +0.233 C 
ATOM      8  C   UNL     1     -35.630  21.829   1.072  0.00  0.00    +0.024 C 
ATOM      9  C   UNL     1     -36.461  20.778   1.050  0.00  0.00    +0.132 C 
ATOM     10  C   UNL     1     -33.354  21.786  -0.084  0.00  0.00    +0.007 C 
BRANCH   9  12
ATOM     11  O   UNL     1     -38.521  20.789  -0.135  0.00  0.00    -0.244 OA
ATOM     12  C   UNL     1     -37.915  20.782   0.924  0.00  0.00    +0.352 C 
BRANCH  12  13
ATOM     13  O   UNL     1     -38.482  20.777   2.151  0.00  0.00    -0.476 OA
ATOM     14  H   UNL     1     -38.805  19.976   2.514  0.00  0.00    +0.295 HD
ENDBRANCH  12  13
ENDBRANCH   9  12
BRANCH   5  15
ATOM     15  C   UNL     1     -33.473  17.403   0.517  0.00  0.00    +0.121 C 
ATOM     16  C   UNL     1     -32.966  16.730  -0.756  0.00  0.00    +0.032 C 
BRANCH  15  17
ATOM     17  O   UNL     1     -32.368  17.621   1.396  0.00  0.00    -0.384 OA
ATOM     18  H   UNL     1     -31.996  16.767   1.665  0.00  0.00    +0.210 HD
ENDBRANCH  15  17
ENDBRANCH   5  15
ENDBRANCH   1   8
BRANCH   1  20
ATOM     19  N   UNL     1     -37.673  25.092   4.325  0.00  0.00    +0.387 N 
ATOM     20  C   UNL     1     -36.686  23.685   2.734  0.00  0.00    +0.029 C 
ATOM     21  C   UNL     1     -36.365  24.700   4.872  0.00  0.00    -0.034 C 
ATOM     22  C   UNL     1     -35.590  24.057   3.718  0.00  0.00    -0.010 C 
ATOM     23  C   UNL     1     -37.648  24.851   2.880  0.00  0.00    -0.070 C 
ATOM     24  H   UNL     1     -37.843  26.081   4.507  0.00  0.00    -0.084 HD
ATOM     25  H   UNL     1     -38.420  24.551   4.763  0.00  0.00    -0.084 HD
BRANCH  21  26
ATOM     26  C   UNL     1     -35.621  25.872   5.496  0.00  0.00    +0.089 C 
BRANCH  26  27
ATOM     27  O   UNL     1     -35.912  27.051   4.750  0.00  0.00    -0.387 OA
ATOM     28  H   UNL     1     -35.408  27.042   3.921  0.00  0.00    +0.210 HD
ENDBRANCH  26  27
BRANCH  26  29
ATOM     29  C   UNL     1     -34.108  25.634   5.492  0.00  0.00    +0.004 C 
BRANCH  29  30
ATOM     30  C   UNL     1     -33.361  26.677   6.328  0.00  0.00    -0.079 C 
BRANCH  30  31
ATOM     31  N   UNL     1     -32.904  27.771   5.479  0.00  0.00    +0.382 N 
ATOM     32  C   UNL     1     -31.802  28.488   6.106  0.00  0.00    -0.106 C 
ATOM     33  H   UNL     1     -33.677  28.418   5.322  0.00  0.00    -0.085 HD
ATOM     34  H   UNL     1     -32.578  27.383   4.594  0.00  0.00    -0.085 HD
ENDBRANCH  30  31
ENDBRANCH  29  30
ENDBRANCH  26  29
ENDBRANCH  21  26
ENDBRANCH   1  20
TORSDOF 11
ENDMDL
MODEL 2
REMARK VINA RESULT:      -5.8      2.784      5.025
REMARK  Name = 216262
REMARK  11 active torsions:
REMARK  status: ('A' for Active; 'I' for Inactive)
REMARK    1  A    between atoms: S_1  and  C_8
REMARK    2  A    between atoms: S_1  and  C_20
REMARK    3  A    between atoms: C_5  and  C_15
REMARK    4  A    between atoms: C_9  and  C_12
REMARK    5  A    between atoms: C_12  and  O_13
REMARK    6  A    between atoms: C_15  and  O_17
REMARK    7  A    between atoms: C_21  and  C_26
REMARK    8  A    between atoms: C_26  and  O_27
REMARK    9  A    between atoms: C_26  and  C_29
REMARK   10  A    between atoms: C_29  and  C_30
REMARK   11  A    between atoms: C_30  and  N_31
REMARK                            x       y       z     vdW  Elec       q    Type
REMARK                         _______ _______ _______ _____ _____    ______ ____
ROOT
ATOM      1  S   UNL     1     -35.826  25.998   5.524  0.00  0.00    -0.120 S 
ENDROOT
BRANCH   1   8
ATOM      2  O   UNL     1     -35.531  23.494   0.484  0.00  0.00    -0.274 OA
ATOM      3  N   UNL     1     -36.667  23.620   2.547  0.00  0.00    -0.254 N 
ATOM      4  C   UNL     1     -36.479  22.532   3.527  0.00  0.00    +0.095 C 
ATOM      5  C   UNL     1     -35.648  21.820   2.412  0.00  0.00    +0.123 C 
ATOM      6  C   UNL     1     -35.968  23.253   4.791  0.00  0.00    +0.049 C 
ATOM      7  C   UNL     1     -35.912  23.076   1.554  0.00  0.00    +0.233 C 
ATOM      8  C   UNL     1     -36.116  24.718   4.416  0.00  0.00    +0.024 C 
ATOM      9  C   UNL     1     -36.482  24.839   3.133  0.00  0.00    +0.132 C 
ATOM     10  C   UNL     1     -34.565  22.854   5.217  0.00  0.00    +0.007 C 
BRANCH   9  12
ATOM     11  O   UNL     1     -35.834  26.498   1.560  0.00  0.00    -0.244 OA
ATOM     12  C   UNL     1     -36.650  26.062   2.356  0.00  0.00    +0.352 C 
BRANCH  12  13
ATOM     13  O   UNL     1     -37.838  26.635   2.654  0.00  0.00    -0.476 OA
ATOM     14  H   UNL     1     -38.626  26.304   2.271  0.00  0.00    +0.295 HD
ENDBRANCH  12  13
ENDBRANCH   9  12
BRANCH   5  15
ATOM     15  C   UNL     1     -36.084  20.526   1.774  0.00  0.00    +0.121 C 
ATOM     16  C   UNL     1     -34.883  19.698   1.324  0.00  0.00    +0.032 C 
BRANCH  15  17
ATOM     17  O   UNL     1     -36.847  19.764   2.711  0.00  0.00    -0.384 OA
ATOM     18  H   UNL     1     -37.493  19.220   2.236  0.00  0.00    +0.210 HD
ENDBRANCH  15  17
ENDBRANCH   5  15
ENDBRANCH   1   8
BRANCH   1  20
ATOM     19  N   UNL     1     -32.110  27.410   5.850  0.00  0.00    +0.387 N 
ATOM     20  C   UNL     1     -34.070  26.302   5.205  0.00  0.00    +0.029 C 
ATOM     21  C   UNL     1     -32.407  27.856   4.480  0.00  0.00    -0.034 C 
ATOM     22  C   UNL     1     -33.837  27.397   4.178  0.00  0.00    -0.010 C 
ATOM     23  C   UNL     1     -33.339  26.848   6.419  0.00  0.00    -0.070 C 
ATOM     24  H   UNL     1     -31.799  28.201   6.413  0.00  0.00    -0.084 HD
ATOM     25  H   UNL     1     -31.369  26.708   5.844  0.00  0.00    -0.084 HD
BRANCH  21  26
ATOM     26  C   UNL     1     -32.224  29.357   4.306  0.00  0.00    +0.089 C 
BRANCH  26  27
ATOM     27  O   UNL     1     -32.710  30.018   5.471  0.00  0.00    -0.387 OA
ATOM     28  H   UNL     1     -32.385  30.932   5.484  0.00  0.00    +0.210 HD
ENDBRANCH  26  27
BRANCH  26  29
ATOM     29  C   UNL     1     -32.987  29.870   3.080  0.00  0.00    +0.004 C 
BRANCH  29  30
ATOM     30  C   UNL     1     -33.846  31.093   3.410  0.00  0.00    -0.079 C 
BRANCH  30  31
ATOM     31  N   UNL     1     -35.244  30.704   3.558  0.00  0.00    +0.382 N 
ATOM     32  C   UNL     1     -36.021  31.110   2.395  0.00  0.00    -0.106 C 
ATOM     33  H   UNL     1     -35.629  31.149   4.390  0.00  0.00    -0.085 HD
ATOM     34  H   UNL     1     -35.292  29.688   3.643  0.00  0.00    -0.085 HD
ENDBRANCH  30  31
ENDBRANCH  29  30
ENDBRANCH  26  29
ENDBRANCH  21  26
ENDBRANCH   1  20
TORSDOF 11
ENDMDL
MODEL 3
REMARK VINA RESULT:      -5.7      4.213      6.963
REMARK  Name = 216262
REMARK  11 active torsions:
REMARK  status: ('A' for Active; 'I' for Inactive)
REMARK    1  A    between atoms: S_1  and  C_8
REMARK    2  A    between atoms: S_1  and  C_20
REMARK    3  A    between atoms: C_5  and  C_15
REMARK    4  A    between atoms: C_9  and  C_12
REMARK    5  A    between atoms: C_12  and  O_13
REMARK    6  A    between atoms: C_15  and  O_17
REMARK    7  A    between atoms: C_21  and  C_26
REMARK    8  A    between atoms: C_26  and  O_27
REMARK    9  A    between atoms: C_26  and  C_29
REMARK   10  A    between atoms: C_29  and  C_30
REMARK   11  A    between atoms: C_30  and  N_31
REMARK                            x       y       z     vdW  Elec       q    Type
REMARK                         _______ _______ _______ _____ _____    ______ ____
ROOT
ATOM      1  S   UNL     1     -37.043  24.079   0.207  0.00  0.00    -0.120 S 
ENDROOT
BRANCH   1   8
ATOM      2  O   UNL     1     -41.187  27.517   1.872  0.00  0.00    -0.274 OA
ATOM      3  N   UNL     1     -40.301  25.333   1.951  0.00  0.00    -0.254 N 
ATOM      4  C   UNL     1     -40.974  24.268   1.182  0.00  0.00    +0.095 C 
ATOM      5  C   UNL     1     -42.059  25.341   0.854  0.00  0.00    +0.123 C 
ATOM      6  C   UNL     1     -39.864  23.714   0.264  0.00  0.00    +0.049 C 
ATOM      7  C   UNL     1     -41.185  26.326   1.659  0.00  0.00    +0.233 C 
ATOM      8  C   UNL     1     -38.626  24.428   0.778  0.00  0.00    +0.024 C 
ATOM      9  C   UNL     1     -38.960  25.341   1.700  0.00  0.00    +0.132 C 
ATOM     10  C   UNL     1     -40.125  23.905  -1.221  0.00  0.00    +0.007 C 
BRANCH   9  12
ATOM     11  O   UNL     1     -37.447  27.170   1.822  0.00  0.00    -0.244 OA
ATOM     12  C   UNL     1     -38.089  26.295   2.380  0.00  0.00    +0.352 C 
BRANCH  12  13
ATOM     13  O   UNL     1     -38.101  26.058   3.711  0.00  0.00    -0.476 OA
ATOM     14  H   UNL     1     -37.293  25.976   4.179  0.00  0.00    +0.295 HD
ENDBRANCH  12  13
ENDBRANCH   9  12
BRANCH   5  15
ATOM     15  C   UNL     1     -43.483  25.232   1.338  0.00  0.00    +0.121 C 
ATOM     16  C   UNL     1     -44.317  26.425   0.879  0.00  0.00    +0.032 C 
BRANCH  15  17
ATOM     17  O   UNL     1     -44.070  24.033   0.829  0.00  0.00    -0.384 OA
ATOM     18  H   UNL     1     -43.476  23.635   0.175  0.00  0.00    +0.210 HD
ENDBRANCH  15  17
ENDBRANCH   5  15
ENDBRANCH   1   8
BRANCH   1  20
ATOM     19  N   UNL     1     -36.805  22.153   3.692  0.00  0.00    +0.387 N 
ATOM     20  C   UNL     1     -36.459  22.994   1.534  0.00  0.00    +0.029 C 
ATOM     21  C   UNL     1     -35.504  22.839   3.718  0.00  0.00    -0.034 C 
ATOM     22  C   UNL     1     -35.422  23.657   2.425  0.00  0.00    -0.010 C 
ATOM     23  C   UNL     1     -37.550  22.643   2.530  0.00  0.00    -0.070 C 
ATOM     24  H   UNL     1     -37.323  22.359   4.547  0.00  0.00    -0.084 HD
ATOM     25  H   UNL     1     -36.674  21.143   3.630  0.00  0.00    -0.084 HD
BRANCH  21  26
ATOM     26  C   UNL     1     -35.322  23.693   4.964  0.00  0.00    +0.089 C 
BRANCH  26  27
ATOM     27  O   UNL     1     -36.578  24.266   5.317  0.00  0.00    -0.387 OA
ATOM     28  H   UNL     1     -37.275  23.598   5.224  0.00  0.00    +0.210 HD
ENDBRANCH  26  27
BRANCH  26  29
ATOM     29  C   UNL     1     -34.307  24.815   4.725  0.00  0.00    +0.004 C 
BRANCH  29  30
ATOM     30  C   UNL     1     -34.738  26.129   5.381  0.00  0.00    -0.079 C 
BRANCH  30  31
ATOM     31  N   UNL     1     -35.255  27.050   4.376  0.00  0.00    +0.382 N 
ATOM     32  C   UNL     1     -34.363  27.119   3.226  0.00  0.00    -0.106 C 
ATOM     33  H   UNL     1     -35.343  27.979   4.787  0.00  0.00    -0.085 HD
ATOM     34  H   UNL     1     -36.165  26.712   4.061  0.00  0.00    -0.085 HD
ENDBRANCH  30  31
ENDBRANCH  29  30
ENDBRANCH  26  29
ENDBRANCH  21  26
ENDBRANCH   1  20
TORSDOF 11
ENDMDL
MODEL 4
REMARK VINA RESULT:      -5.7      2.768      4.304
REMARK  Name = 216262
REMARK  11 active torsions:
REMARK  status: ('A' for Active; 'I' for Inactive)
REMARK    1  A    between atoms: S_1  and  C_8
REMARK    2  A    between atoms: S_1  and  C_20
REMARK    3  A    between atoms: C_5  and  C_15
REMARK    4  A    between atoms: C_9  and  C_12
REMARK    5  A    between atoms: C_12  and  O_13
REMARK    6  A    between atoms: C_15  and  O_17
REMARK    7  A    between atoms: C_21  and  C_26
REMARK    8  A    between atoms: C_26  and  O_27
REMARK    9  A    between atoms: C_26  and  C_29
REMARK   10  A    between atoms: C_29  and  C_30
REMARK   11  A    between atoms: C_30  and  N_31
REMARK                            x       y       z     vdW  Elec       q    Type
REMARK                         _______ _______ _______ _____ _____    ______ ____
ROOT
ATOM      1  S   UNL     1     -37.642  26.484   0.960  0.00  0.00    -0.120 S 
ENDROOT
BRANCH   1   8
ATOM      2  O   UNL     1     -40.060  21.482   1.905  0.00  0.00    -0.274 OA
ATOM      3  N   UNL     1     -38.194  22.865   2.311  0.00  0.00    -0.254 N 
ATOM      4  C   UNL     1     -36.920  22.552   1.632  0.00  0.00    +0.095 C 
ATOM      5  C   UNL     1     -37.643  21.273   1.102  0.00  0.00    +0.123 C 
ATOM      6  C   UNL     1     -36.578  23.847   0.867  0.00  0.00    +0.049 C 
ATOM      7  C   UNL     1     -38.894  21.797   1.840  0.00  0.00    +0.233 C 
ATOM      8  C   UNL     1     -37.632  24.817   1.374  0.00  0.00    +0.024 C 
ATOM      9  C   UNL     1     -38.517  24.181   2.153  0.00  0.00    +0.132 C 
ATOM     10  C   UNL     1     -36.546  23.692  -0.645  0.00  0.00    +0.007 C 
BRANCH   9  12
ATOM     11  O   UNL     1     -40.766  24.951   2.177  0.00  0.00    -0.244 OA
ATOM     12  C   UNL     1     -39.725  24.721   2.770  0.00  0.00    +0.352 C 
BRANCH  12  13
ATOM     13  O   UNL     1     -39.513  24.927   4.089  0.00  0.00    -0.476 OA
ATOM     14  H   UNL     1     -39.887  25.675   4.512  0.00  0.00    +0.295 HD
ENDBRANCH  12  13
ENDBRANCH   9  12
BRANCH   5  15
ATOM     15  C   UNL     1     -37.223  19.879   1.497  0.00  0.00    +0.121 C 
ATOM     16  C   UNL     1     -36.335  19.245   0.430  0.00  0.00    +0.032 C 
BRANCH  15  17
ATOM     17  O   UNL     1     -36.503  19.929   2.730  0.00  0.00    -0.384 OA
ATOM     18  H   UNL     1     -35.635  19.514   2.613  0.00  0.00    +0.210 HD
ENDBRANCH  15  17
ENDBRANCH   5  15
ENDBRANCH   1   8
BRANCH   1  20
ATOM     19  N   UNL     1     -34.114  26.762   2.801  0.00  0.00    +0.387 N 
ATOM     20  C   UNL     1     -36.297  27.081   2.015  0.00  0.00    +0.029 C 
ATOM     21  C   UNL     1     -34.990  26.731   3.983  0.00  0.00    -0.034 C 
ATOM     22  C   UNL     1     -36.423  26.614   3.455  0.00  0.00    -0.010 C 
ATOM     23  C   UNL     1     -34.944  26.517   1.619  0.00  0.00    -0.070 C 
ATOM     24  H   UNL     1     -33.401  26.037   2.879  0.00  0.00    -0.084 HD
ATOM     25  H   UNL     1     -33.647  27.666   2.727  0.00  0.00    -0.084 HD
BRANCH  21  26
ATOM     26  C   UNL     1     -34.627  25.609   4.946  0.00  0.00    +0.089 C 
BRANCH  26  27
ATOM     27  O   UNL     1     -33.409  25.009   4.515  0.00  0.00    -0.387 OA
ATOM     28  H   UNL     1     -33.577  24.466   3.729  0.00  0.00    +0.210 HD
ENDBRANCH  26  27
BRANCH  26  29
ATOM     29  C   UNL     1     -35.725  24.542   4.994  0.00  0.00    +0.004 C 
BRANCH  29  30
ATOM     30  C   UNL     1     -35.236  23.192   4.464  0.00  0.00    -0.079 C 
BRANCH  30  31
ATOM     31  N   UNL     1     -35.988  22.105   5.081  0.00  0.00    +0.382 N 
ATOM     32  C   UNL     1     -35.379  21.704   6.343  0.00  0.00    -0.106 C 
ATOM     33  H   UNL     1     -36.001  21.306   4.448  0.00  0.00    -0.085 HD
ATOM     34  H   UNL     1     -36.937  22.429   5.266  0.00  0.00    -0.085 HD
ENDBRANCH  30  31
ENDBRANCH  29  30
ENDBRANCH  26  29
ENDBRANCH  21  26
ENDBRANCH   1  20
TORSDOF 11
ENDMDL
MODEL 5
REMARK VINA RESULT:      -5.6      1.613      1.784
REMARK  Name = 216262
REMARK  11 active torsions:
REMARK  status: ('A' for Active; 'I' for Inactive)
REMARK    1  A    between atoms: S_1  and  C_8
REMARK    2  A    between atoms: S_1  and  C_20
REMARK    3  A    between atoms: C_5  and  C_15
REMARK    4  A    between atoms: C_9  and  C_12
REMARK    5  A    between atoms: C_12  and  O_13
REMARK    6  A    between atoms: C_15  and  O_17
REMARK    7  A    between atoms: C_21  and  C_26
REMARK    8  A    between atoms: C_26  and  O_27
REMARK    9  A    between atoms: C_26  and  C_29
REMARK   10  A    between atoms: C_29  and  C_30
REMARK   11  A    between atoms: C_30  and  N_31
REMARK                            x       y       z     vdW  Elec       q    Type
REMARK                         _______ _______ _______ _____ _____    ______ ____
ROOT
ATOM      1  S   UNL     1     -35.265  22.823   0.864  0.00  0.00    -0.120 S 
ENDROOT
BRANCH   1   8
ATOM      2  O   UNL     1     -35.172  17.319  -0.340  0.00  0.00    -0.274 OA
ATOM      3  N   UNL     1     -34.358  19.033   1.059  0.00  0.00    -0.254 N 
ATOM      4  C   UNL     1     -32.963  19.487   0.885  0.00  0.00    +0.095 C 
ATOM      5  C   UNL     1     -32.831  18.328  -0.153  0.00  0.00    +0.123 C 
ATOM      6  C   UNL     1     -33.094  21.001   0.620  0.00  0.00    +0.049 C 
ATOM      7  C   UNL     1     -34.322  18.040   0.130  0.00  0.00    +0.233 C 
ATOM      8  C   UNL     1     -34.571  21.252   0.872  0.00  0.00    +0.024 C 
ATOM      9  C   UNL     1     -35.214  20.096   1.080  0.00  0.00    +0.132 C 
ATOM     10  C   UNL     1     -32.609  21.442  -0.751  0.00  0.00    +0.007 C 
BRANCH   9  12
ATOM     11  O   UNL     1     -37.479  19.907   0.385  0.00  0.00    -0.244 OA
ATOM     12  C   UNL     1     -36.645  19.883   1.275  0.00  0.00    +0.352 C 
BRANCH  12  13
ATOM     13  O   UNL     1     -36.901  19.659   2.583  0.00  0.00    -0.476 OA
ATOM     14  H   UNL     1     -37.368  18.890   2.844  0.00  0.00    +0.295 HD
ENDBRANCH  12  13
ENDBRANCH   9  12
BRANCH   5  15
ATOM     15  C   UNL     1     -31.917  17.147   0.059  0.00  0.00    +0.121 C 
ATOM     16  C   UNL     1     -31.011  16.925  -1.149  0.00  0.00    +0.032 C 
BRANCH  15  17
ATOM     17  O   UNL     1     -31.106  17.372   1.212  0.00  0.00    -0.384 OA
ATOM     18  H   UNL     1     -31.605  17.887   1.863  0.00  0.00    +0.210 HD
ENDBRANCH  15  17
ENDBRANCH   5  15
ENDBRANCH   1   8
BRANCH   1  20
ATOM     19  N   UNL     1     -37.045  24.067   4.210  0.00  0.00    +0.387 N 
ATOM     20  C   UNL     1     -35.738  22.971   2.606  0.00  0.00    +0.029 C 
ATOM     21  C   UNL     1     -35.643  24.279   4.602  0.00  0.00    -0.034 C 
ATOM     22  C   UNL     1     -34.790  23.852   3.403  0.00  0.00    -0.010 C 
ATOM     23  C   UNL     1     -37.065  23.683   2.796  0.00  0.00    -0.070 C 
ATOM     24  H   UNL     1     -37.576  24.928   4.342  0.00  0.00    -0.084 HD
ATOM     25  H   UNL     1     -37.469  23.336   4.783  0.00  0.00    -0.084 HD
BRANCH  21  26
ATOM     26  C   UNL     1     -35.370  25.713   5.034  0.00  0.00    +0.089 C 
BRANCH  26  27
ATOM     27  O   UNL     1     -36.612  26.402   5.151  0.00  0.00    -0.387 OA
ATOM     28  H   UNL     1     -37.279  25.804   5.523  0.00  0.00    +0.210 HD
ENDBRANCH  26  27
BRANCH  26  29
ATOM     29  C   UNL     1     -34.485  26.440   4.016  0.00  0.00    +0.004 C 
BRANCH  29  30
ATOM     30  C   UNL     1     -35.309  27.269   3.029  0.00  0.00    -0.079 C 
BRANCH  30  31
ATOM     31  N   UNL     1     -35.177  28.690   3.329  0.00  0.00    +0.382 N 
ATOM     32  C   UNL     1     -33.841  29.168   3.003  0.00  0.00    -0.106 C 
ATOM     33  H   UNL     1     -35.353  28.840   4.323  0.00  0.00    -0.085 HD
ATOM     34  H   UNL     1     -35.854  29.207   2.767  0.00  0.00    -0.085 HD
ENDBRANCH  30  31
ENDBRANCH  29  30
ENDBRANCH  26  29
ENDBRANCH  21  26
ENDBRANCH   1  20
TORSDOF 11
ENDMDL
MODEL 6
REMARK VINA RESULT:      -5.6      4.840      6.993
REMARK  Name = 216262
REMARK  11 active torsions:
REMARK  status: ('A' for Active; 'I' for Inactive)
REMARK    1  A    between atoms: S_1  and  C_8
REMARK    2  A    between atoms: S_1  and  C_20
REMARK    3  A    between atoms: C_5  and  C_15
REMARK    4  A    between atoms: C_9  and  C_12
REMARK    5  A    between atoms: C_12  and  O_13
REMARK    6  A    between atoms: C_15  and  O_17
REMARK    7  A    between atoms: C_21  and  C_26
REMARK    8  A    between atoms: C_26  and  O_27
REMARK    9  A    between atoms: C_26  and  C_29
REMARK   10  A    between atoms: C_29  and  C_30
REMARK   11  A    between atoms: C_30  and  N_31
REMARK                            x       y       z     vdW  Elec       q    Type
REMARK                         _______ _______ _______ _____ _____    ______ ____
ROOT
ATOM      1  S   UNL     1     -40.608  25.493   0.941  0.00  0.00    -0.120 S 
ENDROOT
BRANCH   1   8
ATOM      2  O   UNL     1     -36.897  21.393   2.026  0.00  0.00    -0.274 OA
ATOM      3  N   UNL     1     -38.316  23.044   2.934  0.00  0.00    -0.254 N 
ATOM      4  C   UNL     1     -37.709  24.267   3.496  0.00  0.00    +0.095 C 
ATOM      5  C   UNL     1     -36.334  23.577   3.229  0.00  0.00    +0.123 C 
ATOM      6  C   UNL     1     -38.378  25.411   2.705  0.00  0.00    +0.049 C 
ATOM      7  C   UNL     1     -37.150  22.411   2.630  0.00  0.00    +0.233 C 
ATOM      8  C   UNL     1     -39.444  24.680   1.907  0.00  0.00    +0.024 C 
ATOM      9  C   UNL     1     -39.321  23.355   2.066  0.00  0.00    +0.132 C 
ATOM     10  C   UNL     1     -37.419  26.235   1.862  0.00  0.00    +0.007 C 
BRANCH   9  12
ATOM     11  O   UNL     1     -40.676  22.416   0.353  0.00  0.00    -0.244 OA
ATOM     12  C   UNL     1     -40.085  22.296   1.414  0.00  0.00    +0.352 C 
BRANCH  12  13
ATOM     13  O   UNL     1     -40.037  21.170   2.161  0.00  0.00    -0.476 OA
ATOM     14  H   UNL     1     -40.456  20.389   1.857  0.00  0.00    +0.295 HD
ENDBRANCH  12  13
ENDBRANCH   9  12
BRANCH   5  15
ATOM     15  C   UNL     1     -35.396  23.176   4.340  0.00  0.00    +0.121 C 
ATOM     16  C   UNL     1     -34.309  24.225   4.552  0.00  0.00    +0.032 C 
BRANCH  15  17
ATOM     17  O   UNL     1     -36.133  23.020   5.554  0.00  0.00    -0.384 OA
ATOM     18  H   UNL     1     -36.685  22.226   5.497  0.00  0.00    +0.210 HD
ENDBRANCH  15  17
ENDBRANCH   5  15
ENDBRANCH   1   8
BRANCH   1  20
ATOM     19  N   UNL     1     -43.996  26.666   2.690  0.00  0.00    +0.387 N 
ATOM     20  C   UNL     1     -41.957  25.654   2.138  0.00  0.00    +0.029 C 
ATOM     21  C   UNL     1     -43.047  27.037   3.752  0.00  0.00    -0.034 C 
ATOM     22  C   UNL     1     -41.655  26.658   3.238  0.00  0.00    -0.010 C 
ATOM     23  C   UNL     1     -43.221  26.231   1.525  0.00  0.00    -0.070 C 
ATOM     24  H   UNL     1     -44.571  27.472   2.442  0.00  0.00    -0.084 HD
ATOM     25  H   UNL     1     -44.611  25.917   3.008  0.00  0.00    -0.084 HD
BRANCH  21  26
ATOM     26  C   UNL     1     -43.149  28.507   4.136  0.00  0.00    +0.089 C 
BRANCH  26  27
ATOM     27  O   UNL     1     -41.914  28.918   4.714  0.00  0.00    -0.387 OA
ATOM     28  H   UNL     1     -41.222  28.278   4.488  0.00  0.00    +0.210 HD
ENDBRANCH  26  27
BRANCH  26  29
ATOM     29  C   UNL     1     -44.280  28.739   5.143  0.00  0.00    +0.004 C 
BRANCH  29  30
ATOM     30  C   UNL     1     -44.322  30.189   5.632  0.00  0.00    -0.079 C 
BRANCH  30  31
ATOM     31  N   UNL     1     -43.328  30.399   6.679  0.00  0.00    +0.382 N 
ATOM     32  C   UNL     1     -43.932  30.282   7.999  0.00  0.00    -0.106 C 
ATOM     33  H   UNL     1     -42.926  31.330   6.576  0.00  0.00    -0.085 HD
ATOM     34  H   UNL     1     -42.604  29.686   6.588  0.00  0.00    -0.085 HD
ENDBRANCH  30  31
ENDBRANCH  29  30
ENDBRANCH  26  29
ENDBRANCH  21  26
ENDBRANCH   1  20
TORSDOF 11
ENDMDL
MODEL 7
REMARK VINA RESULT:      -5.6      3.138      5.720
REMARK  Name = 216262
REMARK  11 active torsions:
REMARK  status: ('A' for Active; 'I' for Inactive)
REMARK    1  A    between atoms: S_1  and  C_8
REMARK    2  A    between atoms: S_1  and  C_20
REMARK    3  A    between atoms: C_5  and  C_15
REMARK    4  A    between atoms: C_9  and  C_12
REMARK    5  A    between atoms: C_12  and  O_13
REMARK    6  A    between atoms: C_15  and  O_17
REMARK    7  A    between atoms: C_21  and  C_26
REMARK    8  A    between atoms: C_26  and  O_27
REMARK    9  A    between atoms: C_26  and  C_29
REMARK   10  A    between atoms: C_29  and  C_30
REMARK   11  A    between atoms: C_30  and  N_31
REMARK                            x       y       z     vdW  Elec       q    Type
REMARK                         _______ _______ _______ _____ _____    ______ ____
ROOT
ATOM      1  S   UNL     1     -35.093  28.049   2.395  0.00  0.00    -0.120 S 
ENDROOT
BRANCH   1   8
ATOM      2  O   UNL     1     -36.462  23.191   4.903  0.00  0.00    -0.274 OA
ATOM      3  N   UNL     1     -34.853  24.355   3.631  0.00  0.00    -0.254 N 
ATOM      4  C   UNL     1     -34.702  24.019   2.201  0.00  0.00    +0.095 C 
ATOM      5  C   UNL     1     -35.730  22.876   2.474  0.00  0.00    +0.123 C 
ATOM      6  C   UNL     1     -34.929  25.362   1.476  0.00  0.00    +0.049 C 
ATOM      7  C   UNL     1     -35.790  23.413   3.920  0.00  0.00    +0.233 C 
ATOM      8  C   UNL     1     -34.995  26.350   2.628  0.00  0.00    +0.024 C 
ATOM      9  C   UNL     1     -34.978  25.704   3.802  0.00  0.00    +0.132 C 
ATOM     10  C   UNL     1     -36.144  25.383   0.563  0.00  0.00    +0.007 C 
BRANCH   9  12
ATOM     11  O   UNL     1     -34.172  26.515   5.885  0.00  0.00    -0.244 OA
ATOM     12  C   UNL     1     -35.107  26.267   5.142  0.00  0.00    +0.352 C 
BRANCH  12  13
ATOM     13  O   UNL     1     -36.413  26.466   5.431  0.00  0.00    -0.476 OA
ATOM     14  H   UNL     1     -36.670  26.685   6.305  0.00  0.00    +0.295 HD
ENDBRANCH  12  13
ENDBRANCH   9  12
BRANCH   5  15
ATOM     15  C   UNL     1     -35.371  21.416   2.365  0.00  0.00    +0.121 C 
ATOM     16  C   UNL     1     -36.601  20.564   2.060  0.00  0.00    +0.032 C 
BRANCH  15  17
ATOM     17  O   UNL     1     -34.413  21.236   1.321  0.00  0.00    -0.384 OA
ATOM     18  H   UNL     1     -33.524  21.413   1.664  0.00  0.00    +0.210 HD
ENDBRANCH  15  17
ENDBRANCH   5  15
ENDBRANCH   1   8
BRANCH   1  20
ATOM     19  N   UNL     1     -31.176  27.808   3.112  0.00  0.00    +0.387 N 
ATOM     20  C   UNL     1     -33.343  28.491   2.544  0.00  0.00    +0.029 C 
ATOM     21  C   UNL     1     -31.507  28.928   4.007  0.00  0.00    -0.034 C 
ATOM     22  C   UNL     1     -33.014  29.162   3.867  0.00  0.00    -0.010 C 
ATOM     23  C   UNL     1     -32.431  27.277   2.572  0.00  0.00    -0.070 C 
ATOM     24  H   UNL     1     -30.689  27.079   3.634  0.00  0.00    -0.084 HD
ATOM     25  H   UNL     1     -30.569  28.123   2.355  0.00  0.00    -0.084 HD
BRANCH  21  26
ATOM     26  C   UNL     1     -31.086  28.665   5.446  0.00  0.00    +0.089 C 
BRANCH  26  27
ATOM     27  O   UNL     1     -32.247  28.664   6.272  0.00  0.00    -0.387 OA
ATOM     28  H   UNL     1     -32.128  29.296   6.998  0.00  0.00    +0.210 HD
ENDBRANCH  26  27
BRANCH  26  29
ATOM     29  C   UNL     1     -30.114  29.739   5.945  0.00  0.00    +0.004 C 
BRANCH  29  30
ATOM     30  C   UNL     1     -29.132  29.186   6.981  0.00  0.00    -0.079 C 
BRANCH  30  31
ATOM     31  N   UNL     1     -29.230  27.732   7.045  0.00  0.00    +0.382 N 
ATOM     32  C   UNL     1     -27.907  27.125   7.094  0.00  0.00    -0.106 C 
ATOM     33  H   UNL     1     -29.723  27.394   6.219  0.00  0.00    -0.085 HD
ATOM     34  H   UNL     1     -29.737  27.476   7.893  0.00  0.00    -0.085 HD
ENDBRANCH  30  31
ENDBRANCH  29  30
ENDBRANCH  26  29
ENDBRANCH  21  26
ENDBRANCH   1  20
TORSDOF 11
ENDMDL
MODEL 8
REMARK VINA RESULT:      -5.6      1.866      2.466
REMARK  Name = 216262
REMARK  11 active torsions:
REMARK  status: ('A' for Active; 'I' for Inactive)
REMARK    1  A    between atoms: S_1  and  C_8
REMARK    2  A    between atoms: S_1  and  C_20
REMARK    3  A    between atoms: C_5  and  C_15
REMARK    4  A    between atoms: C_9  and  C_12
REMARK    5  A    between atoms: C_12  and  O_13
REMARK    6  A    between atoms: C_15  and  O_17
REMARK    7  A    between atoms: C_21  and  C_26
REMARK    8  A    between atoms: C_26  and  O_27
REMARK    9  A    between atoms: C_26  and  C_29
REMARK   10  A    between atoms: C_29  and  C_30
REMARK   11  A    between atoms: C_30  and  N_31
REMARK                            x       y       z     vdW  Elec       q    Type
REMARK                         _______ _______ _______ _____ _____    ______ ____
ROOT
ATOM      1  S   UNL     1     -34.703  21.891   0.510  0.00  0.00    -0.120 S 
ENDROOT
BRANCH   1   8
ATOM      2  O   UNL     1     -34.550  16.651  -1.557  0.00  0.00    -0.274 OA
ATOM      3  N   UNL     1     -34.177  18.030   0.319  0.00  0.00    -0.254 N 
ATOM      4  C   UNL     1     -32.785  18.326   0.714  0.00  0.00    +0.095 C 
ATOM      5  C   UNL     1     -32.369  17.322  -0.407  0.00  0.00    +0.123 C 
ATOM      6  C   UNL     1     -32.713  19.867   0.697  0.00  0.00    +0.049 C 
ATOM      7  C   UNL     1     -33.877  17.185  -0.704  0.00  0.00    +0.233 C 
ATOM      8  C   UNL     1     -34.163  20.261   0.472  0.00  0.00    +0.024 C 
ATOM      9  C   UNL     1     -34.912  19.176   0.238  0.00  0.00    +0.132 C 
ATOM     10  C   UNL     1     -31.743  20.438  -0.324  0.00  0.00    +0.007 C 
BRANCH   9  12
ATOM     11  O   UNL     1     -36.797  19.452  -1.184  0.00  0.00    -0.244 OA
ATOM     12  C   UNL     1     -36.329  19.118  -0.108  0.00  0.00    +0.352 C 
BRANCH  12  13
ATOM     13  O   UNL     1     -37.038  18.642   0.941  0.00  0.00    -0.476 OA
ATOM     14  H   UNL     1     -37.973  18.701   0.940  0.00  0.00    +0.295 HD
ENDBRANCH  12  13
ENDBRANCH   9  12
BRANCH   5  15
ATOM     15  C   UNL     1     -31.670  16.018  -0.112  0.00  0.00    +0.121 C 
ATOM     16  C   UNL     1     -31.291  15.291  -1.399  0.00  0.00    +0.032 C 
BRANCH  15  17
ATOM     17  O   UNL     1     -30.485  16.271   0.644  0.00  0.00    -0.384 OA
ATOM     18  H   UNL     1     -29.707  16.098   0.092  0.00  0.00    +0.210 HD
ENDBRANCH  15  17
ENDBRANCH   5  15
ENDBRANCH   1   8
BRANCH   1  20
ATOM     19  N   UNL     1     -37.370  22.474   3.419  0.00  0.00    +0.387 N 
ATOM     20  C   UNL     1     -35.482  21.930   2.145  0.00  0.00    +0.029 C 
ATOM     21  C   UNL     1     -36.259  23.272   3.961  0.00  0.00    -0.034 C 
ATOM     22  C   UNL     1     -35.118  23.169   2.944  0.00  0.00    -0.010 C 
ATOM     23  C   UNL     1     -36.995  22.036   2.072  0.00  0.00    -0.070 C 
ATOM     24  H   UNL     1     -38.216  23.043   3.374  0.00  0.00    -0.084 HD
ATOM     25  H   UNL     1     -37.555  21.668   4.017  0.00  0.00    -0.084 HD
BRANCH  21  26
ATOM     26  C   UNL     1     -36.662  24.712   4.245  0.00  0.00    +0.089 C 
BRANCH  26  27
ATOM     27  O   UNL     1     -38.083  24.810   4.196  0.00  0.00    -0.387 OA
ATOM     28  H   UNL     1     -38.414  25.139   5.046  0.00  0.00    +0.210 HD
ENDBRANCH  26  27
BRANCH  26  29
ATOM     29  C   UNL     1     -36.055  25.672   3.216  0.00  0.00    +0.004 C 
BRANCH  29  30
ATOM     30  C   UNL     1     -35.159  26.724   3.873  0.00  0.00    -0.079 C 
BRANCH  30  31
ATOM     31  N   UNL     1     -35.132  26.533   5.319  0.00  0.00    +0.382 N 
ATOM     32  C   UNL     1     -33.767  26.343   5.792  0.00  0.00    -0.106 C 
ATOM     33  H   UNL     1     -35.687  25.712   5.558  0.00  0.00    -0.085 HD
ATOM     34  H   UNL     1     -35.517  27.366   5.765  0.00  0.00    -0.085 HD
ENDBRANCH  30  31
ENDBRANCH  29  30
ENDBRANCH  26  29
ENDBRANCH  21  26
ENDBRANCH   1  20
TORSDOF 11
ENDMDL
MODEL 9
REMARK VINA RESULT:      -5.6      2.501      4.568
REMARK  Name = 216262
REMARK  11 active torsions:
REMARK  status: ('A' for Active; 'I' for Inactive)
REMARK    1  A    between atoms: S_1  and  C_8
REMARK    2  A    between atoms: S_1  and  C_20
REMARK    3  A    between atoms: C_5  and  C_15
REMARK    4  A    between atoms: C_9  and  C_12
REMARK    5  A    between atoms: C_12  and  O_13
REMARK    6  A    between atoms: C_15  and  O_17
REMARK    7  A    between atoms: C_21  and  C_26
REMARK    8  A    between atoms: C_26  and  O_27
REMARK    9  A    between atoms: C_26  and  C_29
REMARK   10  A    between atoms: C_29  and  C_30
REMARK   11  A    between atoms: C_30  and  N_31
REMARK                            x       y       z     vdW  Elec       q    Type
REMARK                         _______ _______ _______ _____ _____    ______ ____
ROOT
ATOM      1  S   UNL     1     -35.335  26.890   3.122  0.00  0.00    -0.120 S 
ENDROOT
BRANCH   1   8
ATOM      2  O   UNL     1     -38.506  22.652   1.186  0.00  0.00    -0.274 OA
ATOM      3  N   UNL     1     -36.967  23.357   2.827  0.00  0.00    -0.254 N 
ATOM      4  C   UNL     1     -35.578  22.860   2.755  0.00  0.00    +0.095 C 
ATOM      5  C   UNL     1     -36.075  21.967   1.573  0.00  0.00    +0.123 C 
ATOM      6  C   UNL     1     -34.725  24.144   2.694  0.00  0.00    +0.049 C 
ATOM      7  C   UNL     1     -37.448  22.644   1.773  0.00  0.00    +0.233 C 
ATOM      8  C   UNL     1     -35.755  25.234   2.936  0.00  0.00    +0.024 C 
ATOM      9  C   UNL     1     -36.989  24.714   2.967  0.00  0.00    +0.132 C 
ATOM     10  C   UNL     1     -33.930  24.309   1.410  0.00  0.00    +0.007 C 
BRANCH   9  12
ATOM     11  O   UNL     1     -38.587  26.388   2.423  0.00  0.00    -0.244 OA
ATOM     12  C   UNL     1     -38.261  25.420   3.091  0.00  0.00    +0.352 C 
BRANCH  12  13
ATOM     13  O   UNL     1     -39.014  24.842   4.054  0.00  0.00    -0.476 OA
ATOM     14  H   UNL     1     -39.811  24.405   3.825  0.00  0.00    +0.295 HD
ENDBRANCH  12  13
ENDBRANCH   9  12
BRANCH   5  15
ATOM     15  C   UNL     1     -36.105  20.462   1.649  0.00  0.00    +0.121 C 
ATOM     16  C   UNL     1     -34.711  19.870   1.458  0.00  0.00    +0.032 C 
BRANCH  15  17
ATOM     17  O   UNL     1     -36.610  20.057   2.922  0.00  0.00    -0.384 OA
ATOM     18  H   UNL     1     -37.308  19.396   2.797  0.00  0.00    +0.210 HD
ENDBRANCH  15  17
ENDBRANCH   5  15
ENDBRANCH   1   8
BRANCH   1  20
ATOM     19  N   UNL     1     -32.964  26.885   6.329  0.00  0.00    +0.387 N 
ATOM     20  C   UNL     1     -33.871  26.730   4.176  0.00  0.00    +0.029 C 
ATOM     21  C   UNL     1     -32.224  27.846   5.496  0.00  0.00    -0.034 C 
ATOM     22  C   UNL     1     -33.014  27.984   4.191  0.00  0.00    -0.010 C 
ATOM     23  C   UNL     1     -34.221  26.569   5.645  0.00  0.00    -0.070 C 
ATOM     24  H   UNL     1     -33.161  27.297   7.241  0.00  0.00    -0.084 HD
ATOM     25  H   UNL     1     -32.413  26.038   6.470  0.00  0.00    -0.084 HD
BRANCH  21  26
ATOM     26  C   UNL     1     -32.013  29.181   6.197  0.00  0.00    +0.089 C 
BRANCH  26  27
ATOM     27  O   UNL     1     -32.663  30.203   5.446  0.00  0.00    -0.387 OA
ATOM     28  H   UNL     1     -33.158  30.781   6.047  0.00  0.00    +0.210 HD
ENDBRANCH  26  27
BRANCH  26  29
ATOM     29  C   UNL     1     -30.523  29.515   6.317  0.00  0.00    +0.004 C 
BRANCH  29  30
ATOM     30  C   UNL     1     -29.641  28.281   6.113  0.00  0.00    -0.079 C 
BRANCH  30  31
ATOM     31  N   UNL     1     -28.819  28.047   7.296  0.00  0.00    +0.382 N 
ATOM     32  C   UNL     1     -27.880  26.957   7.068  0.00  0.00    -0.106 C 
ATOM     33  H   UNL     1     -29.424  27.808   8.081  0.00  0.00    -0.085 HD
ATOM     34  H   UNL     1     -28.290  28.895   7.498  0.00  0.00    -0.085 HD
ENDBRANCH  30  31
ENDBRANCH  29  30
ENDBRANCH  26  29
ENDBRANCH  21  26
ENDBRANCH   1  20
TORSDOF 11
ENDMDL
