MODEL 1
REMARK VINA RESULT:      -5.6      0.000      0.000
REMARK  Name = 5821911
REMARK  4 active torsions:
REMARK  status: ('A' for Active; 'I' for Inactive)
REMARK    1  A    between atoms: N_2  and  C_12
REMARK    2  A    between atoms: N_4  and  C_6
REMARK    3  A    between atoms: N_4  and  N_11
REMARK    4  A    between atoms: C_12  and  C_16
REMARK                            x       y       z     vdW  Elec       q    Type
REMARK                         _______ _______ _______ _____ _____    ______ ____
ROOT
ATOM      1  O   UNL     1     -38.002  24.659   2.367  0.00  0.00    -0.320 OA
ATOM      2  N   UNL     1     -36.680  24.571   4.350  0.00  0.00    -0.212 NA
ATOM      3  N   UNL     1     -36.746  22.694   2.907  0.00  0.00    -0.215 NA
ATOM      4  C   UNL     1     -37.894  25.080   3.724  0.00  0.00    +0.224 C 
ATOM      5  C   UNL     1     -36.117  23.342   3.980  0.00  0.00    +0.245 C 
ATOM      6  C   UNL     1     -37.951  23.237   2.285  0.00  0.00    +0.224 C 
ATOM      7  C   UNL     1     -36.339  21.370   2.451  0.00  0.00    +0.095 C 
ENDROOT
BRANCH   5   8
ATOM      8  N   UNL     1     -35.074  22.860   4.609  0.00  0.00    -0.058 NA
BRANCH   8  11
ATOM      9  O   UNL     1     -36.094  22.158   6.453  0.00  0.00    -0.108 OA
ATOM     10  O   UNL     1     -35.015  20.720   5.222  0.00  0.00    -0.108 OA
ATOM     11  N   UNL     1     -35.393  21.876   5.468  0.00  0.00    +0.142 N 
ENDBRANCH   8  11
ENDBRANCH   5   8
BRANCH   2  12
ATOM     12  C   UNL     1     -36.201  25.302   5.519  0.00  0.00    +0.112 C 
BRANCH  12  16
ATOM     13 CL   UNL     1     -32.327  28.289   2.999  0.00  0.00    -0.054 Cl
ATOM     14  S   UNL     1     -34.826  26.805   3.635  0.00  0.00    -0.058 S 
ATOM     15  N   UNL     1     -32.850  27.014   5.288  0.00  0.00    -0.226 NA
ATOM     16  C   UNL     1     -34.958  26.059   5.161  0.00  0.00    +0.045 C 
ATOM     17  C   UNL     1     -33.833  26.266   5.905  0.00  0.00    +0.104 C 
ATOM     18  C   UNL     1     -33.264  27.353   4.087  0.00  0.00    +0.168 C 
ENDBRANCH  12  16
ENDBRANCH   2  12
TORSDOF 4
ENDMDL
MODEL 2
REMARK VINA RESULT:      -5.5      1.222      2.810
REMARK  Name = 5821911
REMARK  4 active torsions:
REMARK  status: ('A' for Active; 'I' for Inactive)
REMARK    1  A    between atoms: N_2  and  C_12
REMARK    2  A    between atoms: N_4  and  C_6
REMARK    3  A    between atoms: N_4  and  N_11
REMARK    4  A    between atoms: C_12  and  C_16
REMARK                            x       y       z     vdW  Elec       q    Type
REMARK                         _______ _______ _______ _____ _____    ______ ____
ROOT
ATOM      1  O   UNL     1     -35.464  21.730   5.951  0.00  0.00    -0.320 OA
ATOM      2  N   UNL     1     -36.027  23.852   5.018  0.00  0.00    -0.212 NA
ATOM      3  N   UNL     1     -35.950  21.944   3.616  0.00  0.00    -0.215 NA
ATOM      4  C   UNL     1     -35.242  23.136   6.015  0.00  0.00    +0.224 C 
ATOM      5  C   UNL     1     -36.350  23.278   3.781  0.00  0.00    +0.245 C 
ATOM      6  C   UNL     1     -35.180  21.244   4.641  0.00  0.00    +0.224 C 
ATOM      7  C   UNL     1     -36.133  21.226   2.360  0.00  0.00    +0.095 C 
ENDROOT
BRANCH   5   8
ATOM      8  N   UNL     1     -36.985  23.964   2.862  0.00  0.00    -0.058 NA
BRANCH   8  11
ATOM      9  O   UNL     1     -38.972  24.523   3.683  0.00  0.00    -0.108 OA
ATOM     10  O   UNL     1     -38.848  22.960   2.170  0.00  0.00    -0.108 OA
ATOM     11  N   UNL     1     -38.318  23.798   2.916  0.00  0.00    +0.142 N 
ENDBRANCH   8  11
ENDBRANCH   5   8
BRANCH   2  12
ATOM     12  C   UNL     1     -36.282  25.263   5.287  0.00  0.00    +0.112 C 
BRANCH  12  16
ATOM     13 CL   UNL     1     -32.134  28.313   3.349  0.00  0.00    -0.054 Cl
ATOM     14  S   UNL     1     -34.670  26.781   3.617  0.00  0.00    -0.058 S 
ATOM     15  N   UNL     1     -32.970  27.044   5.547  0.00  0.00    -0.226 NA
ATOM     16  C   UNL     1     -35.015  26.043   5.113  0.00  0.00    +0.045 C 
ATOM     17  C   UNL     1     -34.020  26.279   6.016  0.00  0.00    +0.104 C 
ATOM     18  C   UNL     1     -33.205  27.365   4.294  0.00  0.00    +0.168 C 
ENDBRANCH  12  16
ENDBRANCH   2  12
TORSDOF 4
ENDMDL
MODEL 3
REMARK VINA RESULT:      -5.3      1.781      2.005
REMARK  Name = 5821911
REMARK  4 active torsions:
REMARK  status: ('A' for Active; 'I' for Inactive)
REMARK    1  A    between atoms: N_2  and  C_12
REMARK    2  A    between atoms: N_4  and  C_6
REMARK    3  A    between atoms: N_4  and  N_11
REMARK    4  A    between atoms: C_12  and  C_16
REMARK                            x       y       z     vdW  Elec       q    Type
REMARK                         _______ _______ _______ _____ _____    ______ ____
ROOT
ATOM      1  O   UNL     1     -34.095  23.718   1.220  0.00  0.00    -0.320 OA
ATOM      2  N   UNL     1     -35.494  24.592   2.942  0.00  0.00    -0.212 NA
ATOM      3  N   UNL     1     -35.452  22.258   2.546  0.00  0.00    -0.215 NA
ATOM      4  C   UNL     1     -34.909  24.814   1.626  0.00  0.00    +0.224 C 
ATOM      5  C   UNL     1     -35.819  23.308   3.400  0.00  0.00    +0.245 C 
ATOM      6  C   UNL     1     -34.849  22.509   1.239  0.00  0.00    +0.224 C 
ATOM      7  C   UNL     1     -35.790  20.868   2.831  0.00  0.00    +0.095 C 
ENDROOT
BRANCH   5   8
ATOM      8  N   UNL     1     -36.420  23.132   4.551  0.00  0.00    -0.058 NA
BRANCH   8  11
ATOM      9  O   UNL     1     -34.391  23.016   5.445  0.00  0.00    -0.108 OA
ATOM     10  O   UNL     1     -36.054  22.027   6.448  0.00  0.00    -0.108 OA
ATOM     11  N   UNL     1     -35.589  22.695   5.512  0.00  0.00    +0.142 N 
ENDBRANCH   8  11
ENDBRANCH   5   8
BRANCH   2  12
ATOM     12  C   UNL     1     -35.914  25.785   3.673  0.00  0.00    +0.112 C 
BRANCH  12  16
ATOM     13 CL   UNL     1     -31.475  28.822   4.827  0.00  0.00    -0.054 Cl
ATOM     14  S   UNL     1     -33.828  27.602   3.476  0.00  0.00    -0.058 S 
ATOM     15  N   UNL     1     -33.079  26.954   5.864  0.00  0.00    -0.226 NA
ATOM     16  C   UNL     1     -34.722  26.422   4.318  0.00  0.00    +0.045 C 
ATOM     17  C   UNL     1     -34.195  26.200   5.558  0.00  0.00    +0.104 C 
ATOM     18  C   UNL     1     -32.796  27.729   4.841  0.00  0.00    +0.168 C 
ENDBRANCH  12  16
ENDBRANCH   2  12
TORSDOF 4
ENDMDL
MODEL 4
REMARK VINA RESULT:      -5.2      2.957      4.481
REMARK  Name = 5821911
REMARK  4 active torsions:
REMARK  status: ('A' for Active; 'I' for Inactive)
REMARK    1  A    between atoms: N_2  and  C_12
REMARK    2  A    between atoms: N_4  and  C_6
REMARK    3  A    between atoms: N_4  and  N_11
REMARK    4  A    between atoms: C_12  and  C_16
REMARK                            x       y       z     vdW  Elec       q    Type
REMARK                         _______ _______ _______ _____ _____    ______ ____
ROOT
ATOM      1  O   UNL     1     -38.838  24.210   3.389  0.00  0.00    -0.320 OA
ATOM      2  N   UNL     1     -37.074  22.637   3.066  0.00  0.00    -0.212 NA
ATOM      3  N   UNL     1     -36.696  24.557   4.400  0.00  0.00    -0.215 NA
ATOM      4  C   UNL     1     -38.240  23.288   2.482  0.00  0.00    +0.224 C 
ATOM      5  C   UNL     1     -36.256  23.287   4.001  0.00  0.00    +0.245 C 
ATOM      6  C   UNL     1     -37.880  25.178   3.812  0.00  0.00    +0.224 C 
ATOM      7  C   UNL     1     -35.919  25.401   5.301  0.00  0.00    +0.095 C 
ENDROOT
BRANCH   5   8
ATOM      8  N   UNL     1     -35.165  22.720   4.453  0.00  0.00    -0.058 NA
BRANCH   8  11
ATOM      9  O   UNL     1     -36.013  22.186   6.435  0.00  0.00    -0.108 OA
ATOM     10  O   UNL     1     -35.061  20.637   5.234  0.00  0.00    -0.108 OA
ATOM     11  N   UNL     1     -35.409  21.815   5.416  0.00  0.00    +0.142 N 
ENDBRANCH   8  11
ENDBRANCH   5   8
BRANCH   2  12
ATOM     12  C   UNL     1     -36.683  21.360   2.477  0.00  0.00    +0.112 C 
BRANCH  12  16
ATOM     13 CL   UNL     1     -32.012  20.824  -0.380  0.00  0.00    -0.054 Cl
ATOM     14  S   UNL     1     -34.323  20.345   1.431  0.00  0.00    -0.058 S 
ATOM     15  N   UNL     1     -34.026  22.522   0.068  0.00  0.00    -0.226 NA
ATOM     16  C   UNL     1     -35.505  21.564   1.575  0.00  0.00    +0.045 C 
ATOM     17  C   UNL     1     -35.196  22.639   0.793  0.00  0.00    +0.104 C 
ATOM     18  C   UNL     1     -33.482  21.353   0.326  0.00  0.00    +0.168 C 
ENDBRANCH  12  16
ENDBRANCH   2  12
TORSDOF 4
ENDMDL
MODEL 5
REMARK VINA RESULT:      -5.2      3.565      4.970
REMARK  Name = 5821911
REMARK  4 active torsions:
REMARK  status: ('A' for Active; 'I' for Inactive)
REMARK    1  A    between atoms: N_2  and  C_12
REMARK    2  A    between atoms: N_4  and  C_6
REMARK    3  A    between atoms: N_4  and  N_11
REMARK    4  A    between atoms: C_12  and  C_16
REMARK                            x       y       z     vdW  Elec       q    Type
REMARK                         _______ _______ _______ _____ _____    ______ ____
ROOT
ATOM      1  O   UNL     1     -35.929  26.319   5.097  0.00  0.00    -0.320 OA
ATOM      2  N   UNL     1     -36.556  24.893   3.290  0.00  0.00    -0.212 NA
ATOM      3  N   UNL     1     -35.583  23.954   5.235  0.00  0.00    -0.215 NA
ATOM      4  C   UNL     1     -36.046  26.201   3.682  0.00  0.00    +0.224 C 
ATOM      5  C   UNL     1     -36.288  23.740   4.041  0.00  0.00    +0.245 C 
ATOM      6  C   UNL     1     -35.100  25.280   5.612  0.00  0.00    +0.224 C 
ATOM      7  C   UNL     1     -35.150  22.854   6.090  0.00  0.00    +0.095 C 
ENDROOT
BRANCH   5   8
ATOM      8  N   UNL     1     -36.682  22.560   3.631  0.00  0.00    -0.058 NA
BRANCH   8  11
ATOM      9  O   UNL     1     -35.557  20.654   3.450  0.00  0.00    -0.108 OA
ATOM     10  O   UNL     1     -34.963  22.359   2.230  0.00  0.00    -0.108 OA
ATOM     11  N   UNL     1     -35.686  21.836   3.093  0.00  0.00    +0.142 N 
ENDBRANCH   8  11
ENDBRANCH   5   8
BRANCH   2  12
ATOM     12  C   UNL     1     -37.182  24.811   1.974  0.00  0.00    +0.112 C 
BRANCH  12  16
ATOM     13 CL   UNL     1     -42.305  26.466   3.108  0.00  0.00    -0.054 Cl
ATOM     14  S   UNL     1     -39.704  25.022   3.110  0.00  0.00    -0.058 S 
ATOM     15  N   UNL     1     -40.227  26.984   1.509  0.00  0.00    -0.226 NA
ATOM     16  C   UNL     1     -38.505  25.513   2.004  0.00  0.00    +0.045 C 
ATOM     17  C   UNL     1     -38.942  26.555   1.238  0.00  0.00    +0.104 C 
ATOM     18  C   UNL     1     -40.725  26.248   2.479  0.00  0.00    +0.168 C 
ENDBRANCH  12  16
ENDBRANCH   2  12
TORSDOF 4
ENDMDL
MODEL 6
REMARK VINA RESULT:      -5.2      1.762      1.950
REMARK  Name = 5821911
REMARK  4 active torsions:
REMARK  status: ('A' for Active; 'I' for Inactive)
REMARK    1  A    between atoms: N_2  and  C_12
REMARK    2  A    between atoms: N_4  and  C_6
REMARK    3  A    between atoms: N_4  and  N_11
REMARK    4  A    between atoms: C_12  and  C_16
REMARK                            x       y       z     vdW  Elec       q    Type
REMARK                         _______ _______ _______ _____ _____    ______ ____
ROOT
ATOM      1  O   UNL     1     -37.856  25.424   3.235  0.00  0.00    -0.320 OA
ATOM      2  N   UNL     1     -36.267  24.040   4.351  0.00  0.00    -0.212 NA
ATOM      3  N   UNL     1     -37.863  23.053   2.906  0.00  0.00    -0.215 NA
ATOM      4  C   UNL     1     -37.091  25.240   4.423  0.00  0.00    +0.224 C 
ATOM      5  C   UNL     1     -36.669  22.909   3.627  0.00  0.00    +0.245 C 
ATOM      6  C   UNL     1     -38.660  24.275   2.981  0.00  0.00    +0.224 C 
ATOM      7  C   UNL     1     -38.465  21.948   2.169  0.00  0.00    +0.095 C 
ENDROOT
BRANCH   5   8
ATOM      8  N   UNL     1     -35.957  21.809   3.641  0.00  0.00    -0.058 NA
BRANCH   8  11
ATOM      9  O   UNL     1     -35.104  20.468   2.090  0.00  0.00    -0.108 OA
ATOM     10  O   UNL     1     -34.830  22.622   1.901  0.00  0.00    -0.108 OA
ATOM     11  N   UNL     1     -35.258  21.627   2.508  0.00  0.00    +0.142 N 
ENDBRANCH   8  11
ENDBRANCH   5   8
BRANCH   2  12
ATOM     12  C   UNL     1     -35.106  23.999   5.235  0.00  0.00    +0.112 C 
BRANCH  12  16
ATOM     13 CL   UNL     1     -32.091  28.134   3.213  0.00  0.00    -0.054 Cl
ATOM     14  S   UNL     1     -33.701  25.649   3.503  0.00  0.00    -0.058 S 
ATOM     15  N   UNL     1     -33.156  27.216   5.485  0.00  0.00    -0.226 NA
ATOM     16  C   UNL     1     -34.291  25.243   5.048  0.00  0.00    +0.045 C 
ATOM     17  C   UNL     1     -33.914  26.171   5.976  0.00  0.00    +0.104 C 
ATOM     18  C   UNL     1     -32.982  27.046   4.193  0.00  0.00    +0.168 C 
ENDBRANCH  12  16
ENDBRANCH   2  12
TORSDOF 4
ENDMDL
MODEL 7
REMARK VINA RESULT:      -5.1      3.768      5.944
REMARK  Name = 5821911
REMARK  4 active torsions:
REMARK  status: ('A' for Active; 'I' for Inactive)
REMARK    1  A    between atoms: N_2  and  C_12
REMARK    2  A    between atoms: N_4  and  C_6
REMARK    3  A    between atoms: N_4  and  N_11
REMARK    4  A    between atoms: C_12  and  C_16
REMARK                            x       y       z     vdW  Elec       q    Type
REMARK                         _______ _______ _______ _____ _____    ______ ____
ROOT
ATOM      1  O   UNL     1     -32.363  26.206   1.490  0.00  0.00    -0.320 OA
ATOM      2  N   UNL     1     -33.688  26.878   3.356  0.00  0.00    -0.212 NA
ATOM      3  N   UNL     1     -31.396  27.467   3.280  0.00  0.00    -0.215 NA
ATOM      4  C   UNL     1     -33.446  25.855   2.347  0.00  0.00    +0.224 C 
ATOM      5  C   UNL     1     -32.651  27.667   3.872  0.00  0.00    +0.245 C 
ATOM      6  C   UNL     1     -31.185  26.447   2.256  0.00  0.00    +0.224 C 
ATOM      7  C   UNL     1     -30.195  28.146   3.756  0.00  0.00    +0.095 C 
ENDROOT
BRANCH   5   8
ATOM      8  N   UNL     1     -32.871  28.525   4.838  0.00  0.00    -0.058 NA
BRANCH   8  11
ATOM      9  O   UNL     1     -31.788  29.045   6.706  0.00  0.00    -0.108 OA
ATOM     10  O   UNL     1     -32.333  26.968   6.336  0.00  0.00    -0.108 OA
ATOM     11  N   UNL     1     -32.296  28.161   5.997  0.00  0.00    +0.142 N 
ENDBRANCH   8  11
ENDBRANCH   5   8
BRANCH   2  12
ATOM     12  C   UNL     1     -35.022  26.898   3.949  0.00  0.00    +0.112 C 
BRANCH  12  16
ATOM     13 CL   UNL     1     -35.388  21.890   6.196  0.00  0.00    -0.054 Cl
ATOM     14  S   UNL     1     -34.529  24.651   5.498  0.00  0.00    -0.058 S 
ATOM     15  N   UNL     1     -36.566  23.491   4.410  0.00  0.00    -0.226 NA
ATOM     16  C   UNL     1     -35.423  25.505   4.327  0.00  0.00    +0.045 C 
ATOM     17  C   UNL     1     -36.459  24.751   3.857  0.00  0.00    +0.104 C 
ATOM     18  C   UNL     1     -35.601  23.328   5.288  0.00  0.00    +0.168 C 
ENDBRANCH  12  16
ENDBRANCH   2  12
TORSDOF 4
ENDMDL
MODEL 8
REMARK VINA RESULT:      -5.1      3.534      5.552
REMARK  Name = 5821911
REMARK  4 active torsions:
REMARK  status: ('A' for Active; 'I' for Inactive)
REMARK    1  A    between atoms: N_2  and  C_12
REMARK    2  A    between atoms: N_4  and  C_6
REMARK    3  A    between atoms: N_4  and  N_11
REMARK    4  A    between atoms: C_12  and  C_16
REMARK                            x       y       z     vdW  Elec       q    Type
REMARK                         _______ _______ _______ _____ _____    ______ ____
ROOT
ATOM      1  O   UNL     1     -34.978  28.719   2.339  0.00  0.00    -0.320 OA
ATOM      2  N   UNL     1     -34.774  27.136   4.111  0.00  0.00    -0.212 NA
ATOM      3  N   UNL     1     -32.823  27.948   3.040  0.00  0.00    -0.215 NA
ATOM      4  C   UNL     1     -35.570  27.592   2.979  0.00  0.00    +0.224 C 
ATOM      5  C   UNL     1     -33.378  27.266   4.133  0.00  0.00    +0.245 C 
ATOM      6  C   UNL     1     -33.649  28.412   1.928  0.00  0.00    +0.224 C 
ATOM      7  C   UNL     1     -31.383  28.096   2.866  0.00  0.00    +0.095 C 
ENDROOT
BRANCH   5   8
ATOM      8  N   UNL     1     -32.669  26.775   5.120  0.00  0.00    -0.058 NA
BRANCH   8  11
ATOM      9  O   UNL     1     -32.467  28.805   5.999  0.00  0.00    -0.108 OA
ATOM     10  O   UNL     1     -32.806  27.104   7.318  0.00  0.00    -0.108 OA
ATOM     11  N   UNL     1     -32.632  27.589   6.189  0.00  0.00    +0.142 N 
ENDBRANCH   8  11
ENDBRANCH   5   8
BRANCH   2  12
ATOM     12  C   UNL     1     -35.477  26.354   5.124  0.00  0.00    +0.112 C 
BRANCH  12  16
ATOM     13 CL   UNL     1     -35.689  21.202   3.206  0.00  0.00    -0.054 Cl
ATOM     14  S   UNL     1     -34.771  23.778   4.378  0.00  0.00    -0.058 S 
ATOM     15  N   UNL     1     -37.200  23.371   3.593  0.00  0.00    -0.226 NA
ATOM     16  C   UNL     1     -35.901  25.042   4.538  0.00  0.00    +0.045 C 
ATOM     17  C   UNL     1     -37.129  24.662   4.079  0.00  0.00    +0.104 C 
ATOM     18  C   UNL     1     -36.016  22.810   3.702  0.00  0.00    +0.168 C 
ENDBRANCH  12  16
ENDBRANCH   2  12
TORSDOF 4
ENDMDL
MODEL 9
REMARK VINA RESULT:      -5.1      3.839      6.123
REMARK  Name = 5821911
REMARK  4 active torsions:
REMARK  status: ('A' for Active; 'I' for Inactive)
REMARK    1  A    between atoms: N_2  and  C_12
REMARK    2  A    between atoms: N_4  and  C_6
REMARK    3  A    between atoms: N_4  and  N_11
REMARK    4  A    between atoms: C_12  and  C_16
REMARK                            x       y       z     vdW  Elec       q    Type
REMARK                         _______ _______ _______ _____ _____    ______ ____
ROOT
ATOM      1  O   UNL     1     -35.184  30.174   3.346  0.00  0.00    -0.320 OA
ATOM      2  N   UNL     1     -33.974  28.132   3.101  0.00  0.00    -0.212 NA
ATOM      3  N   UNL     1     -32.944  29.980   4.167  0.00  0.00    -0.215 NA
ATOM      4  C   UNL     1     -34.961  29.034   2.520  0.00  0.00    +0.224 C 
ATOM      5  C   UNL     1     -32.920  28.604   3.896  0.00  0.00    +0.245 C 
ATOM      6  C   UNL     1     -33.957  30.857   3.586  0.00  0.00    +0.224 C 
ATOM      7  C   UNL     1     -31.877  30.645   4.907  0.00  0.00    +0.095 C 
ENDROOT
BRANCH   5   8
ATOM      8  N   UNL     1     -31.994  27.791   4.342  0.00  0.00    -0.058 NA
BRANCH   8  11
ATOM      9  O   UNL     1     -33.135  27.369   6.200  0.00  0.00    -0.108 OA
ATOM     10  O   UNL     1     -30.986  27.706   6.326  0.00  0.00    -0.108 OA
ATOM     11  N   UNL     1     -32.040  27.631   5.676  0.00  0.00    +0.142 N 
ENDBRANCH   8  11
ENDBRANCH   5   8
BRANCH   2  12
ATOM     12  C   UNL     1     -34.018  26.746   2.647  0.00  0.00    +0.112 C 
BRANCH  12  16
ATOM     13 CL   UNL     1     -35.583  22.853   6.206  0.00  0.00    -0.054 Cl
ATOM     14  S   UNL     1     -34.068  24.452   4.207  0.00  0.00    -0.058 S 
ATOM     15  N   UNL     1     -36.368  25.175   5.142  0.00  0.00    -0.226 NA
ATOM     16  C   UNL     1     -34.750  25.912   3.654  0.00  0.00    +0.045 C 
ATOM     17  C   UNL     1     -35.959  26.142   4.245  0.00  0.00    +0.104 C 
ATOM     18  C   UNL     1     -35.449  24.236   5.202  0.00  0.00    +0.168 C 
ENDBRANCH  12  16
ENDBRANCH   2  12
TORSDOF 4
ENDMDL
