MODEL 1
REMARK VINA RESULT:      -5.7      0.000      0.000
REMARK  Name = 191239
REMARK  7 active torsions:
REMARK  status: ('A' for Active; 'I' for Inactive)
REMARK    1  A    between atoms: C_2  and  C_20
REMARK    2  A    between atoms: C_3  and  O_18
REMARK    3  A    between atoms: C_4  and  N_6
REMARK    4  A    between atoms: C_20  and  O_21
REMARK    5  A    between atoms: O_21  and  P_22
REMARK    6  A    between atoms: P_22  and  O_24
REMARK    7  A    between atoms: P_22  and  O_26
REMARK                            x       y       z     vdW  Elec       q    Type
REMARK                         _______ _______ _______ _____ _____    ______ ____
ROOT
ATOM      1  S   UNL     1     -39.783  24.898   2.846  0.00  0.00    -0.095 S 
ATOM      2  C   UNL     1     -40.104  25.396   1.115  0.00  0.00    +0.114 C 
ATOM      3  C   UNL     1     -38.770  25.963   0.620  0.00  0.00    +0.147 C 
ATOM      4  C   UNL     1     -38.044  24.818   2.629  0.00  0.00    +0.079 C 
ATOM      5  C   UNL     1     -37.675  25.399   1.473  0.00  0.00    +0.025 C 
ENDROOT
BRANCH   4   6
ATOM      6  N   UNL     1     -37.190  24.227   3.594  0.00  0.00    -0.245 N 
ATOM      7  N   UNL     1     -35.976  24.007   5.471  0.00  0.00    -0.242 NA
ATOM      8  N   UNL     1     -36.736  22.066   2.576  0.00  0.00    -0.228 NA
ATOM      9  N   UNL     1     -35.259  20.706   3.964  0.00  0.00    -0.229 NA
ATOM     10  C   UNL     1     -36.609  22.980   3.549  0.00  0.00    +0.155 C 
ATOM     11  C   UNL     1     -36.768  24.798   4.778  0.00  0.00    +0.226 C 
ATOM     12  C   UNL     1     -35.868  22.867   4.715  0.00  0.00    +0.140 C 
ATOM     13  C   UNL     1     -35.176  21.676   4.907  0.00  0.00    +0.143 C 
ATOM     14  C   UNL     1     -36.022  20.958   2.873  0.00  0.00    +0.253 C 
ATOM     15  N   UNL     1     -34.400  21.475   6.061  0.00  0.00    -0.342 N 
ATOM     16  H   UNL     1     -33.914  20.627   6.186  0.00  0.00    +0.144 HD
ATOM     17  H   UNL     1     -34.341  22.181   6.744  0.00  0.00    +0.144 HD
ENDBRANCH   4   6
BRANCH   3  18
ATOM     18  O   UNL     1     -38.748  27.381   0.757  0.00  0.00    -0.379 OA
ATOM     19  H   UNL     1     -38.402  27.780  -0.057  0.00  0.00    +0.211 HD
ENDBRANCH   3  18
BRANCH   2  20
ATOM     20  C   UNL     1     -40.539  24.166   0.323  0.00  0.00    +0.167 C 
BRANCH  20  21
ATOM     21  O   UNL     1     -40.628  23.067   1.213  0.00  0.00    -0.272 OA
BRANCH  21  22
ATOM     22  P   UNL     1     -39.942  21.665   0.781  0.00  0.00    +0.473 P 
ATOM     23  O   UNL     1     -38.795  21.791  -0.178  0.00  0.00    -0.227 OA
BRANCH  22  24
ATOM     24  O   UNL     1     -41.186  20.773   0.258  0.00  0.00    -0.303 OA
ATOM     25  H   UNL     1     -40.948  19.834   0.294  0.00  0.00    +0.222 HD
ENDBRANCH  22  24
BRANCH  22  26
ATOM     26  O   UNL     1     -39.571  20.989   2.203  0.00  0.00    -0.303 OA
ATOM     27  H   UNL     1     -38.718  21.334   2.512  0.00  0.00    +0.222 HD
ENDBRANCH  22  26
ENDBRANCH  21  22
ENDBRANCH  20  21
ENDBRANCH   2  20
TORSDOF 7
ENDMDL
MODEL 2
REMARK VINA RESULT:      -5.6      5.017      6.868
REMARK  Name = 191239
REMARK  7 active torsions:
REMARK  status: ('A' for Active; 'I' for Inactive)
REMARK    1  A    between atoms: C_2  and  C_20
REMARK    2  A    between atoms: C_3  and  O_18
REMARK    3  A    between atoms: C_4  and  N_6
REMARK    4  A    between atoms: C_20  and  O_21
REMARK    5  A    between atoms: O_21  and  P_22
REMARK    6  A    between atoms: P_22  and  O_24
REMARK    7  A    between atoms: P_22  and  O_26
REMARK                            x       y       z     vdW  Elec       q    Type
REMARK                         _______ _______ _______ _____ _____    ______ ____
ROOT
ATOM      1  S   UNL     1     -35.255  25.477   2.751  0.00  0.00    -0.095 S 
ATOM      2  C   UNL     1     -34.811  26.635   4.097  0.00  0.00    +0.114 C 
ATOM      3  C   UNL     1     -35.435  26.024   5.356  0.00  0.00    +0.147 C 
ATOM      4  C   UNL     1     -35.565  24.138   3.840  0.00  0.00    +0.079 C 
ATOM      5  C   UNL     1     -35.639  24.560   5.115  0.00  0.00    +0.025 C 
ENDROOT
BRANCH   4   6
ATOM      6  N   UNL     1     -35.730  22.809   3.374  0.00  0.00    -0.245 N 
ATOM      7  N   UNL     1     -35.504  20.577   3.266  0.00  0.00    -0.242 NA
ATOM      8  N   UNL     1     -37.193  23.148   1.460  0.00  0.00    -0.228 NA
ATOM      9  N   UNL     1     -37.731  21.042   0.350  0.00  0.00    -0.229 NA
ATOM     10  C   UNL     1     -36.472  22.384   2.294  0.00  0.00    +0.155 C 
ATOM     11  C   UNL     1     -35.170  21.671   3.918  0.00  0.00    +0.226 C 
ATOM     12  C   UNL     1     -36.318  21.008   2.249  0.00  0.00    +0.140 C 
ATOM     13  C   UNL     1     -36.982  20.334   1.230  0.00  0.00    +0.143 C 
ATOM     14  C   UNL     1     -37.789  22.386   0.517  0.00  0.00    +0.253 C 
ATOM     15  N   UNL     1     -36.882  18.938   1.108  0.00  0.00    -0.342 N 
ATOM     16  H   UNL     1     -37.357  18.471   0.383  0.00  0.00    +0.144 HD
ATOM     17  H   UNL     1     -36.338  18.425   1.749  0.00  0.00    +0.144 HD
ENDBRANCH   4   6
BRANCH   3  18
ATOM     18  O   UNL     1     -36.708  26.608   5.616  0.00  0.00    -0.379 OA
ATOM     19  H   UNL     1     -37.071  26.241   6.438  0.00  0.00    +0.211 HD
ENDBRANCH   3  18
BRANCH   2  20
ATOM     20  C   UNL     1     -33.290  26.721   4.188  0.00  0.00    +0.167 C 
BRANCH  20  21
ATOM     21  O   UNL     1     -32.930  26.892   5.548  0.00  0.00    -0.272 OA
BRANCH  21  22
ATOM     22  P   UNL     1     -31.936  28.108   5.937  0.00  0.00    +0.473 P 
ATOM     23  O   UNL     1     -30.503  27.909   5.537  0.00  0.00    -0.227 OA
BRANCH  22  24
ATOM     24  O   UNL     1     -32.188  28.319   7.521  0.00  0.00    -0.303 OA
ATOM     25  H   UNL     1     -32.739  27.596   7.859  0.00  0.00    +0.222 HD
ENDBRANCH  22  24
BRANCH  22  26
ATOM     26  O   UNL     1     -32.657  29.394   5.273  0.00  0.00    -0.303 OA
ATOM     27  H   UNL     1     -32.529  30.168   5.845  0.00  0.00    +0.222 HD
ENDBRANCH  22  26
ENDBRANCH  21  22
ENDBRANCH  20  21
ENDBRANCH   2  20
TORSDOF 7
ENDMDL
MODEL 3
REMARK VINA RESULT:      -5.5      6.400      7.900
REMARK  Name = 191239
REMARK  7 active torsions:
REMARK  status: ('A' for Active; 'I' for Inactive)
REMARK    1  A    between atoms: C_2  and  C_20
REMARK    2  A    between atoms: C_3  and  O_18
REMARK    3  A    between atoms: C_4  and  N_6
REMARK    4  A    between atoms: C_20  and  O_21
REMARK    5  A    between atoms: O_21  and  P_22
REMARK    6  A    between atoms: P_22  and  O_24
REMARK    7  A    between atoms: P_22  and  O_26
REMARK                            x       y       z     vdW  Elec       q    Type
REMARK                         _______ _______ _______ _____ _____    ______ ____
ROOT
ATOM      1  S   UNL     1     -32.832  28.671   2.776  0.00  0.00    -0.095 S 
ATOM      2  C   UNL     1     -32.524  30.388   3.330  0.00  0.00    +0.114 C 
ATOM      3  C   UNL     1     -33.832  31.131   3.042  0.00  0.00    +0.147 C 
ATOM      4  C   UNL     1     -34.577  28.832   2.849  0.00  0.00    +0.079 C 
ATOM      5  C   UNL     1     -34.938  30.122   2.975  0.00  0.00    +0.025 C 
ENDROOT
BRANCH   4   6
ATOM      6  N   UNL     1     -35.442  27.713   2.759  0.00  0.00    -0.245 N 
ATOM      7  N   UNL     1     -36.949  26.286   1.899  0.00  0.00    -0.242 NA
ATOM      8  N   UNL     1     -35.067  26.639   4.909  0.00  0.00    -0.228 NA
ATOM      9  N   UNL     1     -36.410  24.615   5.155  0.00  0.00    -0.229 NA
ATOM     10  C   UNL     1     -35.648  26.732   3.704  0.00  0.00    +0.155 C 
ATOM     11  C   UNL     1     -36.256  27.387   1.693  0.00  0.00    +0.226 C 
ATOM     12  C   UNL     1     -36.578  25.866   3.151  0.00  0.00    +0.140 C 
ATOM     13  C   UNL     1     -36.957  24.774   3.925  0.00  0.00    +0.143 C 
ATOM     14  C   UNL     1     -35.512  25.545   5.564  0.00  0.00    +0.253 C 
ATOM     15  N   UNL     1     -37.894  23.844   3.444  0.00  0.00    -0.342 N 
ATOM     16  H   UNL     1     -38.155  23.075   4.001  0.00  0.00    +0.144 HD
ATOM     17  H   UNL     1     -38.290  23.961   2.551  0.00  0.00    +0.144 HD
ENDBRANCH   4   6
BRANCH   3  18
ATOM     18  O   UNL     1     -33.765  31.793   1.782  0.00  0.00    -0.379 OA
ATOM     19  H   UNL     1     -33.050  31.407   1.252  0.00  0.00    +0.211 HD
ENDBRANCH   3  18
BRANCH   2  20
ATOM     20  C   UNL     1     -32.183  30.371   4.818  0.00  0.00    +0.167 C 
BRANCH  20  21
ATOM     21  O   UNL     1     -32.573  29.118   5.353  0.00  0.00    -0.272 OA
BRANCH  21  22
ATOM     22  P   UNL     1     -31.575  28.377   6.390  0.00  0.00    +0.473 P 
ATOM     23  O   UNL     1     -30.237  28.002   5.823  0.00  0.00    -0.227 OA
BRANCH  22  24
ATOM     24  O   UNL     1     -32.456  27.143   6.956  0.00  0.00    -0.303 OA
ATOM     25  H   UNL     1     -33.371  27.435   7.090  0.00  0.00    +0.222 HD
ENDBRANCH  22  24
BRANCH  22  26
ATOM     26  O   UNL     1     -31.524  29.400   7.641  0.00  0.00    -0.303 OA
ATOM     27  H   UNL     1     -30.849  29.105   8.273  0.00  0.00    +0.222 HD
ENDBRANCH  22  26
ENDBRANCH  21  22
ENDBRANCH  20  21
ENDBRANCH   2  20
TORSDOF 7
ENDMDL
MODEL 4
REMARK VINA RESULT:      -5.4      4.947      6.053
REMARK  Name = 191239
REMARK  7 active torsions:
REMARK  status: ('A' for Active; 'I' for Inactive)
REMARK    1  A    between atoms: C_2  and  C_20
REMARK    2  A    between atoms: C_3  and  O_18
REMARK    3  A    between atoms: C_4  and  N_6
REMARK    4  A    between atoms: C_20  and  O_21
REMARK    5  A    between atoms: O_21  and  P_22
REMARK    6  A    between atoms: P_22  and  O_24
REMARK    7  A    between atoms: P_22  and  O_26
REMARK                            x       y       z     vdW  Elec       q    Type
REMARK                         _______ _______ _______ _____ _____    ______ ____
ROOT
ATOM      1  S   UNL     1     -36.383  25.872   3.734  0.00  0.00    -0.095 S 
ATOM      2  C   UNL     1     -36.570  24.534   2.499  0.00  0.00    +0.114 C 
ATOM      3  C   UNL     1     -35.220  24.480   1.778  0.00  0.00    +0.147 C 
ATOM      4  C   UNL     1     -34.630  25.808   3.717  0.00  0.00    +0.079 C 
ATOM      5  C   UNL     1     -34.184  25.083   2.676  0.00  0.00    +0.025 C 
ENDROOT
BRANCH   4   6
ATOM      6  N   UNL     1     -33.842  26.475   4.688  0.00  0.00    -0.245 N 
ATOM      7  N   UNL     1     -32.979  26.998   6.696  0.00  0.00    -0.242 NA
ATOM      8  N   UNL     1     -32.666  28.105   3.319  0.00  0.00    -0.228 NA
ATOM      9  N   UNL     1     -31.165  29.492   4.653  0.00  0.00    -0.229 NA
ATOM     10  C   UNL     1     -32.960  27.512   4.485  0.00  0.00    +0.155 C 
ATOM     11  C   UNL     1     -33.809  26.211   6.043  0.00  0.00    +0.226 C 
ATOM     12  C   UNL     1     -32.441  27.816   5.734  0.00  0.00    +0.140 C 
ATOM     13  C   UNL     1     -31.510  28.848   5.795  0.00  0.00    +0.143 C 
ATOM     14  C   UNL     1     -31.756  29.086   3.503  0.00  0.00    +0.253 C 
ATOM     15  N   UNL     1     -30.932  29.223   7.019  0.00  0.00    -0.342 N 
ATOM     16  H   UNL     1     -30.274  29.955   7.050  0.00  0.00    +0.144 HD
ATOM     17  H   UNL     1     -31.185  28.753   7.847  0.00  0.00    +0.144 HD
ENDBRANCH   4   6
BRANCH   3  18
ATOM     18  O   UNL     1     -35.262  25.247   0.578  0.00  0.00    -0.379 OA
ATOM     19  H   UNL     1     -36.026  25.845   0.604  0.00  0.00    +0.211 HD
ENDBRANCH   3  18
BRANCH   2  20
ATOM     20  C   UNL     1     -36.888  23.233   3.231  0.00  0.00    +0.167 C 
BRANCH  20  21
ATOM     21  O   UNL     1     -36.534  23.385   4.594  0.00  0.00    -0.272 OA
BRANCH  21  22
ATOM     22  P   UNL     1     -35.491  22.330   5.243  0.00  0.00    +0.473 P 
ATOM     23  O   UNL     1     -34.115  22.875   5.497  0.00  0.00    -0.227 OA
BRANCH  22  24
ATOM     24  O   UNL     1     -35.558  21.059   4.245  0.00  0.00    -0.303 OA
ATOM     25  H   UNL     1     -35.329  20.253   4.733  0.00  0.00    +0.222 HD
ENDBRANCH  22  24
BRANCH  22  26
ATOM     26  O   UNL     1     -36.271  21.810   6.561  0.00  0.00    -0.303 OA
ATOM     27  H   UNL     1     -35.641  21.382   7.162  0.00  0.00    +0.222 HD
ENDBRANCH  22  26
ENDBRANCH  21  22
ENDBRANCH  20  21
ENDBRANCH   2  20
TORSDOF 7
ENDMDL
MODEL 5
REMARK VINA RESULT:      -5.4      4.097      5.277
REMARK  Name = 191239
REMARK  7 active torsions:
REMARK  status: ('A' for Active; 'I' for Inactive)
REMARK    1  A    between atoms: C_2  and  C_20
REMARK    2  A    between atoms: C_3  and  O_18
REMARK    3  A    between atoms: C_4  and  N_6
REMARK    4  A    between atoms: C_20  and  O_21
REMARK    5  A    between atoms: O_21  and  P_22
REMARK    6  A    between atoms: P_22  and  O_24
REMARK    7  A    between atoms: P_22  and  O_26
REMARK                            x       y       z     vdW  Elec       q    Type
REMARK                         _______ _______ _______ _____ _____    ______ ____
ROOT
ATOM      1  S   UNL     1     -35.285  23.666   5.126  0.00  0.00    -0.095 S 
ATOM      2  C   UNL     1     -36.515  23.161   3.868  0.00  0.00    +0.114 C 
ATOM      3  C   UNL     1     -37.140  24.474   3.387  0.00  0.00    +0.147 C 
ATOM      4  C   UNL     1     -35.178  25.314   4.535  0.00  0.00    +0.079 C 
ATOM      5  C   UNL     1     -36.177  25.584   3.677  0.00  0.00    +0.025 C 
ENDROOT
BRANCH   4   6
ATOM      6  N   UNL     1     -34.161  26.203   4.963  0.00  0.00    -0.245 N 
ATOM      7  N   UNL     1     -32.747  27.270   6.346  0.00  0.00    -0.242 NA
ATOM      8  N   UNL     1     -33.540  27.270   2.867  0.00  0.00    -0.228 NA
ATOM      9  N   UNL     1     -31.765  28.916   3.182  0.00  0.00    -0.229 NA
ATOM     10  C   UNL     1     -33.432  27.080   4.190  0.00  0.00    +0.155 C 
ATOM     11  C   UNL     1     -33.701  26.366   6.254  0.00  0.00    +0.226 C 
ATOM     12  C   UNL     1     -32.569  27.723   5.063  0.00  0.00    +0.140 C 
ATOM     13  C   UNL     1     -31.713  28.673   4.514  0.00  0.00    +0.143 C 
ATOM     14  C   UNL     1     -32.663  28.210   2.452  0.00  0.00    +0.253 C 
ATOM     15  N   UNL     1     -30.804  29.374   5.325  0.00  0.00    -0.342 N 
ATOM     16  H   UNL     1     -30.203  30.044   4.925  0.00  0.00    +0.144 HD
ATOM     17  H   UNL     1     -30.768  29.195   6.292  0.00  0.00    +0.144 HD
ENDBRANCH   4   6
BRANCH   3  18
ATOM     18  O   UNL     1     -38.348  24.742   4.094  0.00  0.00    -0.379 OA
ATOM     19  H   UNL     1     -38.431  25.697   4.241  0.00  0.00    +0.211 HD
ENDBRANCH   3  18
BRANCH   2  20
ATOM     20  C   UNL     1     -35.795  22.417   2.747  0.00  0.00    +0.167 C 
BRANCH  20  21
ATOM     21  O   UNL     1     -36.704  22.226   1.677  0.00  0.00    -0.272 OA
BRANCH  21  22
ATOM     22  P   UNL     1     -37.437  20.790   1.533  0.00  0.00    +0.473 P 
ATOM     23  O   UNL     1     -37.473  20.235   0.139  0.00  0.00    -0.227 OA
BRANCH  22  24
ATOM     24  O   UNL     1     -38.882  21.026   2.220  0.00  0.00    -0.303 OA
ATOM     25  H   UNL     1     -39.241  21.880   1.934  0.00  0.00    +0.222 HD
ENDBRANCH  22  24
BRANCH  22  26
ATOM     26  O   UNL     1     -36.657  19.873   2.613  0.00  0.00    -0.303 OA
ATOM     27  H   UNL     1     -37.251  19.673   3.355  0.00  0.00    +0.222 HD
ENDBRANCH  22  26
ENDBRANCH  21  22
ENDBRANCH  20  21
ENDBRANCH   2  20
TORSDOF 7
ENDMDL
MODEL 6
REMARK VINA RESULT:      -5.3      4.481      5.619
REMARK  Name = 191239
REMARK  7 active torsions:
REMARK  status: ('A' for Active; 'I' for Inactive)
REMARK    1  A    between atoms: C_2  and  C_20
REMARK    2  A    between atoms: C_3  and  O_18
REMARK    3  A    between atoms: C_4  and  N_6
REMARK    4  A    between atoms: C_20  and  O_21
REMARK    5  A    between atoms: O_21  and  P_22
REMARK    6  A    between atoms: P_22  and  O_24
REMARK    7  A    between atoms: P_22  and  O_26
REMARK                            x       y       z     vdW  Elec       q    Type
REMARK                         _______ _______ _______ _____ _____    ______ ____
ROOT
ATOM      1  S   UNL     1     -34.912  23.975   4.005  0.00  0.00    -0.095 S 
ATOM      2  C   UNL     1     -36.520  23.445   3.309  0.00  0.00    +0.114 C 
ATOM      3  C   UNL     1     -37.329  24.739   3.170  0.00  0.00    +0.147 C 
ATOM      4  C   UNL     1     -35.103  25.641   3.493  0.00  0.00    +0.079 C 
ATOM      5  C   UNL     1     -36.368  25.886   3.108  0.00  0.00    +0.025 C 
ENDROOT
BRANCH   4   6
ATOM      6  N   UNL     1     -34.030  26.568   3.528  0.00  0.00    -0.245 N 
ATOM      7  N   UNL     1     -32.484  28.020   2.788  0.00  0.00    -0.242 NA
ATOM      8  N   UNL     1     -33.530  26.639   5.907  0.00  0.00    -0.228 NA
ATOM      9  N   UNL     1     -31.688  28.164   6.397  0.00  0.00    -0.229 NA
ATOM     10  C   UNL     1     -33.333  27.005   4.631  0.00  0.00    +0.155 C 
ATOM     11  C   UNL     1     -33.470  27.217   2.446  0.00  0.00    +0.226 C 
ATOM     12  C   UNL     1     -32.388  27.898   4.151  0.00  0.00    +0.140 C 
ATOM     13  C   UNL     1     -31.546  28.487   5.089  0.00  0.00    +0.143 C 
ATOM     14  C   UNL     1     -32.657  27.273   6.720  0.00  0.00    +0.253 C 
ATOM     15  N   UNL     1     -30.559  29.404   4.691  0.00  0.00    -0.342 N 
ATOM     16  H   UNL     1     -29.968  29.814   5.364  0.00  0.00    +0.144 HD
ATOM     17  H   UNL     1     -30.457  29.637   3.740  0.00  0.00    +0.144 HD
ENDBRANCH   4   6
BRANCH   3  18
ATOM     18  O   UNL     1     -38.169  24.928   4.305  0.00  0.00    -0.379 OA
ATOM     19  H   UNL     1     -37.715  25.489   4.953  0.00  0.00    +0.211 HD
ENDBRANCH   3  18
BRANCH   2  20
ATOM     20  C   UNL     1     -36.274  22.768   1.964  0.00  0.00    +0.167 C 
BRANCH  20  21
ATOM     21  O   UNL     1     -35.274  21.779   2.134  0.00  0.00    -0.272 OA
BRANCH  21  22
ATOM     22  P   UNL     1     -35.604  20.260   1.678  0.00  0.00    +0.473 P 
ATOM     23  O   UNL     1     -35.870  20.083   0.212  0.00  0.00    -0.227 OA
BRANCH  22  24
ATOM     24  O   UNL     1     -36.812  19.819   2.659  0.00  0.00    -0.303 OA
ATOM     25  H   UNL     1     -36.712  18.884   2.894  0.00  0.00    +0.222 HD
ENDBRANCH  22  24
BRANCH  22  26
ATOM     26  O   UNL     1     -34.340  19.427   2.248  0.00  0.00    -0.303 OA
ATOM     27  H   UNL     1     -34.535  19.118   3.147  0.00  0.00    +0.222 HD
ENDBRANCH  22  26
ENDBRANCH  21  22
ENDBRANCH  20  21
ENDBRANCH   2  20
TORSDOF 7
ENDMDL
MODEL 7
REMARK VINA RESULT:      -5.2      4.112      6.020
REMARK  Name = 191239
REMARK  7 active torsions:
REMARK  status: ('A' for Active; 'I' for Inactive)
REMARK    1  A    between atoms: C_2  and  C_20
REMARK    2  A    between atoms: C_3  and  O_18
REMARK    3  A    between atoms: C_4  and  N_6
REMARK    4  A    between atoms: C_20  and  O_21
REMARK    5  A    between atoms: O_21  and  P_22
REMARK    6  A    between atoms: P_22  and  O_24
REMARK    7  A    between atoms: P_22  and  O_26
REMARK                            x       y       z     vdW  Elec       q    Type
REMARK                         _______ _______ _______ _____ _____    ______ ____
ROOT
ATOM      1  S   UNL     1     -34.737  24.063   2.831  0.00  0.00    -0.095 S 
ATOM      2  C   UNL     1     -35.862  22.907   3.697  0.00  0.00    +0.114 C 
ATOM      3  C   UNL     1     -35.921  23.428   5.137  0.00  0.00    +0.147 C 
ATOM      4  C   UNL     1     -34.941  25.340   4.016  0.00  0.00    +0.079 C 
ATOM      5  C   UNL     1     -35.542  24.877   5.126  0.00  0.00    +0.025 C 
ENDROOT
BRANCH   4   6
ATOM      6  N   UNL     1     -34.488  26.663   3.783  0.00  0.00    -0.245 N 
ATOM      7  N   UNL     1     -33.234  28.518   3.967  0.00  0.00    -0.242 NA
ATOM      8  N   UNL     1     -36.089  27.435   2.122  0.00  0.00    -0.228 NA
ATOM      9  N   UNL     1     -35.643  29.736   1.438  0.00  0.00    -0.229 NA
ATOM     10  C   UNL     1     -35.023  27.594   2.921  0.00  0.00    +0.155 C 
ATOM     11  C   UNL     1     -33.411  27.282   4.385  0.00  0.00    +0.226 C 
ATOM     12  C   UNL     1     -34.234  28.726   3.052  0.00  0.00    +0.140 C 
ATOM     13  C   UNL     1     -34.577  29.825   2.270  0.00  0.00    +0.143 C 
ATOM     14  C   UNL     1     -36.323  28.563   1.417  0.00  0.00    +0.253 C 
ATOM     15  N   UNL     1     -33.832  31.014   2.338  0.00  0.00    -0.342 N 
ATOM     16  H   UNL     1     -34.084  31.786   1.780  0.00  0.00    +0.144 HD
ATOM     17  H   UNL     1     -33.058  31.077   2.943  0.00  0.00    +0.144 HD
ENDBRANCH   4   6
BRANCH   3  18
ATOM     18  O   UNL     1     -34.987  22.734   5.958  0.00  0.00    -0.379 OA
ATOM     19  H   UNL     1     -34.669  23.326   6.658  0.00  0.00    +0.211 HD
ENDBRANCH   3  18
BRANCH   2  20
ATOM     20  C   UNL     1     -37.225  22.944   3.011  0.00  0.00    +0.167 C 
BRANCH  20  21
ATOM     21  O   UNL     1     -38.048  23.874   3.695  0.00  0.00    -0.272 OA
BRANCH  21  22
ATOM     22  P   UNL     1     -38.834  24.993   2.828  0.00  0.00    +0.473 P 
ATOM     23  O   UNL     1     -40.303  24.745   2.658  0.00  0.00    -0.227 OA
BRANCH  22  24
ATOM     24  O   UNL     1     -37.983  25.082   1.455  0.00  0.00    -0.303 OA
ATOM     25  H   UNL     1     -38.545  25.439   0.750  0.00  0.00    +0.222 HD
ENDBRANCH  22  24
BRANCH  22  26
ATOM     26  O   UNL     1     -38.458  26.371   3.588  0.00  0.00    -0.303 OA
ATOM     27  H   UNL     1     -37.816  26.868   3.056  0.00  0.00    +0.222 HD
ENDBRANCH  22  26
ENDBRANCH  21  22
ENDBRANCH  20  21
ENDBRANCH   2  20
TORSDOF 7
ENDMDL
MODEL 8
REMARK VINA RESULT:      -5.2      4.484      6.593
REMARK  Name = 191239
REMARK  7 active torsions:
REMARK  status: ('A' for Active; 'I' for Inactive)
REMARK    1  A    between atoms: C_2  and  C_20
REMARK    2  A    between atoms: C_3  and  O_18
REMARK    3  A    between atoms: C_4  and  N_6
REMARK    4  A    between atoms: C_20  and  O_21
REMARK    5  A    between atoms: O_21  and  P_22
REMARK    6  A    between atoms: P_22  and  O_24
REMARK    7  A    between atoms: P_22  and  O_26
REMARK                            x       y       z     vdW  Elec       q    Type
REMARK                         _______ _______ _______ _____ _____    ______ ____
ROOT
ATOM      1  S   UNL     1     -36.482  23.762   3.673  0.00  0.00    -0.095 S 
ATOM      2  C   UNL     1     -35.416  23.850   5.158  0.00  0.00    +0.114 C 
ATOM      3  C   UNL     1     -35.191  22.390   5.563  0.00  0.00    +0.147 C 
ATOM      4  C   UNL     1     -36.057  22.098   3.318  0.00  0.00    +0.079 C 
ATOM      5  C   UNL     1     -35.421  21.530   4.358  0.00  0.00    +0.025 C 
ENDROOT
BRANCH   4   6
ATOM      6  N   UNL     1     -36.389  21.482   2.085  0.00  0.00    -0.245 N 
ATOM      7  N   UNL     1     -36.109  20.444   0.112  0.00  0.00    -0.242 NA
ATOM      8  N   UNL     1     -38.815  21.650   2.100  0.00  0.00    -0.228 NA
ATOM      9  N   UNL     1     -39.801  20.675   0.091  0.00  0.00    -0.229 NA
ATOM     10  C   UNL     1     -37.645  21.290   1.554  0.00  0.00    +0.155 C 
ATOM     11  C   UNL     1     -35.505  20.950   1.167  0.00  0.00    +0.226 C 
ATOM     12  C   UNL     1     -37.446  20.650   0.341  0.00  0.00    +0.140 C 
ATOM     13  C   UNL     1     -38.583  20.341  -0.400  0.00  0.00    +0.143 C 
ATOM     14  C   UNL     1     -39.840  21.300   1.293  0.00  0.00    +0.253 C 
ATOM     15  N   UNL     1     -38.476  19.692  -1.642  0.00  0.00    -0.342 N 
ATOM     16  H   UNL     1     -39.287  19.478  -2.157  0.00  0.00    +0.144 HD
ATOM     17  H   UNL     1     -37.590  19.449  -1.996  0.00  0.00    +0.144 HD
ENDBRANCH   4   6
BRANCH   3  18
ATOM     18  O   UNL     1     -36.124  22.000   6.566  0.00  0.00    -0.379 OA
ATOM     19  H   UNL     1     -35.743  21.287   7.103  0.00  0.00    +0.211 HD
ENDBRANCH   3  18
BRANCH   2  20
ATOM     20  C   UNL     1     -34.114  24.555   4.787  0.00  0.00    +0.167 C 
BRANCH  20  21
ATOM     21  O   UNL     1     -34.362  25.403   3.679  0.00  0.00    -0.272 OA
BRANCH  21  22
ATOM     22  P   UNL     1     -33.997  26.974   3.812  0.00  0.00    +0.473 P 
ATOM     23  O   UNL     1     -33.012  27.484   2.801  0.00  0.00    -0.227 OA
BRANCH  22  24
ATOM     24  O   UNL     1     -33.546  27.135   5.357  0.00  0.00    -0.303 OA
ATOM     25  H   UNL     1     -32.683  26.714   5.488  0.00  0.00    +0.222 HD
ENDBRANCH  22  24
BRANCH  22  26
ATOM     26  O   UNL     1     -35.447  27.690   3.772  0.00  0.00    -0.303 OA
ATOM     27  H   UNL     1     -35.903  27.542   4.616  0.00  0.00    +0.222 HD
ENDBRANCH  22  26
ENDBRANCH  21  22
ENDBRANCH  20  21
ENDBRANCH   2  20
TORSDOF 7
ENDMDL
MODEL 9
REMARK VINA RESULT:      -5.2      4.341      5.752
REMARK  Name = 191239
REMARK  7 active torsions:
REMARK  status: ('A' for Active; 'I' for Inactive)
REMARK    1  A    between atoms: C_2  and  C_20
REMARK    2  A    between atoms: C_3  and  O_18
REMARK    3  A    between atoms: C_4  and  N_6
REMARK    4  A    between atoms: C_20  and  O_21
REMARK    5  A    between atoms: O_21  and  P_22
REMARK    6  A    between atoms: P_22  and  O_24
REMARK    7  A    between atoms: P_22  and  O_26
REMARK                            x       y       z     vdW  Elec       q    Type
REMARK                         _______ _______ _______ _____ _____    ______ ____
ROOT
ATOM      1  S   UNL     1     -34.739  24.325   2.917  0.00  0.00    -0.095 S 
ATOM      2  C   UNL     1     -36.235  23.525   3.605  0.00  0.00    +0.114 C 
ATOM      3  C   UNL     1     -36.379  24.113   5.012  0.00  0.00    +0.147 C 
ATOM      4  C   UNL     1     -34.794  25.669   4.043  0.00  0.00    +0.079 C 
ATOM      5  C   UNL     1     -35.652  25.422   5.048  0.00  0.00    +0.025 C 
ENDROOT
BRANCH   4   6
ATOM      6  N   UNL     1     -33.995  26.828   3.872  0.00  0.00    -0.245 N 
ATOM      7  N   UNL     1     -33.054  28.602   2.865  0.00  0.00    -0.242 NA
ATOM      8  N   UNL     1     -32.986  27.047   6.075  0.00  0.00    -0.228 NA
ATOM      9  N   UNL     1     -31.498  28.978   6.199  0.00  0.00    -0.229 NA
ATOM     10  C   UNL     1     -33.185  27.434   4.806  0.00  0.00    +0.155 C 
ATOM     11  C   UNL     1     -33.873  27.580   2.721  0.00  0.00    +0.226 C 
ATOM     12  C   UNL     1     -32.618  28.523   4.163  0.00  0.00    +0.140 C 
ATOM     13  C   UNL     1     -31.746  29.310   4.909  0.00  0.00    +0.143 C 
ATOM     14  C   UNL     1     -32.125  27.883   6.694  0.00  0.00    +0.253 C 
ATOM     15  N   UNL     1     -31.126  30.434   4.337  0.00  0.00    -0.342 N 
ATOM     16  H   UNL     1     -30.510  30.983   4.875  0.00  0.00    +0.144 HD
ATOM     17  H   UNL     1     -31.307  30.673   3.400  0.00  0.00    +0.144 HD
ENDBRANCH   4   6
BRANCH   3  18
ATOM     18  O   UNL     1     -35.783  23.252   5.977  0.00  0.00    -0.379 OA
ATOM     19  H   UNL     1     -36.409  23.096   6.702  0.00  0.00    +0.211 HD
ENDBRANCH   3  18
BRANCH   2  20
ATOM     20  C   UNL     1     -37.426  23.862   2.712  0.00  0.00    +0.167 C 
BRANCH  20  21
ATOM     21  O   UNL     1     -38.439  22.895   2.929  0.00  0.00    -0.272 OA
BRANCH  21  22
ATOM     22  P   UNL     1     -38.662  21.745   1.811  0.00  0.00    +0.473 P 
ATOM     23  O   UNL     1     -38.518  22.206   0.391  0.00  0.00    -0.227 OA
BRANCH  22  24
ATOM     24  O   UNL     1     -40.102  21.115   2.191  0.00  0.00    -0.303 OA
ATOM     25  H   UNL     1     -39.986  20.422   2.860  0.00  0.00    +0.222 HD
ENDBRANCH  22  24
BRANCH  22  26
ATOM     26  O   UNL     1     -37.621  20.592   2.263  0.00  0.00    -0.303 OA
ATOM     27  H   UNL     1     -37.515  19.952   1.541  0.00  0.00    +0.222 HD
ENDBRANCH  22  26
ENDBRANCH  21  22
ENDBRANCH  20  21
ENDBRANCH   2  20
TORSDOF 7
ENDMDL
