MODEL 1
REMARK VINA RESULT:      -7.0      0.000      0.000
REMARK  Name = 5069
REMARK  8 active torsions:
REMARK  status: ('A' for Active; 'I' for Inactive)
REMARK    1  A    between atoms: N_1  and  C_7
REMARK    2  A    between atoms: C_4  and  C_27
REMARK    3  A    between atoms: C_5  and  C_24
REMARK    4  A    between atoms: C_8  and  C_14
REMARK    5  A    between atoms: C_14  and  C_16
REMARK    6  A    between atoms: C_27  and  N_29
REMARK    7  A    between atoms: C_30  and  C_32
REMARK    8  A    between atoms: C_32  and  N_33
REMARK                            x       y       z     vdW  Elec       q    Type
REMARK                         _______ _______ _______ _____ _____    ______ ____
ROOT
ATOM      1  N   UNL     1     -34.186  25.744   2.574  0.00  0.00    -0.155 N 
ATOM      2  N   UNL     1     -33.280  25.804   3.561  0.00  0.00    -0.102 NA
ATOM      3  N   UNL     1     -34.921  27.375   3.828  0.00  0.00    -0.331 NA
ATOM      4  C   UNL     1     -35.140  26.678   2.754  0.00  0.00    +0.215 C 
ATOM      5  C   UNL     1     -33.770  26.806   4.294  0.00  0.00    +0.159 C 
ENDROOT
BRANCH   1   7
ATOM      6 CL   UNL     1     -33.636  21.837  -1.808  0.00  0.00    -0.082 Cl
ATOM      7  C   UNL     1     -34.072  24.811   1.548  0.00  0.00    +0.080 C 
ATOM      8  C   UNL     1     -34.911  23.702   1.494  0.00  0.00    +0.055 C 
ATOM      9  C   UNL     1     -33.098  25.007   0.572  0.00  0.00    +0.018 C 
ATOM     10  C   UNL     1     -34.777  22.781   0.455  0.00  0.00    +0.016 C 
ATOM     11  C   UNL     1     -32.964  24.086  -0.467  0.00  0.00    +0.013 C 
ATOM     12  C   UNL     1     -33.803  22.972  -0.526  0.00  0.00    +0.058 C 
BRANCH   8  14
ATOM     13  O   UNL     1     -37.126  23.719   2.244  0.00  0.00    -0.286 OA
ATOM     14  C   UNL     1     -35.941  23.468   2.499  0.00  0.00    +0.198 C 
BRANCH  14  16
ATOM     15 CL   UNL     1     -35.276  20.471   2.718  0.00  0.00    -0.082 Cl
ATOM     16  C   UNL     1     -35.626  22.928   3.854  0.00  0.00    +0.050 C 
ATOM     17  C   UNL     1     -35.318  21.596   4.028  0.00  0.00    +0.061 C 
ATOM     18  C   UNL     1     -35.657  23.822   4.903  0.00  0.00    +0.004 C 
ATOM     19  C   UNL     1     -35.026  21.136   5.311  0.00  0.00    +0.011 C 
ATOM     20  C   UNL     1     -35.367  23.361   6.187  0.00  0.00    +0.000 C 
ATOM     21  C   UNL     1     -35.052  22.018   6.392  0.00  0.00    +0.001 C 
ENDBRANCH  14  16
ENDBRANCH   8  14
ENDBRANCH   1   7
BRANCH   5  24
ATOM     22  O   UNL     1     -33.425  26.751   6.592  0.00  0.00    -0.257 OA
ATOM     23  N   UNL     1     -32.131  28.260   5.390  0.00  0.00    -0.264 N 
ATOM     24  C   UNL     1     -33.121  27.247   5.491  0.00  0.00    +0.325 C 
ATOM     25  C   UNL     1     -31.026  28.311   6.340  0.00  0.00    +0.116 C 
ATOM     26  C   UNL     1     -32.117  29.292   4.354  0.00  0.00    +0.116 C 
ENDBRANCH   5  24
BRANCH   4  27
ATOM     27  C   UNL     1     -36.290  26.857   1.809  0.00  0.00    +0.168 C 
BRANCH  27  29
ATOM     28  O   UNL     1     -38.847  26.221   0.615  0.00  0.00    -0.277 OA
ATOM     29  N   UNL     1     -37.529  26.565   2.495  0.00  0.00    -0.299 N 
ATOM     30  C   UNL     1     -38.712  26.269   1.836  0.00  0.00    +0.201 C 
ATOM     31  H   UNL     1     -37.533  26.578   3.480  0.00  0.00    +0.150 HD
BRANCH  30  32
ATOM     32  C   UNL     1     -39.856  26.039   2.802  0.00  0.00    +0.001 C 
BRANCH  32  33
ATOM     33  N   UNL     1     -39.449  25.036   3.776  0.00  0.00    +0.386 N 
ATOM     34  H   UNL     1     -39.741  24.112   3.454  0.00  0.00    -0.089 HD
ATOM     35  H   UNL     1     -39.887  25.236   4.675  0.00  0.00    -0.089 HD
ATOM     36  H   UNL     1     -38.435  25.054   3.880  0.00  0.00    -0.089 HD
ENDBRANCH  32  33
ENDBRANCH  30  32
ENDBRANCH  27  29
ENDBRANCH   4  27
TORSDOF 8
ENDMDL
MODEL 2
REMARK VINA RESULT:      -6.7      3.228      5.447
REMARK  Name = 5069
REMARK  8 active torsions:
REMARK  status: ('A' for Active; 'I' for Inactive)
REMARK    1  A    between atoms: N_1  and  C_7
REMARK    2  A    between atoms: C_4  and  C_27
REMARK    3  A    between atoms: C_5  and  C_24
REMARK    4  A    between atoms: C_8  and  C_14
REMARK    5  A    between atoms: C_14  and  C_16
REMARK    6  A    between atoms: C_27  and  N_29
REMARK    7  A    between atoms: C_30  and  C_32
REMARK    8  A    between atoms: C_32  and  N_33
REMARK                            x       y       z     vdW  Elec       q    Type
REMARK                         _______ _______ _______ _____ _____    ______ ____
ROOT
ATOM      1  N   UNL     1     -36.553  22.858   0.696  0.00  0.00    -0.155 N 
ATOM      2  N   UNL     1     -35.883  23.632  -0.172  0.00  0.00    -0.102 NA
ATOM      3  N   UNL     1     -36.320  24.741   1.781  0.00  0.00    -0.331 NA
ATOM      4  C   UNL     1     -36.798  23.533   1.836  0.00  0.00    +0.215 C 
ATOM      5  C   UNL     1     -35.767  24.759   0.532  0.00  0.00    +0.159 C 
ENDROOT
BRANCH   1   7
ATOM      6 CL   UNL     1     -38.108  17.346  -0.706  0.00  0.00    -0.082 Cl
ATOM      7  C   UNL     1     -36.902  21.550   0.373  0.00  0.00    +0.080 C 
ATOM      8  C   UNL     1     -36.064  20.487   0.695  0.00  0.00    +0.055 C 
ATOM      9  C   UNL     1     -38.110  21.323  -0.280  0.00  0.00    +0.018 C 
ATOM     10  C   UNL     1     -36.437  19.185   0.361  0.00  0.00    +0.016 C 
ATOM     11  C   UNL     1     -38.483  20.022  -0.614  0.00  0.00    +0.013 C 
ATOM     12  C   UNL     1     -37.646  18.952  -0.294  0.00  0.00    +0.058 C 
BRANCH   8  14
ATOM     13  O   UNL     1     -34.767  20.841   2.609  0.00  0.00    -0.286 OA
ATOM     14  C   UNL     1     -34.793  20.690   1.381  0.00  0.00    +0.198 C 
BRANCH  14  16
ATOM     15 CL   UNL     1     -33.029  18.171   1.495  0.00  0.00    -0.082 Cl
ATOM     16  C   UNL     1     -33.491  20.725   0.653  0.00  0.00    +0.050 C 
ATOM     17  C   UNL     1     -32.650  19.634   0.659  0.00  0.00    +0.061 C 
ATOM     18  C   UNL     1     -33.184  21.891  -0.017  0.00  0.00    +0.004 C 
ATOM     19  C   UNL     1     -31.445  19.710  -0.038  0.00  0.00    +0.011 C 
ATOM     20  C   UNL     1     -31.977  21.967  -0.713  0.00  0.00    +0.000 C 
ATOM     21  C   UNL     1     -31.107  20.877  -0.724  0.00  0.00    +0.001 C 
ENDBRANCH  14  16
ENDBRANCH   8  14
ENDBRANCH   1   7
BRANCH   5  24
ATOM     22  O   UNL     1     -35.604  26.549  -0.943  0.00  0.00    -0.257 OA
ATOM     23  N   UNL     1     -33.862  26.298   0.572  0.00  0.00    -0.264 N 
ATOM     24  C   UNL     1     -35.102  25.910   0.000  0.00  0.00    +0.325 C 
ATOM     25  C   UNL     1     -33.458  27.699   0.580  0.00  0.00    +0.116 C 
ATOM     26  C   UNL     1     -32.922  25.370   1.199  0.00  0.00    +0.116 C 
ENDBRANCH   5  24
BRANCH   4  27
ATOM     27  C   UNL     1     -37.532  22.931   2.996  0.00  0.00    +0.168 C 
BRANCH  27  29
ATOM     28  O   UNL     1     -36.475  24.468   5.207  0.00  0.00    -0.277 OA
ATOM     29  N   UNL     1     -36.582  22.491   3.993  0.00  0.00    -0.299 N 
ATOM     30  C   UNL     1     -36.130  23.303   5.022  0.00  0.00    +0.201 C 
ATOM     31  H   UNL     1     -36.239  21.570   3.938  0.00  0.00    +0.150 HD
BRANCH  30  32
ATOM     32  C   UNL     1     -35.117  22.593   5.898  0.00  0.00    +0.001 C 
BRANCH  32  33
ATOM     33  N   UNL     1     -35.251  21.157   5.698  0.00  0.00    +0.386 N 
ATOM     34  H   UNL     1     -34.385  20.693   5.976  0.00  0.00    -0.089 HD
ATOM     35  H   UNL     1     -35.438  20.967   4.714  0.00  0.00    -0.089 HD
ATOM     36  H   UNL     1     -36.022  20.806   6.265  0.00  0.00    -0.089 HD
ENDBRANCH  32  33
ENDBRANCH  30  32
ENDBRANCH  27  29
ENDBRANCH   4  27
TORSDOF 8
ENDMDL
MODEL 3
REMARK VINA RESULT:      -6.5      2.730      6.076
REMARK  Name = 5069
REMARK  8 active torsions:
REMARK  status: ('A' for Active; 'I' for Inactive)
REMARK    1  A    between atoms: N_1  and  C_7
REMARK    2  A    between atoms: C_4  and  C_27
REMARK    3  A    between atoms: C_5  and  C_24
REMARK    4  A    between atoms: C_8  and  C_14
REMARK    5  A    between atoms: C_14  and  C_16
REMARK    6  A    between atoms: C_27  and  N_29
REMARK    7  A    between atoms: C_30  and  C_32
REMARK    8  A    between atoms: C_32  and  N_33
REMARK                            x       y       z     vdW  Elec       q    Type
REMARK                         _______ _______ _______ _____ _____    ______ ____
ROOT
ATOM      1  N   UNL     1     -36.366  21.761   1.828  0.00  0.00    -0.155 N 
ATOM      2  N   UNL     1     -37.440  21.782   1.023  0.00  0.00    -0.102 NA
ATOM      3  N   UNL     1     -37.862  22.819   3.018  0.00  0.00    -0.331 NA
ATOM      4  C   UNL     1     -36.640  22.376   2.994  0.00  0.00    +0.215 C 
ATOM      5  C   UNL     1     -38.317  22.433   1.789  0.00  0.00    +0.159 C 
ENDROOT
BRANCH   1   7
ATOM      6 CL   UNL     1     -31.343  19.153   0.173  0.00  0.00    -0.082 Cl
ATOM      7  C   UNL     1     -35.177  21.161   1.424  0.00  0.00    +0.080 C 
ATOM      8  C   UNL     1     -34.337  21.786   0.509  0.00  0.00    +0.055 C 
ATOM      9  C   UNL     1     -34.841  19.919   1.956  0.00  0.00    +0.018 C 
ATOM     10  C   UNL     1     -33.149  21.165   0.120  0.00  0.00    +0.016 C 
ATOM     11  C   UNL     1     -33.654  19.298   1.569  0.00  0.00    +0.013 C 
ATOM     12  C   UNL     1     -32.808  19.921   0.650  0.00  0.00    +0.058 C 
BRANCH   8  14
ATOM     13  O   UNL     1     -35.337  23.159  -1.099  0.00  0.00    -0.286 OA
ATOM     14  C   UNL     1     -34.658  23.088  -0.067  0.00  0.00    +0.198 C 
BRANCH  14  16
ATOM     15 CL   UNL     1     -31.784  24.000  -0.680  0.00  0.00    -0.082 Cl
ATOM     16  C   UNL     1     -34.194  24.367   0.545  0.00  0.00    +0.050 C 
ATOM     17  C   UNL     1     -32.921  24.838   0.314  0.00  0.00    +0.061 C 
ATOM     18  C   UNL     1     -35.099  25.040   1.340  0.00  0.00    +0.004 C 
ATOM     19  C   UNL     1     -32.531  26.039   0.905  0.00  0.00    +0.011 C 
ATOM     20  C   UNL     1     -34.708  26.242   1.932  0.00  0.00    +0.000 C 
ATOM     21  C   UNL     1     -33.424  26.742   1.715  0.00  0.00    +0.001 C 
ENDBRANCH  14  16
ENDBRANCH   8  14
ENDBRANCH   1   7
BRANCH   5  24
ATOM     22  O   UNL     1     -40.500  21.797   1.305  0.00  0.00    -0.257 OA
ATOM     23  N   UNL     1     -39.969  24.027   0.934  0.00  0.00    -0.264 N 
ATOM     24  C   UNL     1     -39.648  22.705   1.340  0.00  0.00    +0.325 C 
ATOM     25  C   UNL     1     -41.325  24.539   1.087  0.00  0.00    +0.116 C 
ATOM     26  C   UNL     1     -39.002  24.967   0.367  0.00  0.00    +0.116 C 
ENDBRANCH   5  24
BRANCH   4  27
ATOM     27  C   UNL     1     -35.635  22.511   4.098  0.00  0.00    +0.168 C 
BRANCH  27  29
ATOM     28  O   UNL     1     -33.712  24.563   4.776  0.00  0.00    -0.277 OA
ATOM     29  N   UNL     1     -35.880  23.734   4.828  0.00  0.00    -0.299 N 
ATOM     30  C   UNL     1     -34.891  24.664   5.108  0.00  0.00    +0.201 C 
ATOM     31  H   UNL     1     -36.796  23.915   5.144  0.00  0.00    +0.150 HD
BRANCH  30  32
ATOM     32  C   UNL     1     -35.424  25.831   5.915  0.00  0.00    +0.001 C 
BRANCH  32  33
ATOM     33  N   UNL     1     -36.443  26.514   5.130  0.00  0.00    +0.386 N 
ATOM     34  H   UNL     1     -36.290  26.326   4.138  0.00  0.00    -0.089 HD
ATOM     35  H   UNL     1     -36.385  27.518   5.298  0.00  0.00    -0.089 HD
ATOM     36  H   UNL     1     -37.365  26.175   5.402  0.00  0.00    -0.089 HD
ENDBRANCH  32  33
ENDBRANCH  30  32
ENDBRANCH  27  29
ENDBRANCH   4  27
TORSDOF 8
ENDMDL
MODEL 4
REMARK VINA RESULT:      -6.5      2.843      5.059
REMARK  Name = 5069
REMARK  8 active torsions:
REMARK  status: ('A' for Active; 'I' for Inactive)
REMARK    1  A    between atoms: N_1  and  C_7
REMARK    2  A    between atoms: C_4  and  C_27
REMARK    3  A    between atoms: C_5  and  C_24
REMARK    4  A    between atoms: C_8  and  C_14
REMARK    5  A    between atoms: C_14  and  C_16
REMARK    6  A    between atoms: C_27  and  N_29
REMARK    7  A    between atoms: C_30  and  C_32
REMARK    8  A    between atoms: C_32  and  N_33
REMARK                            x       y       z     vdW  Elec       q    Type
REMARK                         _______ _______ _______ _____ _____    ______ ____
ROOT
ATOM      1  N   UNL     1     -36.884  25.734   2.739  0.00  0.00    -0.155 N 
ATOM      2  N   UNL     1     -36.112  26.642   2.123  0.00  0.00    -0.102 NA
ATOM      3  N   UNL     1     -38.330  26.979   1.674  0.00  0.00    -0.331 NA
ATOM      4  C   UNL     1     -38.183  25.954   2.459  0.00  0.00    +0.215 C 
ATOM      5  C   UNL     1     -37.034  27.371   1.492  0.00  0.00    +0.159 C 
ENDROOT
BRANCH   1   7
ATOM      6 CL   UNL     1     -34.545  21.569   6.196  0.00  0.00    -0.082 Cl
ATOM      7  C   UNL     1     -36.328  24.740   3.538  0.00  0.00    +0.080 C 
ATOM      8  C   UNL     1     -35.762  23.602   2.972  0.00  0.00    +0.055 C 
ATOM      9  C   UNL     1     -36.346  24.905   4.921  0.00  0.00    +0.018 C 
ATOM     10  C   UNL     1     -35.209  22.619   3.795  0.00  0.00    +0.016 C 
ATOM     11  C   UNL     1     -35.794  23.923   5.743  0.00  0.00    +0.013 C 
ATOM     12  C   UNL     1     -35.226  22.780   5.180  0.00  0.00    +0.058 C 
BRANCH   8  14
ATOM     13  O   UNL     1     -36.779  23.307   0.887  0.00  0.00    -0.286 OA
ATOM     14  C   UNL     1     -35.724  23.398   1.528  0.00  0.00    +0.198 C 
BRANCH  14  16
ATOM     15 CL   UNL     1     -34.764  20.582   0.744  0.00  0.00    -0.082 Cl
ATOM     16  C   UNL     1     -34.444  23.291   0.771  0.00  0.00    +0.050 C 
ATOM     17  C   UNL     1     -33.953  22.063   0.386  0.00  0.00    +0.061 C 
ATOM     18  C   UNL     1     -33.791  24.472   0.482  0.00  0.00    +0.004 C 
ATOM     19  C   UNL     1     -32.754  22.011  -0.323  0.00  0.00    +0.011 C 
ATOM     20  C   UNL     1     -32.591  24.420  -0.227  0.00  0.00    +0.000 C 
ATOM     21  C   UNL     1     -32.071  23.189  -0.629  0.00  0.00    +0.001 C 
ENDBRANCH  14  16
ENDBRANCH   8  14
ENDBRANCH   1   7
BRANCH   5  24
ATOM     22  O   UNL     1     -36.923  29.653   1.060  0.00  0.00    -0.257 OA
ATOM     23  N   UNL     1     -36.036  28.251  -0.565  0.00  0.00    -0.264 N 
ATOM     24  C   UNL     1     -36.675  28.493   0.679  0.00  0.00    +0.325 C 
ATOM     25  C   UNL     1     -35.102  29.223  -1.119  0.00  0.00    +0.116 C 
ATOM     26  C   UNL     1     -36.233  27.042  -1.365  0.00  0.00    +0.116 C 
ENDBRANCH   5  24
BRANCH   4  27
ATOM     27  C   UNL     1     -39.288  25.100   3.004  0.00  0.00    +0.168 C 
BRANCH  27  29
ATOM     28  O   UNL     1     -41.186  23.752   1.286  0.00  0.00    -0.277 OA
ATOM     29  N   UNL     1     -39.181  23.765   2.459  0.00  0.00    -0.299 N 
ATOM     30  C   UNL     1     -40.147  23.199   1.640  0.00  0.00    +0.201 C 
ATOM     31  H   UNL     1     -38.384  23.231   2.681  0.00  0.00    +0.150 HD
BRANCH  30  32
ATOM     32  C   UNL     1     -39.790  21.781   1.243  0.00  0.00    +0.001 C 
BRANCH  32  33
ATOM     33  N   UNL     1     -38.805  21.266   2.184  0.00  0.00    +0.386 N 
ATOM     34  H   UNL     1     -38.887  20.250   2.239  0.00  0.00    -0.089 HD
ATOM     35  H   UNL     1     -38.971  21.671   3.105  0.00  0.00    -0.089 HD
ATOM     36  H   UNL     1     -37.869  21.514   1.865  0.00  0.00    -0.089 HD
ENDBRANCH  32  33
ENDBRANCH  30  32
ENDBRANCH  27  29
ENDBRANCH   4  27
TORSDOF 8
ENDMDL
MODEL 5
REMARK VINA RESULT:      -6.4      3.027      6.026
REMARK  Name = 5069
REMARK  8 active torsions:
REMARK  status: ('A' for Active; 'I' for Inactive)
REMARK    1  A    between atoms: N_1  and  C_7
REMARK    2  A    between atoms: C_4  and  C_27
REMARK    3  A    between atoms: C_5  and  C_24
REMARK    4  A    between atoms: C_8  and  C_14
REMARK    5  A    between atoms: C_14  and  C_16
REMARK    6  A    between atoms: C_27  and  N_29
REMARK    7  A    between atoms: C_30  and  C_32
REMARK    8  A    between atoms: C_32  and  N_33
REMARK                            x       y       z     vdW  Elec       q    Type
REMARK                         _______ _______ _______ _____ _____    ______ ____
ROOT
ATOM      1  N   UNL     1     -37.260  24.218   1.537  0.00  0.00    -0.155 N 
ATOM      2  N   UNL     1     -38.349  24.032   0.775  0.00  0.00    -0.102 NA
ATOM      3  N   UNL     1     -38.906  24.692   2.894  0.00  0.00    -0.331 NA
ATOM      4  C   UNL     1     -37.614  24.604   2.778  0.00  0.00    +0.215 C 
ATOM      5  C   UNL     1     -39.318  24.332   1.642  0.00  0.00    +0.159 C 
ENDROOT
BRANCH   1   7
ATOM      6 CL   UNL     1     -31.840  23.436  -0.651  0.00  0.00    -0.082 Cl
ATOM      7  C   UNL     1     -35.981  24.013   1.026  0.00  0.00    +0.080 C 
ATOM      8  C   UNL     1     -35.382  22.759   1.083  0.00  0.00    +0.055 C 
ATOM      9  C   UNL     1     -35.310  25.091   0.455  0.00  0.00    +0.018 C 
ATOM     10  C   UNL     1     -34.099  22.579   0.564  0.00  0.00    +0.016 C 
ATOM     11  C   UNL     1     -34.028  24.912  -0.065  0.00  0.00    +0.013 C 
ATOM     12  C   UNL     1     -33.422  23.656  -0.010  0.00  0.00    +0.058 C 
BRANCH   8  14
ATOM     13  O   UNL     1     -36.154  21.511   2.904  0.00  0.00    -0.286 OA
ATOM     14  C   UNL     1     -36.058  21.609   1.674  0.00  0.00    +0.198 C 
BRANCH  14  16
ATOM     15 CL   UNL     1     -34.327  19.120   1.143  0.00  0.00    -0.082 Cl
ATOM     16  C   UNL     1     -36.650  20.520   0.844  0.00  0.00    +0.050 C 
ATOM     17  C   UNL     1     -35.935  19.377   0.566  0.00  0.00    +0.061 C 
ATOM     18  C   UNL     1     -37.935  20.720   0.381  0.00  0.00    +0.004 C 
ATOM     19  C   UNL     1     -36.531  18.384  -0.210  0.00  0.00    +0.011 C 
ATOM     20  C   UNL     1     -38.530  19.727  -0.397  0.00  0.00    +0.000 C 
ATOM     21  C   UNL     1     -37.828  18.558  -0.693  0.00  0.00    +0.001 C 
ENDBRANCH  14  16
ENDBRANCH   8  14
ENDBRANCH   1   7
BRANCH   5  24
ATOM     22  O   UNL     1     -41.239  23.186   1.009  0.00  0.00    -0.257 OA
ATOM     23  N   UNL     1     -41.431  25.492   1.209  0.00  0.00    -0.264 N 
ATOM     24  C   UNL     1     -40.699  24.277   1.271  0.00  0.00    +0.325 C 
ATOM     25  C   UNL     1     -42.863  25.507   1.482  0.00  0.00    +0.116 C 
ATOM     26  C   UNL     1     -40.837  26.791   0.898  0.00  0.00    +0.116 C 
ENDBRANCH   5  24
BRANCH   4  27
ATOM     27  C   UNL     1     -36.614  24.887   3.857  0.00  0.00    +0.168 C 
BRANCH  27  29
ATOM     28  O   UNL     1     -34.430  24.200   5.627  0.00  0.00    -0.277 OA
ATOM     29  N   UNL     1     -36.535  23.755   4.753  0.00  0.00    -0.299 N 
ATOM     30  C   UNL     1     -35.442  23.504   5.568  0.00  0.00    +0.201 C 
ATOM     31  H   UNL     1     -37.295  23.129   4.784  0.00  0.00    +0.150 HD
BRANCH  30  32
ATOM     32  C   UNL     1     -35.618  22.233   6.375  0.00  0.00    +0.001 C 
BRANCH  32  33
ATOM     33  N   UNL     1     -35.116  21.112   5.594  0.00  0.00    +0.386 N 
ATOM     34  H   UNL     1     -35.893  20.661   5.109  0.00  0.00    -0.089 HD
ATOM     35  H   UNL     1     -34.667  20.439   6.215  0.00  0.00    -0.089 HD
ATOM     36  H   UNL     1     -34.439  21.449   4.910  0.00  0.00    -0.089 HD
ENDBRANCH  32  33
ENDBRANCH  30  32
ENDBRANCH  27  29
ENDBRANCH   4  27
TORSDOF 8
ENDMDL
MODEL 6
REMARK VINA RESULT:      -6.4      1.538      2.067
REMARK  Name = 5069
REMARK  8 active torsions:
REMARK  status: ('A' for Active; 'I' for Inactive)
REMARK    1  A    between atoms: N_1  and  C_7
REMARK    2  A    between atoms: C_4  and  C_27
REMARK    3  A    between atoms: C_5  and  C_24
REMARK    4  A    between atoms: C_8  and  C_14
REMARK    5  A    between atoms: C_14  and  C_16
REMARK    6  A    between atoms: C_27  and  N_29
REMARK    7  A    between atoms: C_30  and  C_32
REMARK    8  A    between atoms: C_32  and  N_33
REMARK                            x       y       z     vdW  Elec       q    Type
REMARK                         _______ _______ _______ _____ _____    ______ ____
ROOT
ATOM      1  N   UNL     1     -33.877  25.919   2.580  0.00  0.00    -0.155 N 
ATOM      2  N   UNL     1     -33.049  25.915   3.636  0.00  0.00    -0.102 NA
ATOM      3  N   UNL     1     -34.533  27.654   3.735  0.00  0.00    -0.331 NA
ATOM      4  C   UNL     1     -34.739  26.951   2.662  0.00  0.00    +0.215 C 
ATOM      5  C   UNL     1     -33.487  26.984   4.304  0.00  0.00    +0.159 C 
ENDROOT
BRANCH   1   7
ATOM      6 CL   UNL     1     -33.401  21.847  -1.659  0.00  0.00    -0.082 Cl
ATOM      7  C   UNL     1     -33.781  24.948   1.588  0.00  0.00    +0.080 C 
ATOM      8  C   UNL     1     -34.679  23.887   1.537  0.00  0.00    +0.055 C 
ATOM      9  C   UNL     1     -32.765  25.057   0.642  0.00  0.00    +0.018 C 
ATOM     10  C   UNL     1     -34.563  22.926   0.532  0.00  0.00    +0.016 C 
ATOM     11  C   UNL     1     -32.648  24.098  -0.363  0.00  0.00    +0.013 C 
ATOM     12  C   UNL     1     -33.547  23.031  -0.418  0.00  0.00    +0.058 C 
BRANCH   8  14
ATOM     13  O   UNL     1     -36.899  24.128   2.235  0.00  0.00    -0.286 OA
ATOM     14  C   UNL     1     -35.755  23.743   2.512  0.00  0.00    +0.198 C 
BRANCH  14  16
ATOM     15 CL   UNL     1     -35.470  20.683   2.671  0.00  0.00    -0.082 Cl
ATOM     16  C   UNL     1     -35.536  23.139   3.858  0.00  0.00    +0.050 C 
ATOM     17  C   UNL     1     -35.399  21.776   4.006  0.00  0.00    +0.061 C 
ATOM     18  C   UNL     1     -35.478  24.008   4.928  0.00  0.00    +0.004 C 
ATOM     19  C   UNL     1     -35.192  21.256   5.283  0.00  0.00    +0.011 C 
ATOM     20  C   UNL     1     -35.273  23.487   6.206  0.00  0.00    +0.000 C 
ATOM     21  C   UNL     1     -35.130  22.111   6.384  0.00  0.00    +0.001 C 
ENDBRANCH  14  16
ENDBRANCH   8  14
ENDBRANCH   1   7
BRANCH   5  24
ATOM     22  O   UNL     1     -33.281  26.907   6.618  0.00  0.00    -0.257 OA
ATOM     23  N   UNL     1     -31.855  28.361   5.503  0.00  0.00    -0.264 N 
ATOM     24  C   UNL     1     -32.892  27.392   5.540  0.00  0.00    +0.325 C 
ATOM     25  C   UNL     1     -30.806  28.361   6.516  0.00  0.00    +0.116 C 
ATOM     26  C   UNL     1     -31.735  29.395   4.475  0.00  0.00    +0.116 C 
ENDBRANCH   5  24
BRANCH   4  27
ATOM     27  C   UNL     1     -35.787  27.218   1.624  0.00  0.00    +0.168 C 
BRANCH  27  29
ATOM     28  O   UNL     1     -35.403  29.382  -0.257  0.00  0.00    -0.277 OA
ATOM     29  N   UNL     1     -36.255  28.580   1.749  0.00  0.00    -0.299 N 
ATOM     30  C   UNL     1     -36.022  29.555   0.791  0.00  0.00    +0.201 C 
ATOM     31  H   UNL     1     -36.764  28.828   2.555  0.00  0.00    +0.150 HD
BRANCH  30  32
ATOM     32  C   UNL     1     -36.598  30.896   1.198  0.00  0.00    +0.001 C 
BRANCH  32  33
ATOM     33  N   UNL     1     -36.255  31.148   2.590  0.00  0.00    +0.386 N 
ATOM     34  H   UNL     1     -36.950  30.709   3.196  0.00  0.00    -0.089 HD
ATOM     35  H   UNL     1     -36.242  32.154   2.761  0.00  0.00    -0.089 HD
ATOM     36  H   UNL     1     -35.335  30.757   2.790  0.00  0.00    -0.089 HD
ENDBRANCH  32  33
ENDBRANCH  30  32
ENDBRANCH  27  29
ENDBRANCH   4  27
TORSDOF 8
ENDMDL
MODEL 7
REMARK VINA RESULT:      -6.4      3.651      6.654
REMARK  Name = 5069
REMARK  8 active torsions:
REMARK  status: ('A' for Active; 'I' for Inactive)
REMARK    1  A    between atoms: N_1  and  C_7
REMARK    2  A    between atoms: C_4  and  C_27
REMARK    3  A    between atoms: C_5  and  C_24
REMARK    4  A    between atoms: C_8  and  C_14
REMARK    5  A    between atoms: C_14  and  C_16
REMARK    6  A    between atoms: C_27  and  N_29
REMARK    7  A    between atoms: C_30  and  C_32
REMARK    8  A    between atoms: C_32  and  N_33
REMARK                            x       y       z     vdW  Elec       q    Type
REMARK                         _______ _______ _______ _____ _____    ______ ____
ROOT
ATOM      1  N   UNL     1     -37.640  22.421   0.761  0.00  0.00    -0.155 N 
ATOM      2  N   UNL     1     -37.503  21.162   1.205  0.00  0.00    -0.102 NA
ATOM      3  N   UNL     1     -36.300  21.516  -0.708  0.00  0.00    -0.331 NA
ATOM      4  C   UNL     1     -36.923  22.603  -0.365  0.00  0.00    +0.215 C 
ATOM      5  C   UNL     1     -36.683  20.656   0.282  0.00  0.00    +0.159 C 
ENDROOT
BRANCH   1   7
ATOM      6 CL   UNL     1     -41.078  26.290   3.585  0.00  0.00    -0.082 Cl
ATOM      7  C   UNL     1     -38.435  23.340   1.439  0.00  0.00    +0.080 C 
ATOM      8  C   UNL     1     -37.890  24.181   2.404  0.00  0.00    +0.055 C 
ATOM      9  C   UNL     1     -39.791  23.405   1.131  0.00  0.00    +0.018 C 
ATOM     10  C   UNL     1     -38.708  25.095   3.069  0.00  0.00    +0.016 C 
ATOM     11  C   UNL     1     -40.609  24.319   1.796  0.00  0.00    +0.013 C 
ATOM     12  C   UNL     1     -40.068  25.163   2.766  0.00  0.00    +0.058 C 
BRANCH   8  14
ATOM     13  O   UNL     1     -35.647  24.738   2.048  0.00  0.00    -0.286 OA
ATOM     14  C   UNL     1     -36.473  24.140   2.749  0.00  0.00    +0.198 C 
BRANCH  14  16
ATOM     15 CL   UNL     1     -36.127  25.703   5.377  0.00  0.00    -0.082 Cl
ATOM     16  C   UNL     1     -35.962  23.393   3.935  0.00  0.00    +0.050 C 
ATOM     17  C   UNL     1     -35.783  24.027   5.144  0.00  0.00    +0.061 C 
ATOM     18  C   UNL     1     -35.687  22.053   3.754  0.00  0.00    +0.004 C 
ATOM     19  C   UNL     1     -35.306  23.288   6.226  0.00  0.00    +0.011 C 
ATOM     20  C   UNL     1     -35.208  21.314   4.836  0.00  0.00    +0.000 C 
ATOM     21  C   UNL     1     -35.018  21.931   6.073  0.00  0.00    +0.001 C 
ENDBRANCH  14  16
ENDBRANCH   8  14
ENDBRANCH   1   7
BRANCH   5  24
ATOM     22  O   UNL     1     -37.049  18.362   0.194  0.00  0.00    -0.257 OA
ATOM     23  N   UNL     1     -34.860  19.044   0.562  0.00  0.00    -0.264 N 
ATOM     24  C   UNL     1     -36.239  19.297   0.338  0.00  0.00    +0.325 C 
ATOM     25  C   UNL     1     -34.229  17.848   0.017  0.00  0.00    +0.116 C 
ATOM     26  C   UNL     1     -33.975  19.935   1.312  0.00  0.00    +0.116 C 
ENDBRANCH   5  24
BRANCH   4  27
ATOM     27  C   UNL     1     -36.879  23.910  -1.098  0.00  0.00    +0.168 C 
BRANCH  27  29
ATOM     28  O   UNL     1     -34.401  23.937  -2.592  0.00  0.00    -0.277 OA
ATOM     29  N   UNL     1     -35.661  24.612  -0.761  0.00  0.00    -0.299 N 
ATOM     30  C   UNL     1     -34.516  24.566  -1.542  0.00  0.00    +0.201 C 
ATOM     31  H   UNL     1     -35.643  25.148   0.065  0.00  0.00    +0.150 HD
BRANCH  30  32
ATOM     32  C   UNL     1     -33.383  25.367  -0.932  0.00  0.00    +0.001 C 
BRANCH  32  33
ATOM     33  N   UNL     1     -33.942  26.313   0.024  0.00  0.00    +0.386 N 
ATOM     34  H   UNL     1     -33.210  26.621   0.665  0.00  0.00    -0.089 HD
ATOM     35  H   UNL     1     -34.689  25.862   0.552  0.00  0.00    -0.089 HD
ATOM     36  H   UNL     1     -34.317  27.119  -0.475  0.00  0.00    -0.089 HD
ENDBRANCH  32  33
ENDBRANCH  30  32
ENDBRANCH  27  29
ENDBRANCH   4  27
TORSDOF 8
ENDMDL
MODEL 8
REMARK VINA RESULT:      -6.3      2.773      6.304
REMARK  Name = 5069
REMARK  8 active torsions:
REMARK  status: ('A' for Active; 'I' for Inactive)
REMARK    1  A    between atoms: N_1  and  C_7
REMARK    2  A    between atoms: C_4  and  C_27
REMARK    3  A    between atoms: C_5  and  C_24
REMARK    4  A    between atoms: C_8  and  C_14
REMARK    5  A    between atoms: C_14  and  C_16
REMARK    6  A    between atoms: C_27  and  N_29
REMARK    7  A    between atoms: C_30  and  C_32
REMARK    8  A    between atoms: C_32  and  N_33
REMARK                            x       y       z     vdW  Elec       q    Type
REMARK                         _______ _______ _______ _____ _____    ______ ____
ROOT
ATOM      1  N   UNL     1     -38.019  25.287   2.963  0.00  0.00    -0.155 N 
ATOM      2  N   UNL     1     -39.348  25.258   3.143  0.00  0.00    -0.102 NA
ATOM      3  N   UNL     1     -38.746  26.813   1.578  0.00  0.00    -0.331 NA
ATOM      4  C   UNL     1     -37.691  26.210   2.038  0.00  0.00    +0.215 C 
ATOM      5  C   UNL     1     -39.741  26.198   2.283  0.00  0.00    +0.159 C 
ENDROOT
BRANCH   1   7
ATOM      6 CL   UNL     1     -34.428  21.774   6.050  0.00  0.00    -0.082 Cl
ATOM      7  C   UNL     1     -37.176  24.443   3.679  0.00  0.00    +0.080 C 
ATOM      8  C   UNL     1     -37.010  23.113   3.303  0.00  0.00    +0.055 C 
ATOM      9  C   UNL     1     -36.498  24.953   4.782  0.00  0.00    +0.018 C 
ATOM     10  C   UNL     1     -36.159  22.286   4.037  0.00  0.00    +0.016 C 
ATOM     11  C   UNL     1     -35.647  24.127   5.516  0.00  0.00    +0.013 C 
ATOM     12  C   UNL     1     -35.478  22.793   5.143  0.00  0.00    +0.058 C 
BRANCH   8  14
ATOM     13  O   UNL     1     -38.886  22.192   2.252  0.00  0.00    -0.286 OA
ATOM     14  C   UNL     1     -37.704  22.547   2.151  0.00  0.00    +0.198 C 
BRANCH  14  16
ATOM     15 CL   UNL     1     -36.370  19.833   1.579  0.00  0.00    -0.082 Cl
ATOM     16  C   UNL     1     -37.040  22.370   0.828  0.00  0.00    +0.050 C 
ATOM     17  C   UNL     1     -36.423  21.182   0.501  0.00  0.00    +0.061 C 
ATOM     18  C   UNL     1     -37.079  23.444  -0.037  0.00  0.00    +0.004 C 
ATOM     19  C   UNL     1     -35.817  21.061  -0.748  0.00  0.00    +0.011 C 
ATOM     20  C   UNL     1     -36.472  23.323  -1.287  0.00  0.00    +0.000 C 
ATOM     21  C   UNL     1     -35.840  22.131  -1.643  0.00  0.00    +0.001 C 
ENDBRANCH  14  16
ENDBRANCH   8  14
ENDBRANCH   1   7
BRANCH   5  24
ATOM     22  O   UNL     1     -41.656  27.390   2.847  0.00  0.00    -0.257 OA
ATOM     23  N   UNL     1     -41.865  25.864   1.109  0.00  0.00    -0.264 N 
ATOM     24  C   UNL     1     -41.123  26.533   2.117  0.00  0.00    +0.325 C 
ATOM     25  C   UNL     1     -42.983  26.528   0.450  0.00  0.00    +0.116 C 
ATOM     26  C   UNL     1     -41.575  24.509   0.641  0.00  0.00    +0.116 C 
ENDBRANCH   5  24
BRANCH   4  27
ATOM     27  C   UNL     1     -36.275  26.476   1.622  0.00  0.00    +0.168 C 
BRANCH  27  29
ATOM     28  O   UNL     1     -34.792  27.970   3.607  0.00  0.00    -0.277 OA
ATOM     29  N   UNL     1     -36.025  27.900   1.640  0.00  0.00    -0.299 N 
ATOM     30  C   UNL     1     -35.300  28.532   2.639  0.00  0.00    +0.201 C 
ATOM     31  H   UNL     1     -36.390  28.449   0.908  0.00  0.00    +0.150 HD
BRANCH  30  32
ATOM     32  C   UNL     1     -35.224  30.030   2.421  0.00  0.00    +0.001 C 
BRANCH  32  33
ATOM     33  N   UNL     1     -35.351  30.696   3.709  0.00  0.00    +0.386 N 
ATOM     34  H   UNL     1     -35.980  30.160   4.308  0.00  0.00    -0.089 HD
ATOM     35  H   UNL     1     -35.730  31.633   3.572  0.00  0.00    -0.089 HD
ATOM     36  H   UNL     1     -34.435  30.760   4.150  0.00  0.00    -0.089 HD
ENDBRANCH  32  33
ENDBRANCH  30  32
ENDBRANCH  27  29
ENDBRANCH   4  27
TORSDOF 8
ENDMDL
MODEL 9
REMARK VINA RESULT:      -6.3      2.730      4.844
REMARK  Name = 5069
REMARK  8 active torsions:
REMARK  status: ('A' for Active; 'I' for Inactive)
REMARK    1  A    between atoms: N_1  and  C_7
REMARK    2  A    between atoms: C_4  and  C_27
REMARK    3  A    between atoms: C_5  and  C_24
REMARK    4  A    between atoms: C_8  and  C_14
REMARK    5  A    between atoms: C_14  and  C_16
REMARK    6  A    between atoms: C_27  and  N_29
REMARK    7  A    between atoms: C_30  and  C_32
REMARK    8  A    between atoms: C_32  and  N_33
REMARK                            x       y       z     vdW  Elec       q    Type
REMARK                         _______ _______ _______ _____ _____    ______ ____
ROOT
ATOM      1  N   UNL     1     -35.661  25.809   2.161  0.00  0.00    -0.155 N 
ATOM      2  N   UNL     1     -34.575  26.180   1.466  0.00  0.00    -0.102 NA
ATOM      3  N   UNL     1     -36.450  27.276   0.747  0.00  0.00    -0.331 NA
ATOM      4  C   UNL     1     -36.750  26.467   1.719  0.00  0.00    +0.215 C 
ATOM      5  C   UNL     1     -35.106  27.069   0.624  0.00  0.00    +0.159 C 
ENDROOT
BRANCH   1   7
ATOM      6 CL   UNL     1     -35.293  21.878   6.540  0.00  0.00    -0.082 Cl
ATOM      7  C   UNL     1     -35.574  24.866   3.181  0.00  0.00    +0.080 C 
ATOM      8  C   UNL     1     -35.538  23.505   2.893  0.00  0.00    +0.055 C 
ATOM      9  C   UNL     1     -35.525  25.310   4.499  0.00  0.00    +0.018 C 
ATOM     10  C   UNL     1     -35.450  22.579   3.933  0.00  0.00    +0.016 C 
ATOM     11  C   UNL     1     -35.437  24.385   5.539  0.00  0.00    +0.013 C 
ATOM     12  C   UNL     1     -35.401  23.018   5.256  0.00  0.00    +0.058 C 
BRANCH   8  14
ATOM     13  O   UNL     1     -36.647  23.047   0.886  0.00  0.00    -0.286 OA
ATOM     14  C   UNL     1     -35.587  23.006   1.523  0.00  0.00    +0.198 C 
BRANCH  14  16
ATOM     15 CL   UNL     1     -35.174  19.961   1.684  0.00  0.00    -0.082 Cl
ATOM     16  C   UNL     1     -34.390  22.434   0.840  0.00  0.00    +0.050 C 
ATOM     17  C   UNL     1     -34.142  21.080   0.868  0.00  0.00    +0.061 C 
ATOM     18  C   UNL     1     -33.563  23.324   0.187  0.00  0.00    +0.004 C 
ATOM     19  C   UNL     1     -33.013  20.590   0.213  0.00  0.00    +0.011 C 
ATOM     20  C   UNL     1     -32.433  22.834  -0.468  0.00  0.00    +0.000 C 
ATOM     21  C   UNL     1     -32.157  21.466  -0.455  0.00  0.00    +0.001 C 
ENDBRANCH  14  16
ENDBRANCH   8  14
ENDBRANCH   1   7
BRANCH   5  24
ATOM     22  O   UNL     1     -33.950  28.933  -0.147  0.00  0.00    -0.257 OA
ATOM     23  N   UNL     1     -33.932  27.066  -1.527  0.00  0.00    -0.264 N 
ATOM     24  C   UNL     1     -34.305  27.756  -0.344  0.00  0.00    +0.325 C 
ATOM     25  C   UNL     1     -32.682  27.384  -2.206  0.00  0.00    +0.116 C 
ATOM     26  C   UNL     1     -34.725  26.000  -2.138  0.00  0.00    +0.116 C 
ENDBRANCH   5  24
BRANCH   4  27
ATOM     27  C   UNL     1     -38.116  26.262   2.302  0.00  0.00    +0.168 C 
BRANCH  27  29
ATOM     28  O   UNL     1     -39.819  24.437   3.764  0.00  0.00    -0.277 OA
ATOM     29  N   UNL     1     -38.656  25.005   1.836  0.00  0.00    -0.299 N 
ATOM     30  C   UNL     1     -39.469  24.192   2.612  0.00  0.00    +0.201 C 
ATOM     31  H   UNL     1     -38.436  24.711   0.922  0.00  0.00    +0.150 HD
BRANCH  30  32
ATOM     32  C   UNL     1     -39.861  22.923   1.882  0.00  0.00    +0.001 C 
BRANCH  32  33
ATOM     33  N   UNL     1     -39.016  21.835   2.350  0.00  0.00    +0.386 N 
ATOM     34  H   UNL     1     -38.474  21.465   1.567  0.00  0.00    -0.089 HD
ATOM     35  H   UNL     1     -39.599  21.094   2.739  0.00  0.00    -0.089 HD
ATOM     36  H   UNL     1     -38.381  22.181   3.068  0.00  0.00    -0.089 HD
ENDBRANCH  32  33
ENDBRANCH  30  32
ENDBRANCH  27  29
ENDBRANCH   4  27
TORSDOF 8
ENDMDL
