MODEL 1
REMARK VINA RESULT:      -6.7      0.000      0.000
REMARK  Name = 21578704
REMARK  6 active torsions:
REMARK  status: ('A' for Active; 'I' for Inactive)
REMARK    1  A    between atoms: C_5  and  C_17
REMARK    2  A    between atoms: C_6  and  C_23
REMARK    3  A    between atoms: C_17  and  C_18
REMARK    4  A    between atoms: C_17  and  O_21
REMARK    5  A    between atoms: C_23  and  C_24
REMARK    6  A    between atoms: C_23  and  O_27
REMARK                            x       y       z     vdW  Elec       q    Type
REMARK                         _______ _______ _______ _____ _____    ______ ____
ROOT
ATOM      1  O   UNL     1     -34.812  20.060   2.923  0.00  0.00    -0.285 OA
ATOM      2  O   UNL     1     -39.113  23.185   1.592  0.00  0.00    -0.285 OA
ATOM      3  N   UNL     1     -36.839  19.263   0.896  0.00  0.00    -0.311 N 
ATOM      4  N   UNL     1     -37.085  23.983   3.616  0.00  0.00    -0.311 N 
ATOM      5  C   UNL     1     -37.940  19.292   0.080  0.00  0.00    +0.053 C 
ATOM      6  C   UNL     1     -35.983  23.954   4.432  0.00  0.00    +0.053 C 
ATOM      7  C   UNL     1     -36.787  20.412   1.644  0.00  0.00    +0.091 C 
ATOM      8  C   UNL     1     -37.139  22.833   2.870  0.00  0.00    +0.091 C 
ATOM      9  C   UNL     1     -37.886  21.188   1.291  0.00  0.00    +0.058 C 
ATOM     10  C   UNL     1     -36.039  22.056   3.223  0.00  0.00    +0.058 C 
ATOM     11  C   UNL     1     -38.610  20.475   0.303  0.00  0.00    +0.017 C 
ATOM     12  C   UNL     1     -35.315  22.770   4.210  0.00  0.00    +0.017 C 
ATOM     13  C   UNL     1     -35.775  20.755   2.623  0.00  0.00    +0.210 C 
ATOM     14  C   UNL     1     -38.151  22.489   1.892  0.00  0.00    +0.210 C 
ATOM     15  H   UNL     1     -36.185  18.529   0.939  0.00  0.00    +0.152 HD
ATOM     16  H   UNL     1     -37.739  24.718   3.573  0.00  0.00    +0.152 HD
ENDROOT
BRANCH   5  17
ATOM     17  C   UNL     1     -38.241  18.177  -0.838  0.00  0.00    +0.146 C 
BRANCH  17  18
ATOM     18  C   UNL     1     -37.820  16.764  -0.323  0.00  0.00    +0.032 C 
ATOM     19  C   UNL     1     -38.916  15.725  -0.580  0.00  0.00    +0.003 C 
ATOM     20  C   UNL     1     -36.507  16.286  -0.956  0.00  0.00    +0.003 C 
ENDBRANCH  17  18
BRANCH  17  21
ATOM     21  O   UNL     1     -39.662  18.149  -1.074  0.00  0.00    -0.379 OA
ATOM     22  H   UNL     1     -39.830  18.065  -2.026  0.00  0.00    +0.211 HD
ENDBRANCH  17  21
ENDBRANCH   5  17
BRANCH   6  23
ATOM     23  C   UNL     1     -35.680  25.071   5.347  0.00  0.00    +0.146 C 
BRANCH  23  24
ATOM     24  C   UNL     1     -34.312  25.779   5.094  0.00  0.00    +0.032 C 
ATOM     25  C   UNL     1     -34.433  26.862   4.017  0.00  0.00    +0.003 C 
ATOM     26  C   UNL     1     -33.736  26.398   6.374  0.00  0.00    +0.003 C 
ENDBRANCH  23  24
BRANCH  23  27
ATOM     27  O   UNL     1     -36.716  26.066   5.214  0.00  0.00    -0.379 OA
ATOM     28  H   UNL     1     -36.428  26.750   4.590  0.00  0.00    +0.211 HD
ENDBRANCH  23  27
ENDBRANCH   6  23
TORSDOF 6
ENDMDL
MODEL 2
REMARK VINA RESULT:      -6.6      0.084      8.247
REMARK  Name = 21578704
REMARK  6 active torsions:
REMARK  status: ('A' for Active; 'I' for Inactive)
REMARK    1  A    between atoms: C_5  and  C_17
REMARK    2  A    between atoms: C_6  and  C_23
REMARK    3  A    between atoms: C_17  and  C_18
REMARK    4  A    between atoms: C_17  and  O_21
REMARK    5  A    between atoms: C_23  and  C_24
REMARK    6  A    between atoms: C_23  and  O_27
REMARK                            x       y       z     vdW  Elec       q    Type
REMARK                         _______ _______ _______ _____ _____    ______ ____
ROOT
ATOM      1  O   UNL     1     -39.159  23.117   1.534  0.00  0.00    -0.285 OA
ATOM      2  O   UNL     1     -34.817  20.056   2.880  0.00  0.00    -0.285 OA
ATOM      3  N   UNL     1     -37.140  23.954   3.552  0.00  0.00    -0.311 N 
ATOM      4  N   UNL     1     -36.835  19.221   0.860  0.00  0.00    -0.311 N 
ATOM      5  C   UNL     1     -36.037  23.944   4.367  0.00  0.00    +0.053 C 
ATOM      6  C   UNL     1     -37.938  19.231   0.044  0.00  0.00    +0.053 C 
ATOM      7  C   UNL     1     -37.179  22.799   2.813  0.00  0.00    +0.091 C 
ATOM      8  C   UNL     1     -36.798  20.374   1.602  0.00  0.00    +0.091 C 
ATOM      9  C   UNL     1     -36.070  22.038   3.170  0.00  0.00    +0.058 C 
ATOM     10  C   UNL     1     -37.907  21.135   1.244  0.00  0.00    +0.058 C 
ATOM     11  C   UNL     1     -35.354  22.767   4.152  0.00  0.00    +0.017 C 
ATOM     12  C   UNL     1     -38.622  20.407   0.261  0.00  0.00    +0.017 C 
ATOM     13  C   UNL     1     -38.188  22.436   1.838  0.00  0.00    +0.210 C 
ATOM     14  C   UNL     1     -35.789  20.737   2.577  0.00  0.00    +0.210 C 
ATOM     15  H   UNL     1     -37.803  24.679   3.505  0.00  0.00    +0.152 HD
ATOM     16  H   UNL     1     -36.171  18.496   0.907  0.00  0.00    +0.152 HD
ENDROOT
BRANCH   5  17
ATOM     17  C   UNL     1     -35.748  25.070   5.275  0.00  0.00    +0.146 C 
BRANCH  17  18
ATOM     18  C   UNL     1     -34.390  25.797   5.014  0.00  0.00    +0.032 C 
ATOM     19  C   UNL     1     -34.549  26.931   3.996  0.00  0.00    +0.003 C 
ATOM     20  C   UNL     1     -33.777  26.356   6.305  0.00  0.00    +0.003 C 
ENDBRANCH  17  18
BRANCH  17  21
ATOM     21  O   UNL     1     -36.797  26.048   5.142  0.00  0.00    -0.379 OA
ATOM     22  H   UNL     1     -36.733  26.691   5.866  0.00  0.00    +0.211 HD
ENDBRANCH  17  21
ENDBRANCH   5  17
BRANCH   6  23
ATOM     23  C   UNL     1     -38.224  18.106  -0.866  0.00  0.00    +0.146 C 
BRANCH  23  24
ATOM     24  C   UNL     1     -37.803  16.701  -0.332  0.00  0.00    +0.032 C 
ATOM     25  C   UNL     1     -38.913  15.667  -0.543  0.00  0.00    +0.003 C 
ATOM     26  C   UNL     1     -36.509  16.198  -0.985  0.00  0.00    +0.003 C 
ENDBRANCH  23  24
BRANCH  23  27
ATOM     27  O   UNL     1     -39.644  18.069  -1.116  0.00  0.00    -0.379 OA
ATOM     28  H   UNL     1     -39.890  18.810  -1.692  0.00  0.00    +0.211 HD
ENDBRANCH  23  27
ENDBRANCH   6  23
TORSDOF 6
ENDMDL
MODEL 3
REMARK VINA RESULT:      -6.4      3.056      9.068
REMARK  Name = 21578704
REMARK  6 active torsions:
REMARK  status: ('A' for Active; 'I' for Inactive)
REMARK    1  A    between atoms: C_5  and  C_17
REMARK    2  A    between atoms: C_6  and  C_23
REMARK    3  A    between atoms: C_17  and  C_18
REMARK    4  A    between atoms: C_17  and  O_21
REMARK    5  A    between atoms: C_23  and  C_24
REMARK    6  A    between atoms: C_23  and  O_27
REMARK                            x       y       z     vdW  Elec       q    Type
REMARK                         _______ _______ _______ _____ _____    ______ ____
ROOT
ATOM      1  O   UNL     1     -35.963  27.056   2.192  0.00  0.00    -0.285 OA
ATOM      2  O   UNL     1     -35.408  23.172   6.019  0.00  0.00    -0.285 OA
ATOM      3  N   UNL     1     -33.998  27.234   4.419  0.00  0.00    -0.311 N 
ATOM      4  N   UNL     1     -37.370  22.994   3.790  0.00  0.00    -0.311 N 
ATOM      5  C   UNL     1     -33.277  26.921   5.543  0.00  0.00    +0.053 C 
ATOM      6  C   UNL     1     -38.090  23.306   2.665  0.00  0.00    +0.053 C 
ATOM      7  C   UNL     1     -34.895  26.231   4.151  0.00  0.00    +0.091 C 
ATOM      8  C   UNL     1     -36.474  23.998   4.059  0.00  0.00    +0.091 C 
ATOM      9  C   UNL     1     -34.738  25.259   5.133  0.00  0.00    +0.058 C 
ATOM     10  C   UNL     1     -36.632  24.971   3.077  0.00  0.00    +0.058 C 
ATOM     11  C   UNL     1     -33.715  25.701   6.008  0.00  0.00    +0.017 C 
ATOM     12  C   UNL     1     -37.654  24.528   2.201  0.00  0.00    +0.017 C 
ATOM     13  C   UNL     1     -35.836  26.191   3.049  0.00  0.00    +0.210 C 
ATOM     14  C   UNL     1     -35.535  24.038   5.162  0.00  0.00    +0.210 C 
ATOM     15  H   UNL     1     -33.888  28.053   3.885  0.00  0.00    +0.152 HD
ATOM     16  H   UNL     1     -37.479  22.174   4.323  0.00  0.00    +0.152 HD
ENDROOT
BRANCH   5  17
ATOM     17  C   UNL     1     -32.236  27.829   6.060  0.00  0.00    +0.146 C 
BRANCH  17  18
ATOM     18  C   UNL     1     -32.099  29.183   5.295  0.00  0.00    +0.032 C 
ATOM     19  C   UNL     1     -31.816  30.342   6.255  0.00  0.00    +0.003 C 
ATOM     20  C   UNL     1     -31.002  29.133   4.222  0.00  0.00    +0.003 C 
ENDBRANCH  17  18
BRANCH  17  21
ATOM     21  O   UNL     1     -32.536  28.135   7.436  0.00  0.00    -0.379 OA
ATOM     22  H   UNL     1     -33.114  28.913   7.475  0.00  0.00    +0.211 HD
ENDBRANCH  17  21
ENDBRANCH   5  17
BRANCH   6  23
ATOM     23  C   UNL     1     -39.128  22.397   2.146  0.00  0.00    +0.146 C 
BRANCH  23  24
ATOM     24  C   UNL     1     -39.471  22.580   0.634  0.00  0.00    +0.032 C 
ATOM     25  C   UNL     1     -39.631  21.229  -0.070  0.00  0.00    +0.003 C 
ATOM     26  C   UNL     1     -40.741  23.415   0.425  0.00  0.00    +0.003 C 
ENDBRANCH  23  24
BRANCH  23  27
ATOM     27  O   UNL     1     -38.682  21.038   2.330  0.00  0.00    -0.379 OA
ATOM     28  H   UNL     1     -39.025  20.696   3.171  0.00  0.00    +0.211 HD
ENDBRANCH  23  27
ENDBRANCH   6  23
TORSDOF 6
ENDMDL
MODEL 4
REMARK VINA RESULT:      -6.3      4.274      6.053
REMARK  Name = 21578704
REMARK  6 active torsions:
REMARK  status: ('A' for Active; 'I' for Inactive)
REMARK    1  A    between atoms: C_5  and  C_17
REMARK    2  A    between atoms: C_6  and  C_23
REMARK    3  A    between atoms: C_17  and  C_18
REMARK    4  A    between atoms: C_17  and  O_21
REMARK    5  A    between atoms: C_23  and  C_24
REMARK    6  A    between atoms: C_23  and  O_27
REMARK                            x       y       z     vdW  Elec       q    Type
REMARK                         _______ _______ _______ _____ _____    ______ ____
ROOT
ATOM      1  O   UNL     1     -41.095  23.095   0.516  0.00  0.00    -0.285 OA
ATOM      2  O   UNL     1     -37.805  25.146   4.389  0.00  0.00    -0.285 OA
ATOM      3  N   UNL     1     -38.470  21.889   1.228  0.00  0.00    -0.311 N 
ATOM      4  N   UNL     1     -40.431  26.350   3.678  0.00  0.00    -0.311 N 
ATOM      5  C   UNL     1     -37.263  21.676   1.842  0.00  0.00    +0.053 C 
ATOM      6  C   UNL     1     -41.639  26.561   3.064  0.00  0.00    +0.053 C 
ATOM      7  C   UNL     1     -39.072  23.000   1.763  0.00  0.00    +0.091 C 
ATOM      8  C   UNL     1     -39.828  25.240   3.142  0.00  0.00    +0.091 C 
ATOM      9  C   UNL     1     -38.221  23.504   2.741  0.00  0.00    +0.058 C 
ATOM     10  C   UNL     1     -40.679  24.736   2.163  0.00  0.00    +0.058 C 
ATOM     11  C   UNL     1     -37.081  22.663   2.786  0.00  0.00    +0.017 C 
ATOM     12  C   UNL     1     -41.820  25.575   2.119  0.00  0.00    +0.017 C 
ATOM     13  C   UNL     1     -40.357  23.550   1.380  0.00  0.00    +0.210 C 
ATOM     14  C   UNL     1     -38.542  24.691   3.524  0.00  0.00    +0.210 C 
ATOM     15  H   UNL     1     -38.848  21.329   0.513  0.00  0.00    +0.152 HD
ATOM     16  H   UNL     1     -40.053  26.909   4.395  0.00  0.00    +0.152 HD
ENDROOT
BRANCH   5  17
ATOM     17  C   UNL     1     -36.401  20.542   1.461  0.00  0.00    +0.146 C 
BRANCH  17  18
ATOM     18  C   UNL     1     -34.866  20.815   1.560  0.00  0.00    +0.032 C 
ATOM     19  C   UNL     1     -34.064  19.510   1.550  0.00  0.00    +0.003 C 
ATOM     20  C   UNL     1     -34.367  21.727   0.432  0.00  0.00    +0.003 C 
ENDBRANCH  17  18
BRANCH  17  21
ATOM     21  O   UNL     1     -36.701  19.427   2.322  0.00  0.00    -0.379 OA
ATOM     22  H   UNL     1     -35.878  18.975   2.565  0.00  0.00    +0.211 HD
ENDBRANCH  17  21
ENDBRANCH   5  17
BRANCH   6  23
ATOM     23  C   UNL     1     -42.502  27.694   3.449  0.00  0.00    +0.146 C 
BRANCH  23  24
ATOM     24  C   UNL     1     -43.866  27.294   4.097  0.00  0.00    +0.032 C 
ATOM     25  C   UNL     1     -44.428  28.427   4.961  0.00  0.00    +0.003 C 
ATOM     26  C   UNL     1     -44.909  26.891   3.046  0.00  0.00    +0.003 C 
ENDBRANCH  23  24
BRANCH  23  27
ATOM     27  O   UNL     1     -41.791  28.510   4.401  0.00  0.00    -0.379 OA
ATOM     28  H   UNL     1     -41.731  29.419   4.066  0.00  0.00    +0.211 HD
ENDBRANCH  23  27
ENDBRANCH   6  23
TORSDOF 6
ENDMDL
MODEL 5
REMARK VINA RESULT:      -6.2      0.759      7.988
REMARK  Name = 21578704
REMARK  6 active torsions:
REMARK  status: ('A' for Active; 'I' for Inactive)
REMARK    1  A    between atoms: C_5  and  C_17
REMARK    2  A    between atoms: C_6  and  C_23
REMARK    3  A    between atoms: C_17  and  C_18
REMARK    4  A    between atoms: C_17  and  O_21
REMARK    5  A    between atoms: C_23  and  C_24
REMARK    6  A    between atoms: C_23  and  O_27
REMARK                            x       y       z     vdW  Elec       q    Type
REMARK                         _______ _______ _______ _____ _____    ______ ____
ROOT
ATOM      1  O   UNL     1     -34.792  20.310   2.891  0.00  0.00    -0.285 OA
ATOM      2  O   UNL     1     -39.327  23.007   1.409  0.00  0.00    -0.285 OA
ATOM      3  N   UNL     1     -35.571  22.941   4.041  0.00  0.00    -0.311 N 
ATOM      4  N   UNL     1     -38.550  20.375   0.262  0.00  0.00    -0.311 N 
ATOM      5  C   UNL     1     -36.270  24.094   4.289  0.00  0.00    +0.053 C 
ATOM      6  C   UNL     1     -37.850  19.221   0.014  0.00  0.00    +0.053 C 
ATOM      7  C   UNL     1     -36.226  22.197   3.092  0.00  0.00    +0.091 C 
ATOM      8  C   UNL     1     -37.893  21.120   1.208  0.00  0.00    +0.091 C 
ATOM      9  C   UNL     1     -37.370  22.899   2.731  0.00  0.00    +0.058 C 
ATOM     10  C   UNL     1     -36.747  20.417   1.570  0.00  0.00    +0.058 C 
ATOM     11  C   UNL     1     -37.392  24.096   3.490  0.00  0.00    +0.017 C 
ATOM     12  C   UNL     1     -36.726  19.220   0.812  0.00  0.00    +0.017 C 
ATOM     13  C   UNL     1     -35.804  20.916   2.563  0.00  0.00    +0.210 C 
ATOM     14  C   UNL     1     -38.314  22.402   1.737  0.00  0.00    +0.210 C 
ATOM     15  H   UNL     1     -34.726  22.686   4.477  0.00  0.00    +0.152 HD
ATOM     16  H   UNL     1     -39.395  20.630  -0.174  0.00  0.00    +0.152 HD
ENDROOT
BRANCH   5  17
ATOM     17  C   UNL     1     -35.790  25.082   5.273  0.00  0.00    +0.146 C 
BRANCH  17  18
ATOM     18  C   UNL     1     -34.363  25.653   4.995  0.00  0.00    +0.032 C 
ATOM     19  C   UNL     1     -34.376  26.653   3.835  0.00  0.00    +0.003 C 
ATOM     20  C   UNL     1     -33.757  26.322   6.236  0.00  0.00    +0.003 C 
ENDBRANCH  17  18
BRANCH  17  21
ATOM     21  O   UNL     1     -36.707  26.194   5.291  0.00  0.00    -0.379 OA
ATOM     22  H   UNL     1     -36.257  26.979   5.640  0.00  0.00    +0.211 HD
ENDBRANCH  17  21
ENDBRANCH   5  17
BRANCH   6  23
ATOM     23  C   UNL     1     -38.332  18.231  -0.967  0.00  0.00    +0.146 C 
BRANCH  23  24
ATOM     24  C   UNL     1     -38.067  16.740  -0.586  0.00  0.00    +0.032 C 
ATOM     25  C   UNL     1     -39.318  15.880  -0.788  0.00  0.00    +0.003 C 
ATOM     26  C   UNL     1     -36.902  16.138  -1.382  0.00  0.00    +0.003 C 
ENDBRANCH  23  24
BRANCH  23  27
ATOM     27  O   UNL     1     -39.756  18.394  -1.121  0.00  0.00    -0.379 OA
ATOM     28  H   UNL     1     -40.109  18.885  -0.362  0.00  0.00    +0.211 HD
ENDBRANCH  23  27
ENDBRANCH   6  23
TORSDOF 6
ENDMDL
MODEL 6
REMARK VINA RESULT:      -6.2      3.701      5.284
REMARK  Name = 21578704
REMARK  6 active torsions:
REMARK  status: ('A' for Active; 'I' for Inactive)
REMARK    1  A    between atoms: C_5  and  C_17
REMARK    2  A    between atoms: C_6  and  C_23
REMARK    3  A    between atoms: C_17  and  C_18
REMARK    4  A    between atoms: C_17  and  O_21
REMARK    5  A    between atoms: C_23  and  C_24
REMARK    6  A    between atoms: C_23  and  O_27
REMARK                            x       y       z     vdW  Elec       q    Type
REMARK                         _______ _______ _______ _____ _____    ______ ____
ROOT
ATOM      1  O   UNL     1     -36.187  23.574   5.597  0.00  0.00    -0.285 OA
ATOM      2  O   UNL     1     -36.057  27.817   2.130  0.00  0.00    -0.285 OA
ATOM      3  N   UNL     1     -38.154  23.938   3.395  0.00  0.00    -0.311 N 
ATOM      4  N   UNL     1     -34.089  27.451   4.331  0.00  0.00    -0.311 N 
ATOM      5  C   UNL     1     -38.810  24.469   2.314  0.00  0.00    +0.053 C 
ATOM      6  C   UNL     1     -33.433  26.919   5.411  0.00  0.00    +0.053 C 
ATOM      7  C   UNL     1     -37.096  24.742   3.734  0.00  0.00    +0.091 C 
ATOM      8  C   UNL     1     -35.150  26.648   3.993  0.00  0.00    +0.091 C 
ATOM      9  C   UNL     1     -37.082  25.810   2.844  0.00  0.00    +0.058 C 
ATOM     10  C   UNL     1     -35.163  25.580   4.884  0.00  0.00    +0.058 C 
ATOM     11  C   UNL     1     -38.167  25.631   1.950  0.00  0.00    +0.017 C 
ATOM     12  C   UNL     1     -34.077  25.757   5.777  0.00  0.00    +0.017 C 
ATOM     13  C   UNL     1     -36.162  24.521   4.821  0.00  0.00    +0.210 C 
ATOM     14  C   UNL     1     -36.084  26.870   2.907  0.00  0.00    +0.210 C 
ATOM     15  H   UNL     1     -38.405  23.106   3.857  0.00  0.00    +0.152 HD
ATOM     16  H   UNL     1     -33.838  28.282   3.867  0.00  0.00    +0.152 HD
ENDROOT
BRANCH   5  17
ATOM     17  C   UNL     1     -39.993  23.804   1.735  0.00  0.00    +0.146 C 
BRANCH  17  18
ATOM     18  C   UNL     1     -39.989  23.683   0.178  0.00  0.00    +0.032 C 
ATOM     19  C   UNL     1     -38.877  22.748  -0.307  0.00  0.00    +0.003 C 
ATOM     20  C   UNL     1     -41.337  23.196  -0.367  0.00  0.00    +0.003 C 
ENDBRANCH  17  18
BRANCH  17  21
ATOM     21  O   UNL     1     -40.080  22.471   2.275  0.00  0.00    -0.379 OA
ATOM     22  H   UNL     1     -40.522  21.891   1.635  0.00  0.00    +0.211 HD
ENDBRANCH  17  21
ENDBRANCH   5  17
BRANCH   6  23
ATOM     23  C   UNL     1     -32.248  27.582   5.987  0.00  0.00    +0.146 C 
BRANCH  23  24
ATOM     24  C   UNL     1     -31.904  28.974   5.368  0.00  0.00    +0.032 C 
ATOM     25  C   UNL     1     -31.769  30.049   6.450  0.00  0.00    +0.003 C 
ATOM     26  C   UNL     1     -30.620  28.933   4.530  0.00  0.00    +0.003 C 
ENDBRANCH  23  24
BRANCH  23  27
ATOM     27  O   UNL     1     -32.470  27.776   7.398  0.00  0.00    -0.379 OA
ATOM     28  H   UNL     1     -33.415  27.931   7.558  0.00  0.00    +0.211 HD
ENDBRANCH  23  27
ENDBRANCH   6  23
TORSDOF 6
ENDMDL
MODEL 7
REMARK VINA RESULT:      -6.2      0.769      2.122
REMARK  Name = 21578704
REMARK  6 active torsions:
REMARK  status: ('A' for Active; 'I' for Inactive)
REMARK    1  A    between atoms: C_5  and  C_17
REMARK    2  A    between atoms: C_6  and  C_23
REMARK    3  A    between atoms: C_17  and  C_18
REMARK    4  A    between atoms: C_17  and  O_21
REMARK    5  A    between atoms: C_23  and  C_24
REMARK    6  A    between atoms: C_23  and  O_27
REMARK                            x       y       z     vdW  Elec       q    Type
REMARK                         _______ _______ _______ _____ _____    ______ ____
ROOT
ATOM      1  O   UNL     1     -39.342  22.893   1.345  0.00  0.00    -0.285 OA
ATOM      2  O   UNL     1     -34.803  20.242   2.895  0.00  0.00    -0.285 OA
ATOM      3  N   UNL     1     -38.531  20.259   0.223  0.00  0.00    -0.311 N 
ATOM      4  N   UNL     1     -35.615  22.873   4.019  0.00  0.00    -0.311 N 
ATOM      5  C   UNL     1     -37.820  19.110  -0.009  0.00  0.00    +0.053 C 
ATOM      6  C   UNL     1     -36.327  24.022   4.252  0.00  0.00    +0.053 C 
ATOM      7  C   UNL     1     -37.891  21.016   1.173  0.00  0.00    +0.091 C 
ATOM      8  C   UNL     1     -36.253  22.119   3.067  0.00  0.00    +0.091 C 
ATOM      9  C   UNL     1     -36.745  20.326   1.550  0.00  0.00    +0.058 C 
ATOM     10  C   UNL     1     -37.401  22.809   2.689  0.00  0.00    +0.058 C 
ATOM     11  C   UNL     1     -36.706  19.124   0.800  0.00  0.00    +0.017 C 
ATOM     12  C   UNL     1     -37.441  24.010   3.441  0.00  0.00    +0.017 C 
ATOM     13  C   UNL     1     -38.328  22.297   1.688  0.00  0.00    +0.210 C 
ATOM     14  C   UNL     1     -35.816  20.837   2.551  0.00  0.00    +0.210 C 
ATOM     15  H   UNL     1     -39.373  20.505  -0.224  0.00  0.00    +0.152 HD
ATOM     16  H   UNL     1     -34.774  22.627   4.466  0.00  0.00    +0.152 HD
ENDROOT
BRANCH   5  17
ATOM     17  C   UNL     1     -38.283  18.110  -0.989  0.00  0.00    +0.146 C 
BRANCH  17  18
ATOM     18  C   UNL     1     -37.966  16.626  -0.619  0.00  0.00    +0.032 C 
ATOM     19  C   UNL     1     -39.208  15.739  -0.750  0.00  0.00    +0.003 C 
ATOM     20  C   UNL     1     -36.834  16.046  -1.478  0.00  0.00    +0.003 C 
ENDBRANCH  17  18
BRANCH  17  21
ATOM     21  O   UNL     1     -39.712  18.228  -1.125  0.00  0.00    -0.379 OA
ATOM     22  H   UNL     1     -40.108  18.399  -0.255  0.00  0.00    +0.211 HD
ENDBRANCH  17  21
ENDBRANCH   5  17
BRANCH   6  23
ATOM     23  C   UNL     1     -35.866  25.021   5.234  0.00  0.00    +0.146 C 
BRANCH  23  24
ATOM     24  C   UNL     1     -34.377  25.465   5.074  0.00  0.00    +0.032 C 
ATOM     25  C   UNL     1     -34.178  26.306   3.810  0.00  0.00    +0.003 C 
ATOM     26  C   UNL     1     -33.874  26.252   6.292  0.00  0.00    +0.003 C 
ENDBRANCH  23  24
BRANCH  23  27
ATOM     27  O   UNL     1     -36.687  26.199   5.113  0.00  0.00    -0.379 OA
ATOM     28  H   UNL     1     -36.704  26.670   5.960  0.00  0.00    +0.211 HD
ENDBRANCH  23  27
ENDBRANCH   6  23
TORSDOF 6
ENDMDL
MODEL 8
REMARK VINA RESULT:      -6.1      4.287      7.797
REMARK  Name = 21578704
REMARK  6 active torsions:
REMARK  status: ('A' for Active; 'I' for Inactive)
REMARK    1  A    between atoms: C_5  and  C_17
REMARK    2  A    between atoms: C_6  and  C_23
REMARK    3  A    between atoms: C_17  and  C_18
REMARK    4  A    between atoms: C_17  and  O_21
REMARK    5  A    between atoms: C_23  and  C_24
REMARK    6  A    between atoms: C_23  and  O_27
REMARK                            x       y       z     vdW  Elec       q    Type
REMARK                         _______ _______ _______ _____ _____    ______ ____
ROOT
ATOM      1  O   UNL     1     -37.825  25.194   4.304  0.00  0.00    -0.285 OA
ATOM      2  O   UNL     1     -41.050  23.095   0.402  0.00  0.00    -0.285 OA
ATOM      3  N   UNL     1     -40.404  26.430   3.485  0.00  0.00    -0.311 N 
ATOM      4  N   UNL     1     -38.472  21.859   1.224  0.00  0.00    -0.311 N 
ATOM      5  C   UNL     1     -41.590  26.648   2.832  0.00  0.00    +0.053 C 
ATOM      6  C   UNL     1     -37.286  21.640   1.878  0.00  0.00    +0.053 C 
ATOM      7  C   UNL     1     -39.811  25.292   2.999  0.00  0.00    +0.091 C 
ATOM      8  C   UNL     1     -39.064  22.998   1.708  0.00  0.00    +0.091 C 
ATOM      9  C   UNL     1     -40.644  24.778   2.012  0.00  0.00    +0.058 C 
ATOM     10  C   UNL     1     -38.230  23.513   2.696  0.00  0.00    +0.058 C 
ATOM     11  C   UNL     1     -41.766  25.639   1.911  0.00  0.00    +0.017 C 
ATOM     12  C   UNL     1     -37.110  22.651   2.797  0.00  0.00    +0.017 C 
ATOM     13  C   UNL     1     -38.548  24.729   3.433  0.00  0.00    +0.210 C 
ATOM     14  C   UNL     1     -40.326  23.562   1.273  0.00  0.00    +0.210 C 
ATOM     15  H   UNL     1     -40.034  27.003   4.195  0.00  0.00    +0.152 HD
ATOM     16  H   UNL     1     -38.843  21.285   0.514  0.00  0.00    +0.152 HD
ENDROOT
BRANCH   5  17
ATOM     17  C   UNL     1     -42.440  27.808   3.158  0.00  0.00    +0.146 C 
BRANCH  17  18
ATOM     18  C   UNL     1     -43.962  27.492   3.311  0.00  0.00    +0.032 C 
ATOM     19  C   UNL     1     -44.353  27.319   4.782  0.00  0.00    +0.003 C 
ATOM     20  C   UNL     1     -44.844  28.574   2.674  0.00  0.00    +0.003 C 
ENDBRANCH  17  18
BRANCH  17  21
ATOM     21  O   UNL     1     -41.986  28.374   4.403  0.00  0.00    -0.379 OA
ATOM     22  H   UNL     1     -41.116  28.784   4.275  0.00  0.00    +0.211 HD
ENDBRANCH  17  21
ENDBRANCH   5  17
BRANCH   6  23
ATOM     23  C   UNL     1     -36.439  20.478   1.554  0.00  0.00    +0.146 C 
BRANCH  23  24
ATOM     24  C   UNL     1     -34.901  20.737   1.637  0.00  0.00    +0.032 C 
ATOM     25  C   UNL     1     -34.108  19.430   1.547  0.00  0.00    +0.003 C 
ATOM     26  C   UNL     1     -34.418  21.701   0.546  0.00  0.00    +0.003 C 
ENDBRANCH  23  24
BRANCH  23  27
ATOM     27  O   UNL     1     -36.751  19.412   2.473  0.00  0.00    -0.379 OA
ATOM     28  H   UNL     1     -36.671  18.559   2.017  0.00  0.00    +0.211 HD
ENDBRANCH  23  27
ENDBRANCH   6  23
TORSDOF 6
ENDMDL
MODEL 9
REMARK VINA RESULT:      -6.1      2.866      9.079
REMARK  Name = 21578704
REMARK  6 active torsions:
REMARK  status: ('A' for Active; 'I' for Inactive)
REMARK    1  A    between atoms: C_5  and  C_17
REMARK    2  A    between atoms: C_6  and  C_23
REMARK    3  A    between atoms: C_17  and  C_18
REMARK    4  A    between atoms: C_17  and  O_21
REMARK    5  A    between atoms: C_23  and  C_24
REMARK    6  A    between atoms: C_23  and  O_27
REMARK                            x       y       z     vdW  Elec       q    Type
REMARK                         _______ _______ _______ _____ _____    ______ ____
ROOT
ATOM      1  O   UNL     1     -33.671  25.617   1.150  0.00  0.00    -0.285 OA
ATOM      2  O   UNL     1     -35.145  23.627   6.040  0.00  0.00    -0.285 OA
ATOM      3  N   UNL     1     -33.100  27.012   3.715  0.00  0.00    -0.311 N 
ATOM      4  N   UNL     1     -35.714  22.231   3.475  0.00  0.00    -0.311 N 
ATOM      5  C   UNL     1     -33.047  27.295   5.056  0.00  0.00    +0.053 C 
ATOM      6  C   UNL     1     -35.765  21.948   2.134  0.00  0.00    +0.053 C 
ATOM      7  C   UNL     1     -33.745  25.817   3.520  0.00  0.00    +0.091 C 
ATOM      8  C   UNL     1     -35.072  23.428   3.670  0.00  0.00    +0.091 C 
ATOM      9  C   UNL     1     -34.109  25.331   4.771  0.00  0.00    +0.058 C 
ATOM     10  C   UNL     1     -34.707  23.914   2.419  0.00  0.00    +0.058 C 
ATOM     11  C   UNL     1     -33.667  26.269   5.736  0.00  0.00    +0.017 C 
ATOM     12  C   UNL     1     -35.148  22.975   1.453  0.00  0.00    +0.017 C 
ATOM     13  C   UNL     1     -33.999  25.176   2.245  0.00  0.00    +0.210 C 
ATOM     14  C   UNL     1     -34.818  24.069   4.945  0.00  0.00    +0.210 C 
ATOM     15  H   UNL     1     -32.732  27.580   3.001  0.00  0.00    +0.152 HD
ATOM     16  H   UNL     1     -36.081  21.663   4.189  0.00  0.00    +0.152 HD
ENDROOT
BRANCH   5  17
ATOM     17  C   UNL     1     -32.406  28.526   5.552  0.00  0.00    +0.146 C 
BRANCH  17  18
ATOM     18  C   UNL     1     -30.844  28.512   5.534  0.00  0.00    +0.032 C 
ATOM     19  C   UNL     1     -30.295  29.069   4.217  0.00  0.00    +0.003 C 
ATOM     20  C   UNL     1     -30.245  29.299   6.707  0.00  0.00    +0.003 C 
ENDBRANCH  17  18
BRANCH  17  21
ATOM     21  O   UNL     1     -32.841  29.631   4.737  0.00  0.00    -0.379 OA
ATOM     22  H   UNL     1     -32.963  30.416   5.295  0.00  0.00    +0.211 HD
ENDBRANCH  17  21
ENDBRANCH   5  17
BRANCH   6  23
ATOM     23  C   UNL     1     -36.404  20.715   1.638  0.00  0.00    +0.146 C 
BRANCH  23  24
ATOM     24  C   UNL     1     -35.538  19.876   0.645  0.00  0.00    +0.032 C 
ATOM     25  C   UNL     1     -34.248  19.383   1.307  0.00  0.00    +0.003 C 
ATOM     26  C   UNL     1     -36.308  18.676   0.078  0.00  0.00    +0.003 C 
ENDBRANCH  23  24
BRANCH  23  27
ATOM     27  O   UNL     1     -36.712  19.872   2.767  0.00  0.00    -0.379 OA
ATOM     28  H   UNL     1     -37.644  19.608   2.728  0.00  0.00    +0.211 HD
ENDBRANCH  23  27
ENDBRANCH   6  23
TORSDOF 6
ENDMDL
