MODEL 1
REMARK VINA RESULT:      -6.6      0.000      0.000
REMARK  Name = 60867
REMARK  5 active torsions:
REMARK  status: ('A' for Active; 'I' for Inactive)
REMARK    1  A    between atoms: C_1  and  C_12
REMARK    2  A    between atoms: C_6  and  N_16
REMARK    3  A    between atoms: N_16  and  N_18
REMARK    4  A    between atoms: C_19  and  C_21
REMARK    5  A    between atoms: C_19  and  C_23
REMARK                            x       y       z     vdW  Elec       q    Type
REMARK                         _______ _______ _______ _____ _____    ______ ____
ROOT
ATOM      1  C   UNL     1     -36.332  21.836   2.829  0.00  0.00    +0.015 C 
ATOM      2  C   UNL     1     -37.477  21.634   2.066  0.00  0.00    +0.003 C 
ATOM      3  C   UNL     1     -35.243  20.977   2.709  0.00  0.00    +0.003 C 
ATOM      4  C   UNL     1     -37.536  20.563   1.175  0.00  0.00    +0.016 C 
ATOM      5  C   UNL     1     -35.301  19.906   1.818  0.00  0.00    +0.016 C 
ATOM      6  C   UNL     1     -36.448  19.699   1.050  0.00  0.00    +0.065 C 
ENDROOT
BRANCH   1  12
ATOM      7  O   UNL     1     -36.010  26.344   5.992  0.00  0.00    -0.273 OA
ATOM      8  N   UNL     1     -37.234  23.858   3.780  0.00  0.00    -0.184 NA
ATOM      9  N   UNL     1     -37.163  24.924   4.609  0.00  0.00    -0.206 N 
ATOM     10  C   UNL     1     -35.103  23.093   4.762  0.00  0.00    +0.051 C 
ATOM     11  C   UNL     1     -34.785  24.565   4.972  0.00  0.00    +0.093 C 
ATOM     12  C   UNL     1     -36.268  22.988   3.788  0.00  0.00    +0.076 C 
ATOM     13  C   UNL     1     -35.453  22.399   6.079  0.00  0.00    +0.007 C 
ATOM     14  C   UNL     1     -36.032  25.351   5.265  0.00  0.00    +0.241 C 
ATOM     15  H   UNL     1     -37.991  25.438   4.756  0.00  0.00    +0.177 HD
ENDBRANCH   1  12
BRANCH   6  16
ATOM     16  N   UNL     1     -36.508  18.616   0.148  0.00  0.00    -0.235 N 
ATOM     17  H   UNL     1     -35.676  18.225  -0.203  0.00  0.00    +0.174 HD
BRANCH  16  18
ATOM     18  N   UNL     1     -37.697  18.116  -0.233  0.00  0.00    -0.160 NA
ATOM     19  C   UNL     1     -37.800  16.841  -0.416  0.00  0.00    +0.234 C 
BRANCH  19  21
ATOM     20  N   UNL     1     -40.180  16.110  -1.141  0.00  0.00    -0.188 NA
ATOM     21  C   UNL     1     -39.114  16.436  -0.818  0.00  0.00    +0.132 C 
ENDBRANCH  19  21
BRANCH  19  23
ATOM     22  N   UNL     1     -35.801  15.224  -0.075  0.00  0.00    -0.188 NA
ATOM     23  C   UNL     1     -36.697  15.947  -0.225  0.00  0.00    +0.132 C 
ENDBRANCH  19  23
ENDBRANCH  16  18
ENDBRANCH   6  16
TORSDOF 5
ENDMDL
MODEL 2
REMARK VINA RESULT:      -6.3      1.282      2.362
REMARK  Name = 60867
REMARK  5 active torsions:
REMARK  status: ('A' for Active; 'I' for Inactive)
REMARK    1  A    between atoms: C_1  and  C_12
REMARK    2  A    between atoms: C_6  and  N_16
REMARK    3  A    between atoms: N_16  and  N_18
REMARK    4  A    between atoms: C_19  and  C_21
REMARK    5  A    between atoms: C_19  and  C_23
REMARK                            x       y       z     vdW  Elec       q    Type
REMARK                         _______ _______ _______ _____ _____    ______ ____
ROOT
ATOM      1  C   UNL     1     -36.028  21.734   2.835  0.00  0.00    +0.015 C 
ATOM      2  C   UNL     1     -37.121  21.421   2.032  0.00  0.00    +0.003 C 
ATOM      3  C   UNL     1     -34.861  20.978   2.765  0.00  0.00    +0.003 C 
ATOM      4  C   UNL     1     -37.047  20.342   1.151  0.00  0.00    +0.016 C 
ATOM      5  C   UNL     1     -34.788  19.899   1.884  0.00  0.00    +0.016 C 
ATOM      6  C   UNL     1     -35.881  19.581   1.077  0.00  0.00    +0.065 C 
ENDROOT
BRANCH   1  12
ATOM      7  O   UNL     1     -36.220  26.275   5.959  0.00  0.00    -0.273 OA
ATOM      8  N   UNL     1     -37.121  23.702   3.692  0.00  0.00    -0.184 NA
ATOM      9  N   UNL     1     -37.178  24.777   4.512  0.00  0.00    -0.206 N 
ATOM     10  C   UNL     1     -35.027  23.078   4.838  0.00  0.00    +0.051 C 
ATOM     11  C   UNL     1     -34.816  24.569   5.053  0.00  0.00    +0.093 C 
ATOM     12  C   UNL     1     -36.107  22.895   3.782  0.00  0.00    +0.076 C 
ATOM     13  C   UNL     1     -35.431  22.373   6.134  0.00  0.00    +0.007 C 
ATOM     14  C   UNL     1     -36.127  25.278   5.244  0.00  0.00    +0.241 C 
ATOM     15  H   UNL     1     -38.044  25.240   4.591  0.00  0.00    +0.177 HD
ENDBRANCH   1  12
BRANCH   6  16
ATOM     16  N   UNL     1     -35.806  18.490   0.186  0.00  0.00    -0.235 N 
ATOM     17  H   UNL     1     -36.594  18.238  -0.347  0.00  0.00    +0.174 HD
BRANCH  16  18
ATOM     18  N   UNL     1     -34.662  17.792   0.063  0.00  0.00    -0.160 NA
ATOM     19  C   UNL     1     -34.736  16.524  -0.171  0.00  0.00    +0.234 C 
BRANCH  19  21
ATOM     20  N   UNL     1     -32.412  15.391  -0.370  0.00  0.00    -0.188 NA
ATOM     21  C   UNL     1     -33.452  15.899  -0.283  0.00  0.00    +0.132 C 
ENDBRANCH  19  21
BRANCH  19  23
ATOM     22  N   UNL     1     -37.003  15.287  -0.409  0.00  0.00    -0.188 NA
ATOM     23  C   UNL     1     -35.988  15.840  -0.305  0.00  0.00    +0.132 C 
ENDBRANCH  19  23
ENDBRANCH  16  18
ENDBRANCH   6  16
TORSDOF 5
ENDMDL
MODEL 3
REMARK VINA RESULT:      -6.3      1.285      2.588
REMARK  Name = 60867
REMARK  5 active torsions:
REMARK  status: ('A' for Active; 'I' for Inactive)
REMARK    1  A    between atoms: C_1  and  C_12
REMARK    2  A    between atoms: C_6  and  N_16
REMARK    3  A    between atoms: N_16  and  N_18
REMARK    4  A    between atoms: C_19  and  C_21
REMARK    5  A    between atoms: C_19  and  C_23
REMARK                            x       y       z     vdW  Elec       q    Type
REMARK                         _______ _______ _______ _____ _____    ______ ____
ROOT
ATOM      1  C   UNL     1     -36.021  21.728   2.834  0.00  0.00    +0.015 C 
ATOM      2  C   UNL     1     -34.854  20.974   2.759  0.00  0.00    +0.003 C 
ATOM      3  C   UNL     1     -37.116  21.414   2.033  0.00  0.00    +0.003 C 
ATOM      4  C   UNL     1     -34.780  19.896   1.877  0.00  0.00    +0.016 C 
ATOM      5  C   UNL     1     -37.042  20.336   1.151  0.00  0.00    +0.016 C 
ATOM      6  C   UNL     1     -35.873  19.577   1.073  0.00  0.00    +0.065 C 
ENDROOT
BRANCH   1  12
ATOM      7  O   UNL     1     -36.217  26.264   5.965  0.00  0.00    -0.273 OA
ATOM      8  N   UNL     1     -37.113  23.697   3.690  0.00  0.00    -0.184 NA
ATOM      9  N   UNL     1     -37.171  24.771   4.511  0.00  0.00    -0.206 N 
ATOM     10  C   UNL     1     -35.026  23.066   4.844  0.00  0.00    +0.051 C 
ATOM     11  C   UNL     1     -34.812  24.556   5.063  0.00  0.00    +0.093 C 
ATOM     12  C   UNL     1     -36.101  22.887   3.783  0.00  0.00    +0.076 C 
ATOM     13  C   UNL     1     -35.437  22.360   6.137  0.00  0.00    +0.007 C 
ATOM     14  C   UNL     1     -36.123  25.268   5.249  0.00  0.00    +0.241 C 
ATOM     15  H   UNL     1     -38.037  25.235   4.586  0.00  0.00    +0.177 HD
ENDBRANCH   1  12
BRANCH   6  16
ATOM     16  N   UNL     1     -35.798  18.487   0.180  0.00  0.00    -0.235 N 
ATOM     17  H   UNL     1     -36.585  18.238  -0.356  0.00  0.00    +0.174 HD
BRANCH  16  18
ATOM     18  N   UNL     1     -34.656  17.787   0.060  0.00  0.00    -0.160 NA
ATOM     19  C   UNL     1     -34.732  16.518  -0.171  0.00  0.00    +0.234 C 
BRANCH  19  21
ATOM     20  N   UNL     1     -32.410  15.379  -0.366  0.00  0.00    -0.188 NA
ATOM     21  C   UNL     1     -33.449  15.890  -0.280  0.00  0.00    +0.132 C 
ENDBRANCH  19  21
BRANCH  19  23
ATOM     22  N   UNL     1     -37.000  15.285  -0.416  0.00  0.00    -0.188 NA
ATOM     23  C   UNL     1     -35.985  15.836  -0.304  0.00  0.00    +0.132 C 
ENDBRANCH  19  23
ENDBRANCH  16  18
ENDBRANCH   6  16
TORSDOF 5
ENDMDL
MODEL 4
REMARK VINA RESULT:      -6.3      0.549      1.999
REMARK  Name = 60867
REMARK  5 active torsions:
REMARK  status: ('A' for Active; 'I' for Inactive)
REMARK    1  A    between atoms: C_1  and  C_12
REMARK    2  A    between atoms: C_6  and  N_16
REMARK    3  A    between atoms: N_16  and  N_18
REMARK    4  A    between atoms: C_19  and  C_21
REMARK    5  A    between atoms: C_19  and  C_23
REMARK                            x       y       z     vdW  Elec       q    Type
REMARK                         _______ _______ _______ _____ _____    ______ ____
ROOT
ATOM      1  C   UNL     1     -36.689  22.082   2.853  0.00  0.00    +0.015 C 
ATOM      2  C   UNL     1     -35.749  21.090   2.592  0.00  0.00    +0.003 C 
ATOM      3  C   UNL     1     -37.916  22.082   2.194  0.00  0.00    +0.003 C 
ATOM      4  C   UNL     1     -36.036  20.089   1.664  0.00  0.00    +0.016 C 
ATOM      5  C   UNL     1     -38.203  21.081   1.265  0.00  0.00    +0.016 C 
ATOM      6  C   UNL     1     -37.263  20.084   1.001  0.00  0.00    +0.065 C 
ENDROOT
BRANCH   1  12
ATOM      7  O   UNL     1     -35.465  26.319   6.164  0.00  0.00    -0.273 OA
ATOM      8  N   UNL     1     -37.216  24.146   3.977  0.00  0.00    -0.184 NA
ATOM      9  N   UNL     1     -36.924  25.145   4.841  0.00  0.00    -0.206 N 
ATOM     10  C   UNL     1     -35.127  23.054   4.707  0.00  0.00    +0.051 C 
ATOM     11  C   UNL     1     -34.594  24.457   4.949  0.00  0.00    +0.093 C 
ATOM     12  C   UNL     1     -36.381  23.158   3.850  0.00  0.00    +0.076 C 
ATOM     13  C   UNL     1     -35.445  22.337   6.021  0.00  0.00    +0.007 C 
ATOM     14  C   UNL     1     -35.690  25.382   5.399  0.00  0.00    +0.241 C 
ATOM     15  H   UNL     1     -37.657  25.754   5.092  0.00  0.00    +0.177 HD
ENDBRANCH   1  12
BRANCH   6  16
ATOM     16  N   UNL     1     -37.554  19.071   0.063  0.00  0.00    -0.235 N 
ATOM     17  H   UNL     1     -38.308  19.182  -0.560  0.00  0.00    +0.174 HD
BRANCH  16  18
ATOM     18  N   UNL     1     -36.804  17.955   0.016  0.00  0.00    -0.160 NA
ATOM     19  C   UNL     1     -37.354  16.860  -0.393  0.00  0.00    +0.234 C 
BRANCH  19  21
ATOM     20  N   UNL     1     -35.720  14.847  -0.405  0.00  0.00    -0.188 NA
ATOM     21  C   UNL     1     -36.452  15.747  -0.398  0.00  0.00    +0.132 C 
ENDBRANCH  19  21
BRANCH  19  23
ATOM     22  N   UNL     1     -39.838  16.743  -1.130  0.00  0.00    -0.188 NA
ATOM     23  C   UNL     1     -38.727  16.795  -0.798  0.00  0.00    +0.132 C 
ENDBRANCH  19  23
ENDBRANCH  16  18
ENDBRANCH   6  16
TORSDOF 5
ENDMDL
MODEL 5
REMARK VINA RESULT:      -5.9      3.576      6.022
REMARK  Name = 60867
REMARK  5 active torsions:
REMARK  status: ('A' for Active; 'I' for Inactive)
REMARK    1  A    between atoms: C_1  and  C_12
REMARK    2  A    between atoms: C_6  and  N_16
REMARK    3  A    between atoms: N_16  and  N_18
REMARK    4  A    between atoms: C_19  and  C_21
REMARK    5  A    between atoms: C_19  and  C_23
REMARK                            x       y       z     vdW  Elec       q    Type
REMARK                         _______ _______ _______ _____ _____    ______ ____
ROOT
ATOM      1  C   UNL     1     -34.112  25.963   4.832  0.00  0.00    +0.015 C 
ATOM      2  C   UNL     1     -33.841  25.054   3.814  0.00  0.00    +0.003 C 
ATOM      3  C   UNL     1     -35.301  25.881   5.553  0.00  0.00    +0.003 C 
ATOM      4  C   UNL     1     -34.765  24.054   3.513  0.00  0.00    +0.016 C 
ATOM      5  C   UNL     1     -36.225  24.881   5.252  0.00  0.00    +0.016 C 
ATOM      6  C   UNL     1     -35.957  23.967   4.232  0.00  0.00    +0.065 C 
ENDROOT
BRANCH   1  12
ATOM      7  O   UNL     1     -30.778  30.103   6.302  0.00  0.00    -0.273 OA
ATOM      8  N   UNL     1     -32.572  27.045   6.335  0.00  0.00    -0.184 NA
ATOM      9  N   UNL     1     -31.709  28.038   6.652  0.00  0.00    -0.206 N 
ATOM     10  C   UNL     1     -32.752  28.068   4.097  0.00  0.00    +0.051 C 
ATOM     11  C   UNL     1     -32.485  29.396   4.790  0.00  0.00    +0.093 C 
ATOM     12  C   UNL     1     -33.119  27.039   5.156  0.00  0.00    +0.076 C 
ATOM     13  C   UNL     1     -31.534  27.594   3.300  0.00  0.00    +0.007 C 
ATOM     14  C   UNL     1     -31.561  29.217   5.961  0.00  0.00    +0.241 C 
ATOM     15  H   UNL     1     -31.139  27.904   7.445  0.00  0.00    +0.177 HD
ENDBRANCH   1  12
BRANCH   6  16
ATOM     16  N   UNL     1     -36.892  22.955   3.928  0.00  0.00    -0.235 N 
ATOM     17  H   UNL     1     -36.697  22.020   4.167  0.00  0.00    +0.174 HD
BRANCH  16  18
ATOM     18  N   UNL     1     -38.047  23.263   3.311  0.00  0.00    -0.160 NA
ATOM     19  C   UNL     1     -38.423  22.540   2.309  0.00  0.00    +0.234 C 
BRANCH  19  21
ATOM     20  N   UNL     1     -40.676  23.314   1.286  0.00  0.00    -0.188 NA
ATOM     21  C   UNL     1     -39.667  22.969   1.742  0.00  0.00    +0.132 C 
ENDBRANCH  19  21
BRANCH  19  23
ATOM     22  N   UNL     1     -37.037  20.521   1.454  0.00  0.00    -0.188 NA
ATOM     23  C   UNL     1     -37.655  21.426   1.835  0.00  0.00    +0.132 C 
ENDBRANCH  19  23
ENDBRANCH  16  18
ENDBRANCH   6  16
TORSDOF 5
ENDMDL
MODEL 6
REMARK VINA RESULT:      -5.9      1.959      2.517
REMARK  Name = 60867
REMARK  5 active torsions:
REMARK  status: ('A' for Active; 'I' for Inactive)
REMARK    1  A    between atoms: C_1  and  C_12
REMARK    2  A    between atoms: C_6  and  N_16
REMARK    3  A    between atoms: N_16  and  N_18
REMARK    4  A    between atoms: C_19  and  C_21
REMARK    5  A    between atoms: C_19  and  C_23
REMARK                            x       y       z     vdW  Elec       q    Type
REMARK                         _______ _______ _______ _____ _____    ______ ____
ROOT
ATOM      1  C   UNL     1     -35.183  22.206   2.626  0.00  0.00    +0.015 C 
ATOM      2  C   UNL     1     -35.302  20.854   2.933  0.00  0.00    +0.003 C 
ATOM      3  C   UNL     1     -34.733  22.608   1.371  0.00  0.00    +0.003 C 
ATOM      4  C   UNL     1     -34.969  19.894   1.978  0.00  0.00    +0.016 C 
ATOM      5  C   UNL     1     -34.399  21.648   0.416  0.00  0.00    +0.016 C 
ATOM      6  C   UNL     1     -34.518  20.291   0.719  0.00  0.00    +0.065 C 
ENDROOT
BRANCH   1  12
ATOM      7  O   UNL     1     -36.380  26.325   6.093  0.00  0.00    -0.273 OA
ATOM      8  N   UNL     1     -36.613  23.950   3.471  0.00  0.00    -0.184 NA
ATOM      9  N   UNL     1     -36.920  24.915   4.369  0.00  0.00    -0.206 N 
ATOM     10  C   UNL     1     -34.669  23.405   4.889  0.00  0.00    +0.051 C 
ATOM     11  C   UNL     1     -34.665  24.875   5.279  0.00  0.00    +0.093 C 
ATOM     12  C   UNL     1     -35.541  23.239   3.653  0.00  0.00    +0.076 C 
ATOM     13  C   UNL     1     -35.190  22.522   6.025  0.00  0.00    +0.007 C 
ATOM     14  C   UNL     1     -36.063  25.429   5.312  0.00  0.00    +0.241 C 
ATOM     15  H   UNL     1     -37.835  25.280   4.344  0.00  0.00    +0.177 HD
ENDBRANCH   1  12
BRANCH   6  16
ATOM     16  N   UNL     1     -34.181  19.320  -0.247  0.00  0.00    -0.235 N 
ATOM     17  H   UNL     1     -33.438  19.487  -0.872  0.00  0.00    +0.174 HD
BRANCH  16  18
ATOM     18  N   UNL     1     -34.870  18.167  -0.319  0.00  0.00    -0.160 NA
ATOM     19  C   UNL     1     -34.260  17.065  -0.034  0.00  0.00    +0.234 C 
BRANCH  19  21
ATOM     20  N   UNL     1     -35.783  14.975  -0.239  0.00  0.00    -0.188 NA
ATOM     21  C   UNL     1     -35.103  15.911  -0.146  0.00  0.00    +0.132 C 
ENDBRANCH  19  21
BRANCH  19  23
ATOM     22  N   UNL     1     -31.766  16.997   0.674  0.00  0.00    -0.188 NA
ATOM     23  C   UNL     1     -32.882  17.029   0.356  0.00  0.00    +0.132 C 
ENDBRANCH  19  23
ENDBRANCH  16  18
ENDBRANCH   6  16
TORSDOF 5
ENDMDL
MODEL 7
REMARK VINA RESULT:      -5.8      3.386      5.865
REMARK  Name = 60867
REMARK  5 active torsions:
REMARK  status: ('A' for Active; 'I' for Inactive)
REMARK    1  A    between atoms: C_1  and  C_12
REMARK    2  A    between atoms: C_6  and  N_16
REMARK    3  A    between atoms: N_16  and  N_18
REMARK    4  A    between atoms: C_19  and  C_21
REMARK    5  A    between atoms: C_19  and  C_23
REMARK                            x       y       z     vdW  Elec       q    Type
REMARK                         _______ _______ _______ _____ _____    ______ ____
ROOT
ATOM      1  C   UNL     1     -34.310  25.941   4.800  0.00  0.00    +0.015 C 
ATOM      2  C   UNL     1     -33.907  24.834   4.061  0.00  0.00    +0.003 C 
ATOM      3  C   UNL     1     -35.636  26.078   5.200  0.00  0.00    +0.003 C 
ATOM      4  C   UNL     1     -34.837  23.854   3.716  0.00  0.00    +0.016 C 
ATOM      5  C   UNL     1     -36.567  25.098   4.856  0.00  0.00    +0.016 C 
ATOM      6  C   UNL     1     -36.167  23.985   4.115  0.00  0.00    +0.065 C 
ENDROOT
BRANCH   1  12
ATOM      7  O   UNL     1     -30.962  30.015   6.418  0.00  0.00    -0.273 OA
ATOM      8  N   UNL     1     -32.836  27.006   6.381  0.00  0.00    -0.184 NA
ATOM      9  N   UNL     1     -31.968  27.980   6.737  0.00  0.00    -0.206 N 
ATOM     10  C   UNL     1     -32.850  27.998   4.122  0.00  0.00    +0.051 C 
ATOM     11  C   UNL     1     -32.591  29.329   4.812  0.00  0.00    +0.093 C 
ATOM     12  C   UNL     1     -33.309  26.995   5.171  0.00  0.00    +0.076 C 
ATOM     13  C   UNL     1     -31.599  27.480   3.409  0.00  0.00    +0.007 C 
ATOM     14  C   UNL     1     -31.745  29.144   6.041  0.00  0.00    +0.241 C 
ATOM     15  H   UNL     1     -31.451  27.844   7.565  0.00  0.00    +0.177 HD
ENDBRANCH   1  12
BRANCH   6  16
ATOM     16  N   UNL     1     -37.109  22.993   3.767  0.00  0.00    -0.235 N 
ATOM     17  H   UNL     1     -38.000  22.996   4.185  0.00  0.00    +0.174 HD
BRANCH  16  18
ATOM     18  N   UNL     1     -36.793  22.044   2.867  0.00  0.00    -0.160 NA
ATOM     19  C   UNL     1     -37.705  21.648   2.043  0.00  0.00    +0.234 C 
BRANCH  19  21
ATOM     20  N   UNL     1     -36.868  19.823   0.401  0.00  0.00    -0.188 NA
ATOM     21  C   UNL     1     -37.243  20.638   1.137  0.00  0.00    +0.132 C 
ENDBRANCH  19  21
BRANCH  19  23
ATOM     22  N   UNL     1     -40.110  22.619   2.059  0.00  0.00    -0.188 NA
ATOM     23  C   UNL     1     -39.034  22.183   2.054  0.00  0.00    +0.132 C 
ENDBRANCH  19  23
ENDBRANCH  16  18
ENDBRANCH   6  16
TORSDOF 5
ENDMDL
MODEL 8
REMARK VINA RESULT:      -5.8      5.857     11.238
REMARK  Name = 60867
REMARK  5 active torsions:
REMARK  status: ('A' for Active; 'I' for Inactive)
REMARK    1  A    between atoms: C_1  and  C_12
REMARK    2  A    between atoms: C_6  and  N_16
REMARK    3  A    between atoms: N_16  and  N_18
REMARK    4  A    between atoms: C_19  and  C_21
REMARK    5  A    between atoms: C_19  and  C_23
REMARK                            x       y       z     vdW  Elec       q    Type
REMARK                         _______ _______ _______ _____ _____    ______ ____
ROOT
ATOM      1  C   UNL     1     -33.860  26.495   5.156  0.00  0.00    +0.015 C 
ATOM      2  C   UNL     1     -33.183  27.403   4.348  0.00  0.00    +0.003 C 
ATOM      3  C   UNL     1     -33.578  26.413   6.517  0.00  0.00    +0.003 C 
ATOM      4  C   UNL     1     -32.213  28.237   4.905  0.00  0.00    +0.016 C 
ATOM      5  C   UNL     1     -32.609  27.247   7.074  0.00  0.00    +0.016 C 
ATOM      6  C   UNL     1     -31.926  28.159   6.268  0.00  0.00    +0.065 C 
ENDROOT
BRANCH   1  12
ATOM      7  O   UNL     1     -37.711  22.977   3.362  0.00  0.00    -0.273 OA
ATOM      8  N   UNL     1     -36.134  25.724   4.954  0.00  0.00    -0.184 NA
ATOM      9  N   UNL     1     -37.073  24.889   4.454  0.00  0.00    -0.206 N 
ATOM     10  C   UNL     1     -34.506  24.594   3.485  0.00  0.00    +0.051 C 
ATOM     11  C   UNL     1     -35.369  23.352   3.647  0.00  0.00    +0.093 C 
ATOM     12  C   UNL     1     -34.903  25.598   4.557  0.00  0.00    +0.076 C 
ATOM     13  C   UNL     1     -34.666  25.215   2.096  0.00  0.00    +0.007 C 
ATOM     14  C   UNL     1     -36.821  23.718   3.778  0.00  0.00    +0.241 C 
ATOM     15  H   UNL     1     -38.017  25.140   4.585  0.00  0.00    +0.177 HD
ENDBRANCH   1  12
BRANCH   6  16
ATOM     16  N   UNL     1     -30.946  29.003   6.831  0.00  0.00    -0.235 N 
ATOM     17  H   UNL     1     -30.807  29.010   7.806  0.00  0.00    +0.174 HD
BRANCH  16  18
ATOM     18  N   UNL     1     -30.201  29.798   6.042  0.00  0.00    -0.160 NA
ATOM     19  C   UNL     1     -28.956  29.970   6.340  0.00  0.00    +0.234 C 
BRANCH  19  21
ATOM     20  N   UNL     1     -27.724  31.535   4.679  0.00  0.00    -0.188 NA
ATOM     21  C   UNL     1     -28.274  30.835   5.423  0.00  0.00    +0.132 C 
ENDBRANCH  19  21
BRANCH  19  23
ATOM     22  N   UNL     1     -27.852  28.842   8.398  0.00  0.00    -0.188 NA
ATOM     23  C   UNL     1     -28.345  29.345   7.476  0.00  0.00    +0.132 C 
ENDBRANCH  19  23
ENDBRANCH  16  18
ENDBRANCH   6  16
TORSDOF 5
ENDMDL
MODEL 9
REMARK VINA RESULT:      -5.8      4.425      9.888
REMARK  Name = 60867
REMARK  5 active torsions:
REMARK  status: ('A' for Active; 'I' for Inactive)
REMARK    1  A    between atoms: C_1  and  C_12
REMARK    2  A    between atoms: C_6  and  N_16
REMARK    3  A    between atoms: N_16  and  N_18
REMARK    4  A    between atoms: C_19  and  C_21
REMARK    5  A    between atoms: C_19  and  C_23
REMARK                            x       y       z     vdW  Elec       q    Type
REMARK                         _______ _______ _______ _____ _____    ______ ____
ROOT
ATOM      1  C   UNL     1     -35.060  24.357   3.907  0.00  0.00    +0.015 C 
ATOM      2  C   UNL     1     -34.063  25.146   3.341  0.00  0.00    +0.003 C 
ATOM      3  C   UNL     1     -35.435  24.540   5.235  0.00  0.00    +0.003 C 
ATOM      4  C   UNL     1     -33.436  26.127   4.108  0.00  0.00    +0.016 C 
ATOM      5  C   UNL     1     -34.808  25.521   6.003  0.00  0.00    +0.016 C 
ATOM      6  C   UNL     1     -33.808  26.315   5.439  0.00  0.00    +0.065 C 
ENDROOT
BRANCH   1  12
ATOM      7  O   UNL     1     -37.409  20.170   1.192  0.00  0.00    -0.273 OA
ATOM      8  N   UNL     1     -36.838  22.778   3.525  0.00  0.00    -0.184 NA
ATOM      9  N   UNL     1     -37.430  21.794   2.810  0.00  0.00    -0.206 N 
ATOM     10  C   UNL     1     -35.137  22.897   1.742  0.00  0.00    +0.051 C 
ATOM     11  C   UNL     1     -35.398  21.414   1.529  0.00  0.00    +0.093 C 
ATOM     12  C   UNL     1     -35.735  23.302   3.082  0.00  0.00    +0.076 C 
ATOM     13  C   UNL     1     -35.739  23.743   0.619  0.00  0.00    +0.007 C 
ATOM     14  C   UNL     1     -36.837  21.075   1.799  0.00  0.00    +0.241 C 
ATOM     15  H   UNL     1     -38.364  21.573   3.033  0.00  0.00    +0.177 HD
ENDBRANCH   1  12
BRANCH   6  16
ATOM     16  N   UNL     1     -33.174  27.307   6.216  0.00  0.00    -0.235 N 
ATOM     17  H   UNL     1     -33.713  27.995   6.667  0.00  0.00    +0.174 HD
BRANCH  16  18
ATOM     18  N   UNL     1     -31.834  27.317   6.340  0.00  0.00    -0.160 NA
ATOM     19  C   UNL     1     -31.206  28.431   6.156  0.00  0.00    +0.234 C 
BRANCH  19  21
ATOM     20  N   UNL     1     -28.639  28.207   6.448  0.00  0.00    -0.188 NA
ATOM     21  C   UNL     1     -29.787  28.309   6.318  0.00  0.00    +0.132 C 
ENDBRANCH  19  21
BRANCH  19  23
ATOM     22  N   UNL     1     -32.430  30.639   5.561  0.00  0.00    -0.188 NA
ATOM     23  C   UNL     1     -31.884  29.649   5.827  0.00  0.00    +0.132 C 
ENDBRANCH  19  23
ENDBRANCH  16  18
ENDBRANCH   6  16
TORSDOF 5
ENDMDL
