MODEL 1
REMARK VINA RESULT:      -6.4      0.000      0.000
REMARK  Name = 56840859
REMARK  4 active torsions:
REMARK  status: ('A' for Active; 'I' for Inactive)
REMARK    1  A    between atoms: C_6  and  O_24
REMARK    2  A    between atoms: C_16  and  O_26
REMARK    3  A    between atoms: C_16  and  C_28
REMARK    4  A    between atoms: C_28  and  O_29
REMARK                            x       y       z     vdW  Elec       q    Type
REMARK                         _______ _______ _______ _____ _____    ______ ____
ROOT
ATOM      1  O   UNL     1     -38.006  23.885   1.834  0.00  0.00    -0.449 OA
ATOM      2  O   UNL     1     -36.457  26.393   2.443  0.00  0.00    -0.447 OA
ATOM      3  O   UNL     1     -38.855  21.778   2.221  0.00  0.00    -0.245 OA
ATOM      4  O   UNL     1     -34.274  26.506   1.712  0.00  0.00    -0.247 OA
ATOM      5  N   UNL     1     -40.805  26.305   1.331  0.00  0.00    +0.409 N 
ATOM      6  C   UNL     1     -39.368  25.958   1.930  0.00  0.00    +0.095 C 
ATOM      7  C   UNL     1     -39.328  24.429   1.738  0.00  0.00    +0.175 C 
ATOM      8  C   UNL     1     -41.201  25.090   0.450  0.00  0.00    -0.066 C 
ATOM      9  C   UNL     1     -39.957  24.223   0.375  0.00  0.00    +0.022 C 
ATOM     10  C   UNL     1     -40.550  27.571   0.498  0.00  0.00    -0.069 C 
ATOM     11  C   UNL     1     -38.413  26.811   1.109  0.00  0.00    +0.053 C 
ATOM     12  C   UNL     1     -41.854  26.554   2.395  0.00  0.00    -0.092 C 
ATOM     13  C   UNL     1     -39.077  27.695   0.353  0.00  0.00    -0.018 C 
ATOM     14  C   UNL     1     -36.924  26.704   1.125  0.00  0.00    +0.209 C 
ATOM     15  C   UNL     1     -37.917  22.559   2.144  0.00  0.00    +0.337 C 
ATOM     16  C   UNL     1     -34.797  25.418   3.831  0.00  0.00    +0.205 C 
ATOM     17  C   UNL     1     -35.630  24.101   3.896  0.00  0.00    +0.042 C 
ATOM     18  C   UNL     1     -36.500  22.183   2.417  0.00  0.00    +0.049 C 
ATOM     19  C   UNL     1     -35.439  23.237   2.614  0.00  0.00    +0.036 C 
ATOM     20  C   UNL     1     -35.110  26.186   2.549  0.00  0.00    +0.344 C 
ATOM     21  C   UNL     1     -35.294  23.262   5.139  0.00  0.00    +0.003 C 
ATOM     22  C   UNL     1     -36.220  20.872   2.460  0.00  0.00    -0.024 C 
ATOM     23  C   UNL     1     -34.861  20.321   2.719  0.00  0.00    +0.031 C 
ENDROOT
BRANCH   6  24
ATOM     24  O   UNL     1     -39.160  26.278   3.306  0.00  0.00    -0.401 OA
ATOM     25  H   UNL     1     -39.833  25.835   3.847  0.00  0.00    +0.208 HD
ENDBRANCH   6  24
BRANCH  16  26
ATOM     26  O   UNL     1     -33.411  25.086   3.783  0.00  0.00    -0.375 OA
ATOM     27  H   UNL     1     -32.943  25.548   4.496  0.00  0.00    +0.211 HD
ENDBRANCH  16  26
BRANCH  16  28
ATOM     28  C   UNL     1     -35.033  26.340   5.029  0.00  0.00    +0.175 C 
BRANCH  28  29
ATOM     29  O   UNL     1     -36.423  26.576   5.144  0.00  0.00    -0.379 OA
ATOM     30  H   UNL     1     -36.716  27.143   4.414  0.00  0.00    +0.211 HD
ENDBRANCH  28  29
ENDBRANCH  16  28
TORSDOF 4
ENDMDL
MODEL 2
REMARK VINA RESULT:      -6.4      3.064      6.074
REMARK  Name = 56840859
REMARK  4 active torsions:
REMARK  status: ('A' for Active; 'I' for Inactive)
REMARK    1  A    between atoms: C_6  and  O_24
REMARK    2  A    between atoms: C_16  and  O_26
REMARK    3  A    between atoms: C_16  and  C_28
REMARK    4  A    between atoms: C_28  and  O_29
REMARK                            x       y       z     vdW  Elec       q    Type
REMARK                         _______ _______ _______ _____ _____    ______ ____
ROOT
ATOM      1  O   UNL     1     -33.496  25.490   2.337  0.00  0.00    -0.449 OA
ATOM      2  O   UNL     1     -35.495  25.248   4.575  0.00  0.00    -0.447 OA
ATOM      3  O   UNL     1     -32.775  25.643   0.153  0.00  0.00    -0.245 OA
ATOM      4  O   UNL     1     -35.975  23.135   5.356  0.00  0.00    -0.247 OA
ATOM      5  N   UNL     1     -32.462  28.540   4.226  0.00  0.00    +0.409 N 
ATOM      6  C   UNL     1     -33.542  27.410   3.909  0.00  0.00    +0.095 C 
ATOM      7  C   UNL     1     -32.945  26.778   2.636  0.00  0.00    +0.175 C 
ATOM      8  C   UNL     1     -31.182  28.131   3.450  0.00  0.00    -0.066 C 
ATOM      9  C   UNL     1     -31.458  26.735   2.922  0.00  0.00    +0.022 C 
ATOM     10  C   UNL     1     -32.278  28.442   5.749  0.00  0.00    -0.069 C 
ATOM     11  C   UNL     1     -33.580  26.572   5.178  0.00  0.00    +0.053 C 
ATOM     12  C   UNL     1     -32.909  29.929   3.819  0.00  0.00    -0.092 C 
ATOM     13  C   UNL     1     -32.903  27.163   6.172  0.00  0.00    -0.018 C 
ATOM     14  C   UNL     1     -34.277  25.261   5.329  0.00  0.00    +0.209 C 
ATOM     15  C   UNL     1     -33.397  25.074   1.041  0.00  0.00    +0.337 C 
ATOM     16  C   UNL     1     -37.144  24.008   3.402  0.00  0.00    +0.205 C 
ATOM     17  C   UNL     1     -36.402  24.297   2.061  0.00  0.00    +0.042 C 
ATOM     18  C   UNL     1     -34.190  23.829   0.832  0.00  0.00    +0.049 C 
ATOM     19  C   UNL     1     -35.178  23.353   1.867  0.00  0.00    +0.036 C 
ATOM     20  C   UNL     1     -36.167  24.059   4.575  0.00  0.00    +0.344 C 
ATOM     21  C   UNL     1     -37.337  24.188   0.845  0.00  0.00    +0.003 C 
ATOM     22  C   UNL     1     -33.968  23.154  -0.305  0.00  0.00    -0.024 C 
ATOM     23  C   UNL     1     -34.669  21.893  -0.674  0.00  0.00    +0.031 C 
ENDROOT
BRANCH   6  24
ATOM     24  O   UNL     1     -34.872  27.860   3.646  0.00  0.00    -0.401 OA
ATOM     25  H   UNL     1     -35.070  27.753   2.703  0.00  0.00    +0.208 HD
ENDBRANCH   6  24
BRANCH  16  26
ATOM     26  O   UNL     1     -37.671  22.684   3.363  0.00  0.00    -0.375 OA
ATOM     27  H   UNL     1     -37.068  22.110   2.864  0.00  0.00    +0.211 HD
ENDBRANCH  16  26
BRANCH  16  28
ATOM     28  C   UNL     1     -38.294  24.979   3.676  0.00  0.00    +0.175 C 
BRANCH  28  29
ATOM     29  O   UNL     1     -37.789  26.299   3.616  0.00  0.00    -0.379 OA
ATOM     30  H   UNL     1     -38.311  26.817   2.984  0.00  0.00    +0.211 HD
ENDBRANCH  28  29
ENDBRANCH  16  28
TORSDOF 4
ENDMDL
MODEL 3
REMARK VINA RESULT:      -6.3      2.982      6.134
REMARK  Name = 56840859
REMARK  4 active torsions:
REMARK  status: ('A' for Active; 'I' for Inactive)
REMARK    1  A    between atoms: C_6  and  O_24
REMARK    2  A    between atoms: C_16  and  O_26
REMARK    3  A    between atoms: C_16  and  C_28
REMARK    4  A    between atoms: C_28  and  O_29
REMARK                            x       y       z     vdW  Elec       q    Type
REMARK                         _______ _______ _______ _____ _____    ______ ____
ROOT
ATOM      1  O   UNL     1     -35.687  26.892   2.887  0.00  0.00    -0.449 OA
ATOM      2  O   UNL     1     -33.134  26.563   4.446  0.00  0.00    -0.447 OA
ATOM      3  O   UNL     1     -37.011  27.506   1.103  0.00  0.00    -0.245 OA
ATOM      4  O   UNL     1     -32.562  28.232   5.927  0.00  0.00    -0.247 OA
ATOM      5  N   UNL     1     -35.946  23.209   3.446  0.00  0.00    +0.409 N 
ATOM      6  C   UNL     1     -35.073  24.543   3.401  0.00  0.00    +0.095 C 
ATOM      7  C   UNL     1     -36.053  25.518   2.718  0.00  0.00    +0.175 C 
ATOM      8  C   UNL     1     -37.419  23.662   3.262  0.00  0.00    -0.066 C 
ATOM      9  C   UNL     1     -37.390  25.178   3.346  0.00  0.00    +0.022 C 
ATOM     10  C   UNL     1     -35.677  22.653   4.853  0.00  0.00    -0.069 C 
ATOM     11  C   UNL     1     -34.708  24.792   4.857  0.00  0.00    +0.053 C 
ATOM     12  C   UNL     1     -35.562  22.205   2.379  0.00  0.00    -0.092 C 
ATOM     13  C   UNL     1     -35.027  23.742   5.625  0.00  0.00    -0.018 C 
ATOM     14  C   UNL     1     -34.072  26.033   5.390  0.00  0.00    +0.209 C 
ATOM     15  C   UNL     1     -36.188  27.769   1.968  0.00  0.00    +0.337 C 
ATOM     16  C   UNL     1     -31.976  28.440   3.569  0.00  0.00    +0.205 C 
ATOM     17  C   UNL     1     -33.064  28.589   2.461  0.00  0.00    +0.042 C 
ATOM     18  C   UNL     1     -35.562  29.112   2.137  0.00  0.00    +0.049 C 
ATOM     19  C   UNL     1     -34.340  29.298   3.002  0.00  0.00    +0.036 C 
ATOM     20  C   UNL     1     -32.558  27.750   4.801  0.00  0.00    +0.344 C 
ATOM     21  C   UNL     1     -32.537  29.341   1.228  0.00  0.00    +0.003 C 
ATOM     22  C   UNL     1     -36.148  30.137   1.500  0.00  0.00    -0.024 C 
ATOM     23  C   UNL     1     -35.658  31.542   1.559  0.00  0.00    +0.031 C 
ENDROOT
BRANCH   6  24
ATOM     24  O   UNL     1     -33.856  24.480   2.655  0.00  0.00    -0.401 OA
ATOM     25  H   UNL     1     -33.501  23.578   2.689  0.00  0.00    +0.208 HD
ENDBRANCH   6  24
BRANCH  16  26
ATOM     26  O   UNL     1     -31.559  29.738   3.984  0.00  0.00    -0.375 OA
ATOM     27  H   UNL     1     -32.307  30.354   3.925  0.00  0.00    +0.211 HD
ENDBRANCH  16  26
BRANCH  16  28
ATOM     28  C   UNL     1     -30.744  27.661   3.104  0.00  0.00    +0.175 C 
BRANCH  28  29
ATOM     29  O   UNL     1     -31.168  26.400   2.625  0.00  0.00    -0.379 OA
ATOM     30  H   UNL     1     -31.086  25.741   3.332  0.00  0.00    +0.211 HD
ENDBRANCH  28  29
ENDBRANCH  16  28
TORSDOF 4
ENDMDL
MODEL 4
REMARK VINA RESULT:      -6.3      2.140      5.011
REMARK  Name = 56840859
REMARK  4 active torsions:
REMARK  status: ('A' for Active; 'I' for Inactive)
REMARK    1  A    between atoms: C_6  and  O_24
REMARK    2  A    between atoms: C_16  and  O_26
REMARK    3  A    between atoms: C_16  and  C_28
REMARK    4  A    between atoms: C_28  and  O_29
REMARK                            x       y       z     vdW  Elec       q    Type
REMARK                         _______ _______ _______ _____ _____    ______ ____
ROOT
ATOM      1  O   UNL     1     -35.440  25.271   3.037  0.00  0.00    -0.449 OA
ATOM      2  O   UNL     1     -37.576  24.369   1.118  0.00  0.00    -0.447 OA
ATOM      3  O   UNL     1     -33.538  25.082   4.326  0.00  0.00    -0.245 OA
ATOM      4  O   UNL     1     -39.515  23.500   2.008  0.00  0.00    -0.247 OA
ATOM      5  N   UNL     1     -34.996  27.995   0.522  0.00  0.00    +0.409 N 
ATOM      6  C   UNL     1     -35.539  26.547   0.911  0.00  0.00    +0.095 C 
ATOM      7  C   UNL     1     -34.844  26.323   2.268  0.00  0.00    +0.175 C 
ATOM      8  C   UNL     1     -34.487  28.624   1.846  0.00  0.00    -0.066 C 
ATOM      9  C   UNL     1     -34.935  27.676   2.943  0.00  0.00    +0.022 C 
ATOM     10  C   UNL     1     -36.242  28.710  -0.023  0.00  0.00    -0.069 C 
ATOM     11  C   UNL     1     -37.052  26.706   0.895  0.00  0.00    +0.053 C 
ATOM     12  C   UNL     1     -33.889  27.963  -0.511  0.00  0.00    -0.092 C 
ATOM     13  C   UNL     1     -37.412  27.882   0.363  0.00  0.00    -0.018 C 
ATOM     14  C   UNL     1     -38.034  25.699   1.393  0.00  0.00    +0.209 C 
ATOM     15  C   UNL     1     -34.650  24.696   3.991  0.00  0.00    +0.337 C 
ATOM     16  C   UNL     1     -37.569  22.065   1.687  0.00  0.00    +0.205 C 
ATOM     17  C   UNL     1     -36.252  22.273   2.496  0.00  0.00    +0.042 C 
ATOM     18  C   UNL     1     -35.318  23.491   4.561  0.00  0.00    +0.049 C 
ATOM     19  C   UNL     1     -36.531  22.887   3.899  0.00  0.00    +0.036 C 
ATOM     20  C   UNL     1     -38.363  23.368   1.613  0.00  0.00    +0.344 C 
ATOM     21  C   UNL     1     -35.455  20.967   2.652  0.00  0.00    +0.003 C 
ATOM     22  C   UNL     1     -34.797  22.988   5.690  0.00  0.00    -0.024 C 
ATOM     23  C   UNL     1     -35.337  21.792   6.394  0.00  0.00    +0.031 C 
ENDROOT
BRANCH   6  24
ATOM     24  O   UNL     1     -35.206  25.483   0.017  0.00  0.00    -0.401 OA
ATOM     25  H   UNL     1     -35.999  24.957  -0.170  0.00  0.00    +0.208 HD
ENDBRANCH   6  24
BRANCH  16  26
ATOM     26  O   UNL     1     -38.389  21.123   2.372  0.00  0.00    -0.375 OA
ATOM     27  H   UNL     1     -39.133  20.866   1.804  0.00  0.00    +0.211 HD
ENDBRANCH  16  26
BRANCH  16  28
ATOM     28  C   UNL     1     -37.329  21.554   0.265  0.00  0.00    +0.175 C 
BRANCH  28  29
ATOM     29  O   UNL     1     -38.319  22.104  -0.581  0.00  0.00    -0.379 OA
ATOM     30  H   UNL     1     -37.894  22.545  -1.334  0.00  0.00    +0.211 HD
ENDBRANCH  28  29
ENDBRANCH  16  28
TORSDOF 4
ENDMDL
MODEL 5
REMARK VINA RESULT:      -6.1      2.744      5.735
REMARK  Name = 56840859
REMARK  4 active torsions:
REMARK  status: ('A' for Active; 'I' for Inactive)
REMARK    1  A    between atoms: C_6  and  O_24
REMARK    2  A    between atoms: C_16  and  O_26
REMARK    3  A    between atoms: C_16  and  C_28
REMARK    4  A    between atoms: C_28  and  O_29
REMARK                            x       y       z     vdW  Elec       q    Type
REMARK                         _______ _______ _______ _____ _____    ______ ____
ROOT
ATOM      1  O   UNL     1     -37.397  22.531   1.099  0.00  0.00    -0.449 OA
ATOM      2  O   UNL     1     -35.348  22.795   3.288  0.00  0.00    -0.447 OA
ATOM      3  O   UNL     1     -38.852  23.258  -0.534  0.00  0.00    -0.245 OA
ATOM      4  O   UNL     1     -36.110  22.883   5.461  0.00  0.00    -0.247 OA
ATOM      5  N   UNL     1     -34.797  20.320  -0.417  0.00  0.00    +0.409 N 
ATOM      6  C   UNL     1     -35.209  21.463   0.617  0.00  0.00    +0.095 C 
ATOM      7  C   UNL     1     -36.630  21.807   0.130  0.00  0.00    +0.175 C 
ATOM      8  C   UNL     1     -36.127  19.803  -1.026  0.00  0.00    -0.066 C 
ATOM      9  C   UNL     1     -37.228  20.456  -0.210  0.00  0.00    +0.022 C 
ATOM     10  C   UNL     1     -34.113  19.267   0.469  0.00  0.00    -0.069 C 
ATOM     11  C   UNL     1     -35.055  20.801   1.977  0.00  0.00    +0.053 C 
ATOM     12  C   UNL     1     -33.866  20.805  -1.508  0.00  0.00    -0.092 C 
ATOM     13  C   UNL     1     -34.437  19.616   1.875  0.00  0.00    -0.018 C 
ATOM     14  C   UNL     1     -35.517  21.372   3.276  0.00  0.00    +0.209 C 
ATOM     15  C   UNL     1     -38.442  23.266   0.619  0.00  0.00    +0.337 C 
ATOM     16  C   UNL     1     -36.029  24.914   4.113  0.00  0.00    +0.205 C 
ATOM     17  C   UNL     1     -36.937  25.106   2.859  0.00  0.00    +0.042 C 
ATOM     18  C   UNL     1     -39.012  24.125   1.695  0.00  0.00    +0.049 C 
ATOM     19  C   UNL     1     -38.279  24.328   2.998  0.00  0.00    +0.036 C 
ATOM     20  C   UNL     1     -35.823  23.428   4.402  0.00  0.00    +0.344 C 
ATOM     21  C   UNL     1     -37.225  26.589   2.574  0.00  0.00    +0.003 C 
ATOM     22  C   UNL     1     -40.205  24.688   1.453  0.00  0.00    -0.024 C 
ATOM     23  C   UNL     1     -40.918  25.572   2.416  0.00  0.00    +0.031 C 
ENDROOT
BRANCH   6  24
ATOM     24  O   UNL     1     -34.401  22.641   0.615  0.00  0.00    -0.401 OA
ATOM     25  H   UNL     1     -34.965  23.422   0.726  0.00  0.00    +0.208 HD
ENDBRANCH   6  24
BRANCH  16  26
ATOM     26  O   UNL     1     -36.687  25.466   5.250  0.00  0.00    -0.375 OA
ATOM     27  H   UNL     1     -37.192  26.251   4.983  0.00  0.00    +0.211 HD
ENDBRANCH  16  26
BRANCH  16  28
ATOM     28  C   UNL     1     -34.660  25.583   3.974  0.00  0.00    +0.175 C 
BRANCH  28  29
ATOM     29  O   UNL     1     -33.692  24.750   4.581  0.00  0.00    -0.379 OA
ATOM     30  H   UNL     1     -33.290  24.177   3.909  0.00  0.00    +0.211 HD
ENDBRANCH  28  29
ENDBRANCH  16  28
TORSDOF 4
ENDMDL
MODEL 6
REMARK VINA RESULT:      -5.9      3.721      6.447
REMARK  Name = 56840859
REMARK  4 active torsions:
REMARK  status: ('A' for Active; 'I' for Inactive)
REMARK    1  A    between atoms: C_6  and  O_24
REMARK    2  A    between atoms: C_16  and  O_26
REMARK    3  A    between atoms: C_16  and  C_28
REMARK    4  A    between atoms: C_28  and  O_29
REMARK                            x       y       z     vdW  Elec       q    Type
REMARK                         _______ _______ _______ _____ _____    ______ ____
ROOT
ATOM      1  O   UNL     1     -34.472  22.555   0.663  0.00  0.00    -0.449 OA
ATOM      2  O   UNL     1     -36.545  21.751   2.691  0.00  0.00    -0.447 OA
ATOM      3  O   UNL     1     -32.504  23.487  -0.095  0.00  0.00    -0.245 OA
ATOM      4  O   UNL     1     -38.296  23.201   3.063  0.00  0.00    -0.247 OA
ATOM      5  N   UNL     1     -34.539  18.911  -0.150  0.00  0.00    +0.409 N 
ATOM      6  C   UNL     1     -34.851  20.110   0.855  0.00  0.00    +0.095 C 
ATOM      7  C   UNL     1     -34.069  21.262   0.195  0.00  0.00    +0.175 C 
ATOM      8  C   UNL     1     -34.063  19.577  -1.468  0.00  0.00    -0.066 C 
ATOM      9  C   UNL     1     -34.320  21.062  -1.286  0.00  0.00    +0.022 C 
ATOM     10  C   UNL     1     -35.899  18.212  -0.306  0.00  0.00    -0.069 C 
ATOM     11  C   UNL     1     -36.371  20.189   0.871  0.00  0.00    +0.053 C 
ATOM     12  C   UNL     1     -33.489  17.951   0.370  0.00  0.00    -0.092 C 
ATOM     13  C   UNL     1     -36.919  19.135   0.252  0.00  0.00    -0.018 C 
ATOM     14  C   UNL     1     -37.175  21.282   1.493  0.00  0.00    +0.209 C 
ATOM     15  C   UNL     1     -33.564  23.564   0.511  0.00  0.00    +0.337 C 
ATOM     16  C   UNL     1     -36.182  23.513   4.238  0.00  0.00    +0.205 C 
ATOM     17  C   UNL     1     -34.872  23.900   3.486  0.00  0.00    +0.042 C 
ATOM     18  C   UNL     1     -34.025  24.789   1.224  0.00  0.00    +0.049 C 
ATOM     19  C   UNL     1     -35.170  24.734   2.205  0.00  0.00    +0.036 C 
ATOM     20  C   UNL     1     -37.157  22.815   3.292  0.00  0.00    +0.344 C 
ATOM     21  C   UNL     1     -33.891  24.668   4.387  0.00  0.00    +0.003 C 
ATOM     22  C   UNL     1     -33.386  25.932   0.938  0.00  0.00    -0.024 C 
ATOM     23  C   UNL     1     -33.716  27.247   1.556  0.00  0.00    +0.031 C 
ENDROOT
BRANCH   6  24
ATOM     24  O   UNL     1     -34.412  19.939   2.203  0.00  0.00    -0.401 OA
ATOM     25  H   UNL     1     -35.084  19.448   2.703  0.00  0.00    +0.208 HD
ENDBRANCH   6  24
BRANCH  16  26
ATOM     26  O   UNL     1     -36.827  24.704   4.685  0.00  0.00    -0.375 OA
ATOM     27  H   UNL     1     -37.592  24.890   4.119  0.00  0.00    +0.211 HD
ENDBRANCH  16  26
BRANCH  16  28
ATOM     28  C   UNL     1     -35.938  22.611   5.450  0.00  0.00    +0.175 C 
BRANCH  28  29
ATOM     29  O   UNL     1     -35.300  21.430   5.005  0.00  0.00    -0.379 OA
ATOM     30  H   UNL     1     -34.344  21.579   4.951  0.00  0.00    +0.211 HD
ENDBRANCH  28  29
ENDBRANCH  16  28
TORSDOF 4
ENDMDL
MODEL 7
REMARK VINA RESULT:      -5.8      3.042      4.629
REMARK  Name = 56840859
REMARK  4 active torsions:
REMARK  status: ('A' for Active; 'I' for Inactive)
REMARK    1  A    between atoms: C_6  and  O_24
REMARK    2  A    between atoms: C_16  and  O_26
REMARK    3  A    between atoms: C_16  and  C_28
REMARK    4  A    between atoms: C_28  and  O_29
REMARK                            x       y       z     vdW  Elec       q    Type
REMARK                         _______ _______ _______ _____ _____    ______ ____
ROOT
ATOM      1  O   UNL     1     -36.270  27.427   1.716  0.00  0.00    -0.449 OA
ATOM      2  O   UNL     1     -33.588  27.614   3.070  0.00  0.00    -0.447 OA
ATOM      3  O   UNL     1     -38.526  26.989   1.545  0.00  0.00    -0.245 OA
ATOM      4  O   UNL     1     -32.170  25.807   2.888  0.00  0.00    -0.247 OA
ATOM      5  N   UNL     1     -35.624  31.033   0.991  0.00  0.00    +0.409 N 
ATOM      6  C   UNL     1     -35.318  29.716   1.838  0.00  0.00    +0.095 C 
ATOM      7  C   UNL     1     -36.489  28.810   1.411  0.00  0.00    +0.175 C 
ATOM      8  C   UNL     1     -36.585  30.591  -0.145  0.00  0.00    -0.066 C 
ATOM      9  C   UNL     1     -36.624  29.075  -0.075  0.00  0.00    +0.022 C 
ATOM     10  C   UNL     1     -34.243  31.446   0.460  0.00  0.00    -0.069 C 
ATOM     11  C   UNL     1     -33.912  29.324   1.411  0.00  0.00    +0.053 C 
ATOM     12  C   UNL     1     -36.248  32.143   1.813  0.00  0.00    -0.092 C 
ATOM     13  C   UNL     1     -33.338  30.289   0.679  0.00  0.00    -0.018 C 
ATOM     14  C   UNL     1     -33.230  28.040   1.750  0.00  0.00    +0.209 C 
ATOM     15  C   UNL     1     -37.384  26.644   1.815  0.00  0.00    +0.337 C 
ATOM     16  C   UNL     1     -33.886  25.843   4.621  0.00  0.00    +0.205 C 
ATOM     17  C   UNL     1     -35.406  25.800   4.275  0.00  0.00    +0.042 C 
ATOM     18  C   UNL     1     -37.026  25.296   2.340  0.00  0.00    +0.049 C 
ATOM     19  C   UNL     1     -35.670  25.031   2.946  0.00  0.00    +0.036 C 
ATOM     20  C   UNL     1     -33.085  26.401   3.446  0.00  0.00    +0.344 C 
ATOM     21  C   UNL     1     -36.242  25.179   5.406  0.00  0.00    +0.003 C 
ATOM     22  C   UNL     1     -37.957  24.337   2.229  0.00  0.00    -0.024 C 
ATOM     23  C   UNL     1     -37.768  22.936   2.699  0.00  0.00    +0.031 C 
ENDROOT
BRANCH   6  24
ATOM     24  O   UNL     1     -35.314  29.862   3.259  0.00  0.00    -0.401 OA
ATOM     25  H   UNL     1     -34.455  30.211   3.546  0.00  0.00    +0.208 HD
ENDBRANCH   6  24
BRANCH  16  26
ATOM     26  O   UNL     1     -33.423  24.512   4.838  0.00  0.00    -0.375 OA
ATOM     27  H   UNL     1     -32.845  24.493   5.617  0.00  0.00    +0.211 HD
ENDBRANCH  16  26
BRANCH  16  28
ATOM     28  C   UNL     1     -33.575  26.673   5.868  0.00  0.00    +0.175 C 
BRANCH  28  29
ATOM     29  O   UNL     1     -32.333  27.321   5.676  0.00  0.00    -0.379 OA
ATOM     30  H   UNL     1     -31.633  26.817   6.119  0.00  0.00    +0.211 HD
ENDBRANCH  28  29
ENDBRANCH  16  28
TORSDOF 4
ENDMDL
MODEL 8
REMARK VINA RESULT:      -5.8      2.993      5.815
REMARK  Name = 56840859
REMARK  4 active torsions:
REMARK  status: ('A' for Active; 'I' for Inactive)
REMARK    1  A    between atoms: C_6  and  O_24
REMARK    2  A    between atoms: C_16  and  O_26
REMARK    3  A    between atoms: C_16  and  C_28
REMARK    4  A    between atoms: C_28  and  O_29
REMARK                            x       y       z     vdW  Elec       q    Type
REMARK                         _______ _______ _______ _____ _____    ______ ____
ROOT
ATOM      1  O   UNL     1     -33.474  24.922   1.644  0.00  0.00    -0.449 OA
ATOM      2  O   UNL     1     -35.534  25.130   3.829  0.00  0.00    -0.447 OA
ATOM      3  O   UNL     1     -32.690  24.606  -0.500  0.00  0.00    -0.245 OA
ATOM      4  O   UNL     1     -35.995  23.230   5.048  0.00  0.00    -0.247 OA
ATOM      5  N   UNL     1     -32.558  28.341   2.834  0.00  0.00    +0.409 N 
ATOM      6  C   UNL     1     -33.605  27.141   2.749  0.00  0.00    +0.095 C 
ATOM      7  C   UNL     1     -32.958  26.258   1.663  0.00  0.00    +0.175 C 
ATOM      8  C   UNL     1     -31.247  27.804   2.201  0.00  0.00    -0.066 C 
ATOM      9  C   UNL     1     -31.479  26.319   1.989  0.00  0.00    +0.022 C 
ATOM     10  C   UNL     1     -32.419  28.587   4.345  0.00  0.00    -0.069 C 
ATOM     11  C   UNL     1     -33.665  26.604   4.171  0.00  0.00    +0.053 C 
ATOM     12  C   UNL     1     -33.021  29.593   2.118  0.00  0.00    -0.092 C 
ATOM     13  C   UNL     1     -33.031  27.418   5.025  0.00  0.00    -0.018 C 
ATOM     14  C   UNL     1     -34.340  25.341   4.592  0.00  0.00    +0.209 C 
ATOM     15  C   UNL     1     -33.327  24.232   0.476  0.00  0.00    +0.337 C 
ATOM     16  C   UNL     1     -37.122  23.618   2.920  0.00  0.00    +0.205 C 
ATOM     17  C   UNL     1     -36.346  23.622   1.567  0.00  0.00    +0.042 C 
ATOM     18  C   UNL     1     -34.088  22.952   0.529  0.00  0.00    +0.049 C 
ATOM     19  C   UNL     1     -35.098  22.691   1.619  0.00  0.00    +0.036 C 
ATOM     20  C   UNL     1     -36.182  23.953   4.077  0.00  0.00    +0.344 C 
ATOM     21  C   UNL     1     -37.241  23.222   0.383  0.00  0.00    +0.003 C 
ATOM     22  C   UNL     1     -33.818  22.047  -0.424  0.00  0.00    -0.024 C 
ATOM     23  C   UNL     1     -34.483  20.718  -0.521  0.00  0.00    +0.031 C 
ENDROOT
BRANCH   6  24
ATOM     24  O   UNL     1     -34.936  27.486   2.360  0.00  0.00    -0.401 OA
ATOM     25  H   UNL     1     -35.171  28.347   2.740  0.00  0.00    +0.208 HD
ENDBRANCH   6  24
BRANCH  16  26
ATOM     26  O   UNL     1     -37.621  22.305   3.163  0.00  0.00    -0.375 OA
ATOM     27  H   UNL     1     -37.174  21.927   3.937  0.00  0.00    +0.211 HD
ENDBRANCH  16  26
BRANCH  16  28
ATOM     28  C   UNL     1     -38.299  24.595   2.942  0.00  0.00    +0.175 C 
BRANCH  28  29
ATOM     29  O   UNL     1     -38.488  25.037   4.272  0.00  0.00    -0.379 OA
ATOM     30  H   UNL     1     -39.423  25.250   4.413  0.00  0.00    +0.211 HD
ENDBRANCH  28  29
ENDBRANCH  16  28
TORSDOF 4
ENDMDL
MODEL 9
REMARK VINA RESULT:      -5.6      3.138      5.809
REMARK  Name = 56840859
REMARK  4 active torsions:
REMARK  status: ('A' for Active; 'I' for Inactive)
REMARK    1  A    between atoms: C_6  and  O_24
REMARK    2  A    between atoms: C_16  and  O_26
REMARK    3  A    between atoms: C_16  and  C_28
REMARK    4  A    between atoms: C_28  and  O_29
REMARK                            x       y       z     vdW  Elec       q    Type
REMARK                         _______ _______ _______ _____ _____    ______ ____
ROOT
ATOM      1  O   UNL     1     -33.660  23.775   1.068  0.00  0.00    -0.449 OA
ATOM      2  O   UNL     1     -35.842  22.409   2.628  0.00  0.00    -0.447 OA
ATOM      3  O   UNL     1     -32.455  24.371  -0.804  0.00  0.00    -0.245 OA
ATOM      4  O   UNL     1     -35.372  20.348   3.544  0.00  0.00    -0.247 OA
ATOM      5  N   UNL     1     -35.062  26.830   2.694  0.00  0.00    +0.409 N 
ATOM      6  C   UNL     1     -35.217  25.307   2.247  0.00  0.00    +0.095 C 
ATOM      7  C   UNL     1     -33.999  25.144   1.317  0.00  0.00    +0.175 C 
ATOM      8  C   UNL     1     -33.587  27.209   2.400  0.00  0.00    -0.066 C 
ATOM      9  C   UNL     1     -32.900  25.906   2.031  0.00  0.00    +0.022 C 
ATOM     10  C   UNL     1     -35.367  26.794   4.200  0.00  0.00    -0.069 C 
ATOM     11  C   UNL     1     -35.227  24.539   3.561  0.00  0.00    +0.053 C 
ATOM     12  C   UNL     1     -36.006  27.766   1.968  0.00  0.00    -0.092 C 
ATOM     13  C   UNL     1     -35.330  25.367   4.608  0.00  0.00    -0.018 C 
ATOM     14  C   UNL     1     -35.139  23.055   3.697  0.00  0.00    +0.209 C 
ATOM     15  C   UNL     1     -32.939  23.526  -0.063  0.00  0.00    +0.337 C 
ATOM     16  C   UNL     1     -36.105  20.514   1.224  0.00  0.00    +0.205 C 
ATOM     17  C   UNL     1     -35.231  21.206   0.133  0.00  0.00    +0.042 C 
ATOM     18  C   UNL     1     -32.843  22.058  -0.306  0.00  0.00    +0.049 C 
ATOM     19  C   UNL     1     -33.712  21.085   0.453  0.00  0.00    +0.036 C 
ATOM     20  C   UNL     1     -35.749  21.046   2.611  0.00  0.00    +0.344 C 
ATOM     21  C   UNL     1     -35.510  20.649  -1.273  0.00  0.00    +0.003 C 
ATOM     22  C   UNL     1     -31.941  21.651  -1.211  0.00  0.00    -0.024 C 
ATOM     23  C   UNL     1     -31.712  20.226  -1.575  0.00  0.00    +0.031 C 
ENDROOT
BRANCH   6  24
ATOM     24  O   UNL     1     -36.412  24.971   1.541  0.00  0.00    -0.401 OA
ATOM     25  H   UNL     1     -36.631  25.681   0.918  0.00  0.00    +0.208 HD
ENDBRANCH   6  24
BRANCH  16  26
ATOM     26  O   UNL     1     -35.815  19.119   1.233  0.00  0.00    -0.375 OA
ATOM     27  H   UNL     1     -36.118  18.720   0.402  0.00  0.00    +0.211 HD
ENDBRANCH  16  26
BRANCH  16  28
ATOM     28  C   UNL     1     -37.607  20.695   0.997  0.00  0.00    +0.175 C 
BRANCH  28  29
ATOM     29  O   UNL     1     -38.226  20.906   2.251  0.00  0.00    -0.379 OA
ATOM     30  H   UNL     1     -38.651  21.778   2.259  0.00  0.00    +0.211 HD
ENDBRANCH  28  29
ENDBRANCH  16  28
TORSDOF 4
ENDMDL
