MODEL 1
REMARK VINA RESULT:      -6.6      0.000      0.000
REMARK  Name = 5487704
REMARK  2 active torsions:
REMARK  status: ('A' for Active; 'I' for Inactive)
REMARK    1  A    between atoms: C_13  and  C_21
REMARK    2  A    between atoms: C_21  and  O_22
REMARK                            x       y       z     vdW  Elec       q    Type
REMARK                         _______ _______ _______ _____ _____    ______ ____
ROOT
ATOM      1  O   UNL     1     -32.306  28.664   6.006  0.00  0.00    -0.264 OA
ATOM      2  O   UNL     1     -31.852  30.063   1.626  0.00  0.00    -0.247 OA
ATOM      3  N   UNL     1     -33.474  26.353   5.230  0.00  0.00    -0.390 NA
ATOM      4  N   UNL     1     -33.829  25.922   2.504  0.00  0.00    -0.379 NA
ATOM      5  N   UNL     1     -32.824  28.025   2.049  0.00  0.00    -0.280 N 
ATOM      6  N   UNL     1     -32.070  29.379   3.815  0.00  0.00    -0.272 N 
ATOM      7  C   UNL     1     -34.051  25.225   4.784  0.00  0.00    +0.161 C 
ATOM      8  C   UNL     1     -34.230  25.005   3.406  0.00  0.00    +0.163 C 
ATOM      9  C   UNL     1     -35.079  23.075   5.251  0.00  0.00    -0.013 C 
ATOM     10  C   UNL     1     -33.084  27.251   4.306  0.00  0.00    +0.233 A 
ATOM     11  C   UNL     1     -33.253  27.049   2.960  0.00  0.00    +0.230 A 
ATOM     12  C   UNL     1     -34.479  24.254   5.687  0.00  0.00    +0.031 C 
ATOM     13  C   UNL     1     -35.257  22.858   3.893  0.00  0.00    +0.074 C 
ATOM     14  C   UNL     1     -34.831  23.823   2.982  0.00  0.00    +0.041 C 
ATOM     15  C   UNL     1     -32.456  28.481   4.804  0.00  0.00    +0.295 A 
ATOM     16  C   UNL     1     -35.517  22.067   6.262  0.00  0.00    +0.031 C 
ATOM     17  C   UNL     1     -32.224  29.213   2.437  0.00  0.00    +0.329 A 
ATOM     18  H   UNL     1     -32.955  27.859   1.087  0.00  0.00    +0.173 HD
ATOM     19  H   UNL     1     -31.645  30.214   4.116  0.00  0.00    +0.174 HD
ENDROOT
BRANCH  13  21
ATOM     20  O   UNL     1     -35.309  20.552   3.258  0.00  0.00    -0.245 OA
ATOM     21  C   UNL     1     -35.877  21.639   3.394  0.00  0.00    +0.338 C 
BRANCH  21  22
ATOM     22  O   UNL     1     -37.191  21.816   3.084  0.00  0.00    -0.477 OA
ATOM     23  H   UNL     1     -37.652  22.565   3.407  0.00  0.00    +0.295 HD
ENDBRANCH  21  22
ENDBRANCH  13  21
TORSDOF 2
ENDMDL
MODEL 2
REMARK VINA RESULT:      -6.5      1.580      2.573
REMARK  Name = 5487704
REMARK  2 active torsions:
REMARK  status: ('A' for Active; 'I' for Inactive)
REMARK    1  A    between atoms: C_13  and  C_21
REMARK    2  A    between atoms: C_21  and  O_22
REMARK                            x       y       z     vdW  Elec       q    Type
REMARK                         _______ _______ _______ _____ _____    ______ ____
ROOT
ATOM      1  O   UNL     1     -34.607  29.398   1.986  0.00  0.00    -0.264 OA
ATOM      2  O   UNL     1     -31.349  30.421   5.098  0.00  0.00    -0.247 OA
ATOM      3  N   UNL     1     -34.930  26.921   3.021  0.00  0.00    -0.390 NA
ATOM      4  N   UNL     1     -33.359  26.205   5.204  0.00  0.00    -0.379 NA
ATOM      5  N   UNL     1     -32.333  28.346   5.158  0.00  0.00    -0.280 N 
ATOM      6  N   UNL     1     -32.973  29.926   3.541  0.00  0.00    -0.272 N 
ATOM      7  C   UNL     1     -35.044  25.704   3.577  0.00  0.00    +0.161 C 
ATOM      8  C   UNL     1     -34.250  25.341   4.681  0.00  0.00    +0.163 C 
ATOM      9  C   UNL     1     -36.094  23.515   3.623  0.00  0.00    -0.013 C 
ATOM     10  C   UNL     1     -34.031  27.764   3.564  0.00  0.00    +0.233 A 
ATOM     11  C   UNL     1     -33.252  27.422   4.640  0.00  0.00    +0.230 A 
ATOM     12  C   UNL     1     -35.955  24.784   3.064  0.00  0.00    +0.031 C 
ATOM     13  C   UNL     1     -35.311  23.155   4.710  0.00  0.00    +0.074 C 
ATOM     14  C   UNL     1     -34.398  24.070   5.231  0.00  0.00    +0.041 C 
ATOM     15  C   UNL     1     -33.913  29.091   2.948  0.00  0.00    +0.295 A 
ATOM     16  C   UNL     1     -37.087  22.567   3.034  0.00  0.00    +0.031 C 
ATOM     17  C   UNL     1     -32.160  29.618   4.634  0.00  0.00    +0.329 A 
ATOM     18  H   UNL     1     -31.784  28.079   5.930  0.00  0.00    +0.173 HD
ATOM     19  H   UNL     1     -32.870  30.825   3.151  0.00  0.00    +0.174 HD
ENDROOT
BRANCH  13  21
ATOM     20  O   UNL     1     -34.943  20.798   4.876  0.00  0.00    -0.245 OA
ATOM     21  C   UNL     1     -35.425  21.841   5.325  0.00  0.00    +0.338 C 
BRANCH  21  22
ATOM     22  O   UNL     1     -36.136  21.871   6.485  0.00  0.00    -0.477 OA
ATOM     23  H   UNL     1     -36.264  21.084   6.977  0.00  0.00    +0.295 HD
ENDBRANCH  21  22
ENDBRANCH  13  21
TORSDOF 2
ENDMDL
MODEL 3
REMARK VINA RESULT:      -6.2      1.293      2.900
REMARK  Name = 5487704
REMARK  2 active torsions:
REMARK  status: ('A' for Active; 'I' for Inactive)
REMARK    1  A    between atoms: C_13  and  C_21
REMARK    2  A    between atoms: C_21  and  O_22
REMARK                            x       y       z     vdW  Elec       q    Type
REMARK                         _______ _______ _______ _____ _____    ______ ____
ROOT
ATOM      1  O   UNL     1     -31.546  29.241   2.862  0.00  0.00    -0.264 OA
ATOM      2  O   UNL     1     -31.490  29.745   7.454  0.00  0.00    -0.247 OA
ATOM      3  N   UNL     1     -32.941  26.934   3.052  0.00  0.00    -0.390 NA
ATOM      4  N   UNL     1     -33.620  26.026   5.594  0.00  0.00    -0.379 NA
ATOM      5  N   UNL     1     -32.541  27.915   6.548  0.00  0.00    -0.280 N 
ATOM      6  N   UNL     1     -31.511  29.508   5.163  0.00  0.00    -0.272 N 
ATOM      7  C   UNL     1     -33.632  25.793   3.211  0.00  0.00    +0.161 C 
ATOM      8  C   UNL     1     -33.976  25.333   4.495  0.00  0.00    +0.163 C 
ATOM      9  C   UNL     1     -34.735  23.862   2.234  0.00  0.00    -0.013 C 
ATOM     10  C   UNL     1     -32.598  27.605   4.168  0.00  0.00    +0.233 A 
ATOM     11  C   UNL     1     -32.928  27.168   5.426  0.00  0.00    +0.230 A 
ATOM     12  C   UNL     1     -34.017  25.049   2.098  0.00  0.00    +0.031 C 
ATOM     13  C   UNL     1     -35.075  23.408   3.500  0.00  0.00    +0.074 C 
ATOM     14  C   UNL     1     -34.694  24.146   4.619  0.00  0.00    +0.041 C 
ATOM     15  C   UNL     1     -31.843  28.850   3.985  0.00  0.00    +0.295 A 
ATOM     16  C   UNL     1     -35.124  23.104   1.007  0.00  0.00    +0.031 C 
ATOM     17  C   UNL     1     -31.825  29.099   6.460  0.00  0.00    +0.329 A 
ATOM     18  H   UNL     1     -32.788  27.582   7.440  0.00  0.00    +0.173 HD
ATOM     19  H   UNL     1     -31.003  30.348   5.074  0.00  0.00    +0.174 HD
ENDROOT
BRANCH  13  21
ATOM     20  O   UNL     1     -35.331  21.059   3.867  0.00  0.00    -0.245 OA
ATOM     21  C   UNL     1     -35.825  22.175   3.687  0.00  0.00    +0.338 C 
BRANCH  21  22
ATOM     22  O   UNL     1     -37.170  22.376   3.646  0.00  0.00    -0.477 OA
ATOM     23  H   UNL     1     -37.580  22.646   2.848  0.00  0.00    +0.295 HD
ENDBRANCH  21  22
ENDBRANCH  13  21
TORSDOF 2
ENDMDL
MODEL 4
REMARK VINA RESULT:      -6.1      1.858      2.192
REMARK  Name = 5487704
REMARK  2 active torsions:
REMARK  status: ('A' for Active; 'I' for Inactive)
REMARK    1  A    between atoms: C_13  and  C_21
REMARK    2  A    between atoms: C_21  and  O_22
REMARK                            x       y       z     vdW  Elec       q    Type
REMARK                         _______ _______ _______ _____ _____    ______ ____
ROOT
ATOM      1  O   UNL     1     -30.607  28.551   6.483  0.00  0.00    -0.264 OA
ATOM      2  O   UNL     1     -31.442  31.937   3.453  0.00  0.00    -0.247 OA
ATOM      3  N   UNL     1     -32.718  27.120   5.586  0.00  0.00    -0.390 NA
ATOM      4  N   UNL     1     -34.238  28.194   3.517  0.00  0.00    -0.379 NA
ATOM      5  N   UNL     1     -32.821  30.100   3.477  0.00  0.00    -0.280 N 
ATOM      6  N   UNL     1     -31.012  30.256   4.968  0.00  0.00    -0.272 N 
ATOM      7  C   UNL     1     -33.780  26.456   5.099  0.00  0.00    +0.161 C 
ATOM      8  C   UNL     1     -34.549  26.998   4.053  0.00  0.00    +0.163 C 
ATOM      9  C   UNL     1     -35.228  24.507   5.142  0.00  0.00    -0.013 C 
ATOM     10  C   UNL     1     -32.431  28.312   5.031  0.00  0.00    +0.233 A 
ATOM     11  C   UNL     1     -33.172  28.852   4.011  0.00  0.00    +0.230 A 
ATOM     12  C   UNL     1     -34.132  25.217   5.628  0.00  0.00    +0.031 C 
ATOM     13  C   UNL     1     -35.987  25.041   4.111  0.00  0.00    +0.074 C 
ATOM     14  C   UNL     1     -35.642  26.280   3.574  0.00  0.00    +0.041 C 
ATOM     15  C   UNL     1     -31.270  29.030   5.570  0.00  0.00    +0.295 A 
ATOM     16  C   UNL     1     -35.561  23.182   5.744  0.00  0.00    +0.031 C 
ATOM     17  C   UNL     1     -31.741  30.841   3.930  0.00  0.00    +0.329 A 
ATOM     18  H   UNL     1     -33.367  30.467   2.745  0.00  0.00    +0.173 HD
ATOM     19  H   UNL     1     -30.239  30.763   5.308  0.00  0.00    +0.174 HD
ENDROOT
BRANCH  13  21
ATOM     20  O   UNL     1     -37.096  23.448   2.712  0.00  0.00    -0.245 OA
ATOM     21  C   UNL     1     -37.139  24.333   3.571  0.00  0.00    +0.338 C 
BRANCH  21  22
ATOM     22  O   UNL     1     -38.310  24.751   4.125  0.00  0.00    -0.477 OA
ATOM     23  H   UNL     1     -39.114  24.649   3.653  0.00  0.00    +0.295 HD
ENDBRANCH  21  22
ENDBRANCH  13  21
TORSDOF 2
ENDMDL
MODEL 5
REMARK VINA RESULT:      -6.0      4.772      6.218
REMARK  Name = 5487704
REMARK  2 active torsions:
REMARK  status: ('A' for Active; 'I' for Inactive)
REMARK    1  A    between atoms: C_13  and  C_21
REMARK    2  A    between atoms: C_21  and  O_22
REMARK                            x       y       z     vdW  Elec       q    Type
REMARK                         _______ _______ _______ _____ _____    ______ ____
ROOT
ATOM      1  O   UNL     1     -36.051  24.499   4.853  0.00  0.00    -0.264 OA
ATOM      2  O   UNL     1     -40.322  25.401   3.339  0.00  0.00    -0.247 OA
ATOM      3  N   UNL     1     -35.814  22.396   3.171  0.00  0.00    -0.390 NA
ATOM      4  N   UNL     1     -37.967  21.805   1.510  0.00  0.00    -0.379 NA
ATOM      5  N   UNL     1     -39.170  23.632   2.433  0.00  0.00    -0.280 N 
ATOM      6  N   UNL     1     -38.193  24.965   4.103  0.00  0.00    -0.272 N 
ATOM      7  C   UNL     1     -35.756  21.362   2.315  0.00  0.00    +0.161 C 
ATOM      8  C   UNL     1     -36.844  21.062   1.475  0.00  0.00    +0.163 C 
ATOM      9  C   UNL     1     -34.524  19.494   1.372  0.00  0.00    -0.013 C 
ATOM     10  C   UNL     1     -36.949  23.120   3.185  0.00  0.00    +0.233 A 
ATOM     11  C   UNL     1     -38.016  22.839   2.370  0.00  0.00    +0.230 A 
ATOM     12  C   UNL     1     -34.611  20.572   2.251  0.00  0.00    +0.031 C 
ATOM     13  C   UNL     1     -35.596  19.197   0.544  0.00  0.00    +0.074 C 
ATOM     14  C   UNL     1     -36.746  19.983   0.600  0.00  0.00    +0.041 C 
ATOM     15  C   UNL     1     -37.003  24.247   4.124  0.00  0.00    +0.295 A 
ATOM     16  C   UNL     1     -33.272  18.680   1.343  0.00  0.00    +0.031 C 
ATOM     17  C   UNL     1     -39.302  24.712   3.292  0.00  0.00    +0.329 A 
ATOM     18  H   UNL     1     -39.924  23.412   1.840  0.00  0.00    +0.173 HD
ATOM     19  H   UNL     1     -38.261  25.728   4.722  0.00  0.00    +0.174 HD
ENDROOT
BRANCH  13  21
ATOM     20  O   UNL     1     -35.073  18.123  -1.528  0.00  0.00    -0.245 OA
ATOM     21  C   UNL     1     -35.547  18.081  -0.390  0.00  0.00    +0.338 C 
BRANCH  21  22
ATOM     22  O   UNL     1     -36.090  16.947   0.130  0.00  0.00    -0.477 OA
ATOM     23  H   UNL     1     -36.717  17.002   0.824  0.00  0.00    +0.295 HD
ENDBRANCH  21  22
ENDBRANCH  13  21
TORSDOF 2
ENDMDL
MODEL 6
REMARK VINA RESULT:      -6.0      2.038      6.362
REMARK  Name = 5487704
REMARK  2 active torsions:
REMARK  status: ('A' for Active; 'I' for Inactive)
REMARK    1  A    between atoms: C_13  and  C_21
REMARK    2  A    between atoms: C_21  and  O_22
REMARK                            x       y       z     vdW  Elec       q    Type
REMARK                         _______ _______ _______ _____ _____    ______ ____
ROOT
ATOM      1  O   UNL     1     -35.918  22.516   6.227  0.00  0.00    -0.264 OA
ATOM      2  O   UNL     1     -37.299  21.868   1.866  0.00  0.00    -0.247 OA
ATOM      3  N   UNL     1     -34.605  24.782   5.558  0.00  0.00    -0.390 NA
ATOM      4  N   UNL     1     -34.671  25.591   2.896  0.00  0.00    -0.379 NA
ATOM      5  N   UNL     1     -36.009  23.702   2.364  0.00  0.00    -0.280 N 
ATOM      6  N   UNL     1     -36.619  22.178   4.045  0.00  0.00    -0.272 N 
ATOM      7  C   UNL     1     -33.970  25.899   5.164  0.00  0.00    +0.161 C 
ATOM      8  C   UNL     1     -34.003  26.309   3.819  0.00  0.00    +0.163 C 
ATOM      9  C   UNL     1     -32.602  27.830   5.710  0.00  0.00    -0.013 C 
ATOM     10  C   UNL     1     -35.264  24.085   4.614  0.00  0.00    +0.233 A 
ATOM     11  C   UNL     1     -35.304  24.474   3.299  0.00  0.00    +0.230 A 
ATOM     12  C   UNL     1     -33.268  26.667   6.090  0.00  0.00    +0.031 C 
ATOM     13  C   UNL     1     -32.633  28.234   4.383  0.00  0.00    +0.074 C 
ATOM     14  C   UNL     1     -33.333  27.473   3.449  0.00  0.00    +0.041 C 
ATOM     15  C   UNL     1     -35.953  22.866   5.053  0.00  0.00    +0.295 A 
ATOM     16  C   UNL     1     -31.866  28.617   6.744  0.00  0.00    +0.031 C 
ATOM     17  C   UNL     1     -36.685  22.538   2.697  0.00  0.00    +0.329 A 
ATOM     18  H   UNL     1     -36.024  24.000   1.426  0.00  0.00    +0.173 HD
ATOM     19  H   UNL     1     -37.093  21.355   4.308  0.00  0.00    +0.174 HD
ENDROOT
BRANCH  13  21
ATOM     20  O   UNL     1     -30.782  29.503   3.557  0.00  0.00    -0.245 OA
ATOM     21  C   UNL     1     -31.952  29.443   3.942  0.00  0.00    +0.338 C 
BRANCH  21  22
ATOM     22  O   UNL     1     -32.756  30.540   3.994  0.00  0.00    -0.477 OA
ATOM     23  H   UNL     1     -32.458  31.320   4.418  0.00  0.00    +0.295 HD
ENDBRANCH  21  22
ENDBRANCH  13  21
TORSDOF 2
ENDMDL
MODEL 7
REMARK VINA RESULT:      -6.0      6.153      7.707
REMARK  Name = 5487704
REMARK  2 active torsions:
REMARK  status: ('A' for Active; 'I' for Inactive)
REMARK    1  A    between atoms: C_13  and  C_21
REMARK    2  A    between atoms: C_21  and  O_22
REMARK                            x       y       z     vdW  Elec       q    Type
REMARK                         _______ _______ _______ _____ _____    ______ ____
ROOT
ATOM      1  O   UNL     1     -40.508  21.099   0.704  0.00  0.00    -0.264 OA
ATOM      2  O   UNL     1     -39.619  24.626   3.552  0.00  0.00    -0.247 OA
ATOM      3  N   UNL     1     -37.934  20.278   0.789  0.00  0.00    -0.390 NA
ATOM      4  N   UNL     1     -36.150  21.737   2.348  0.00  0.00    -0.379 NA
ATOM      5  N   UNL     1     -37.908  23.210   2.967  0.00  0.00    -0.280 N 
ATOM      6  N   UNL     1     -40.078  22.871   2.133  0.00  0.00    -0.272 N 
ATOM      7  C   UNL     1     -36.642  19.919   0.870  0.00  0.00    +0.161 C 
ATOM      8  C   UNL     1     -35.739  20.656   1.658  0.00  0.00    +0.163 C 
ATOM      9  C   UNL     1     -34.846  18.413   0.236  0.00  0.00    -0.013 C 
ATOM     10  C   UNL     1     -38.316  21.362   1.490  0.00  0.00    +0.233 A 
ATOM     11  C   UNL     1     -37.446  22.089   2.262  0.00  0.00    +0.230 A 
ATOM     12  C   UNL     1     -36.181  18.807   0.170  0.00  0.00    +0.031 C 
ATOM     13  C   UNL     1     -33.955  19.139   1.013  0.00  0.00    +0.074 C 
ATOM     14  C   UNL     1     -34.408  20.253   1.717  0.00  0.00    +0.041 C 
ATOM     15  C   UNL     1     -39.730  21.746   1.394  0.00  0.00    +0.295 A 
ATOM     16  C   UNL     1     -34.404  17.211  -0.533  0.00  0.00    +0.031 C 
ATOM     17  C   UNL     1     -39.226  23.639   2.929  0.00  0.00    +0.329 A 
ATOM     18  H   UNL     1     -37.266  23.716   3.515  0.00  0.00    +0.173 HD
ATOM     19  H   UNL     1     -41.020  23.155   2.090  0.00  0.00    +0.174 HD
ENDROOT
BRANCH  13  21
ATOM     20  O   UNL     1     -32.112  17.813   1.767  0.00  0.00    -0.245 OA
ATOM     21  C   UNL     1     -32.552  18.762   1.111  0.00  0.00    +0.338 C 
BRANCH  21  22
ATOM     22  O   UNL     1     -31.743  19.580   0.385  0.00  0.00    -0.477 OA
ATOM     23  H   UNL     1     -30.922  19.861   0.739  0.00  0.00    +0.295 HD
ENDBRANCH  21  22
ENDBRANCH  13  21
TORSDOF 2
ENDMDL
MODEL 8
REMARK VINA RESULT:      -5.9      2.103      6.868
REMARK  Name = 5487704
REMARK  2 active torsions:
REMARK  status: ('A' for Active; 'I' for Inactive)
REMARK    1  A    between atoms: C_13  and  C_21
REMARK    2  A    between atoms: C_21  and  O_22
REMARK                            x       y       z     vdW  Elec       q    Type
REMARK                         _______ _______ _______ _____ _____    ______ ____
ROOT
ATOM      1  O   UNL     1     -37.570  23.563   2.736  0.00  0.00    -0.264 OA
ATOM      2  O   UNL     1     -35.279  20.963   5.790  0.00  0.00    -0.247 OA
ATOM      3  N   UNL     1     -35.875  25.636   3.109  0.00  0.00    -0.390 NA
ATOM      4  N   UNL     1     -33.793  25.307   4.926  0.00  0.00    -0.379 NA
ATOM      5  N   UNL     1     -34.540  23.097   5.370  0.00  0.00    -0.280 N 
ATOM      6  N   UNL     1     -36.430  22.247   4.264  0.00  0.00    -0.272 N 
ATOM      7  C   UNL     1     -35.002  26.631   3.339  0.00  0.00    +0.161 C 
ATOM      8  C   UNL     1     -33.949  26.465   4.257  0.00  0.00    +0.163 C 
ATOM      9  C   UNL     1     -34.239  28.891   2.883  0.00  0.00    -0.013 C 
ATOM     10  C   UNL     1     -35.695  24.490   3.793  0.00  0.00    +0.233 A 
ATOM     11  C   UNL     1     -34.672  24.316   4.690  0.00  0.00    +0.230 A 
ATOM     12  C   UNL     1     -35.131  27.843   2.665  0.00  0.00    +0.031 C 
ATOM     13  C   UNL     1     -33.201  28.729   3.789  0.00  0.00    +0.074 C 
ATOM     14  C   UNL     1     -33.063  27.519   4.467  0.00  0.00    +0.041 C 
ATOM     15  C   UNL     1     -36.655  23.410   3.536  0.00  0.00    +0.295 A 
ATOM     16  C   UNL     1     -34.423  30.169   2.134  0.00  0.00    +0.031 C 
ATOM     17  C   UNL     1     -35.404  22.029   5.186  0.00  0.00    +0.329 A 
ATOM     18  H   UNL     1     -33.799  22.995   6.010  0.00  0.00    +0.173 HD
ATOM     19  H   UNL     1     -37.058  21.502   4.114  0.00  0.00    +0.174 HD
ENDROOT
BRANCH  13  21
ATOM     20  O   UNL     1     -31.229  30.022   3.383  0.00  0.00    -0.245 OA
ATOM     21  C   UNL     1     -32.245  29.797   4.046  0.00  0.00    +0.338 C 
BRANCH  21  22
ATOM     22  O   UNL     1     -32.592  30.554   5.123  0.00  0.00    -0.477 OA
ATOM     23  H   UNL     1     -31.926  30.938   5.659  0.00  0.00    +0.295 HD
ENDBRANCH  21  22
ENDBRANCH  13  21
TORSDOF 2
ENDMDL
MODEL 9
REMARK VINA RESULT:      -5.9      4.757      6.318
REMARK  Name = 5487704
REMARK  2 active torsions:
REMARK  status: ('A' for Active; 'I' for Inactive)
REMARK    1  A    between atoms: C_13  and  C_21
REMARK    2  A    between atoms: C_21  and  O_22
REMARK                            x       y       z     vdW  Elec       q    Type
REMARK                         _______ _______ _______ _____ _____    ______ ____
ROOT
ATOM      1  O   UNL     1     -36.006  25.637   0.682  0.00  0.00    -0.264 OA
ATOM      2  O   UNL     1     -39.287  24.424   3.700  0.00  0.00    -0.247 OA
ATOM      3  N   UNL     1     -34.884  23.181   0.794  0.00  0.00    -0.390 NA
ATOM      4  N   UNL     1     -36.058  21.284   2.458  0.00  0.00    -0.379 NA
ATOM      5  N   UNL     1     -37.704  22.874   3.094  0.00  0.00    -0.280 N 
ATOM      6  N   UNL     1     -37.659  25.043   2.194  0.00  0.00    -0.272 N 
ATOM      7  C   UNL     1     -34.370  21.943   0.892  0.00  0.00    +0.161 C 
ATOM      8  C   UNL     1     -34.963  20.983   1.733  0.00  0.00    +0.163 C 
ATOM      9  C   UNL     1     -32.686  20.319   0.241  0.00  0.00    -0.013 C 
ATOM     10  C   UNL     1     -35.978  23.453   1.530  0.00  0.00    +0.233 A 
ATOM     11  C   UNL     1     -36.566  22.526   2.353  0.00  0.00    +0.230 A 
ATOM     12  C   UNL     1     -33.239  21.596   0.159  0.00  0.00    +0.031 C 
ATOM     13  C   UNL     1     -33.270  19.373   1.071  0.00  0.00    +0.074 C 
ATOM     14  C   UNL     1     -34.403  19.711   1.808  0.00  0.00    +0.041 C 
ATOM     15  C   UNL     1     -36.531  24.808   1.416  0.00  0.00    +0.295 A 
ATOM     16  C   UNL     1     -31.473  19.999  -0.568  0.00  0.00    +0.031 C 
ATOM     17  C   UNL     1     -38.287  24.131   3.044  0.00  0.00    +0.329 A 
ATOM     18  H   UNL     1     -38.109  22.193   3.678  0.00  0.00    +0.173 HD
ATOM     19  H   UNL     1     -38.054  25.944   2.139  0.00  0.00    +0.174 HD
ENDROOT
BRANCH  13  21
ATOM     20  O   UNL     1     -31.746  17.709   1.865  0.00  0.00    -0.245 OA
ATOM     21  C   UNL     1     -32.726  18.027   1.186  0.00  0.00    +0.338 C 
BRANCH  21  22
ATOM     22  O   UNL     1     -33.426  17.120   0.452  0.00  0.00    -0.477 OA
ATOM     23  H   UNL     1     -33.818  16.380   0.872  0.00  0.00    +0.295 HD
ENDBRANCH  21  22
ENDBRANCH  13  21
TORSDOF 2
ENDMDL
