MODEL 1
REMARK VINA RESULT:      -6.1      0.000      0.000
REMARK  Name = 5464101
REMARK  4 active torsions:
REMARK  status: ('A' for Active; 'I' for Inactive)
REMARK    1  A    between atoms: N_3  and  C_9
REMARK    2  A    between atoms: N_3  and  S_15
REMARK    3  A    between atoms: S_15  and  C_18
REMARK    4  A    between atoms: C_21  and  N_24
REMARK                            x       y       z     vdW  Elec       q    Type
REMARK                         _______ _______ _______ _____ _____    ______ ____
ROOT
ATOM      1  N   UNL     1     -36.334  24.240   5.225  0.00  0.00    -0.093 NA
ENDROOT
BRANCH   1   9
ATOM      2  O   UNL     1     -39.260  25.378   2.193  0.00  0.00    -0.436 OA
ATOM      3  N   UNL     1     -37.666  25.644   3.827  0.00  0.00    -0.269 N 
ATOM      4  N   UNL     1     -38.457  23.481   3.128  0.00  0.00    -0.358 NA
ATOM      5  N   UNL     1     -36.254  26.624   5.323  0.00  0.00    -0.368 N 
ATOM      6  C   UNL     1     -39.885  24.319   1.606  0.00  0.00    +0.218 C 
ATOM      7  C   UNL     1     -39.394  23.171   2.177  0.00  0.00    +0.132 C 
ATOM      8  C   UNL     1     -38.431  24.783   3.083  0.00  0.00    +0.355 C 
ATOM      9  C   UNL     1     -36.717  25.422   4.822  0.00  0.00    +0.223 C 
ATOM     10  C   UNL     1     -40.875  24.620   0.567  0.00  0.00    +0.055 C 
ATOM     11  C   UNL     1     -39.748  21.773   1.891  0.00  0.00    +0.065 C 
ATOM     12  H   UNL     1     -37.815  26.594   3.619  0.00  0.00    +0.174 HD
ATOM     13  H   UNL     1     -36.596  27.473   4.961  0.00  0.00    +0.159 HD
ATOM     14  H   UNL     1     -35.581  26.632   6.043  0.00  0.00    +0.159 HD
ENDBRANCH   1   9
BRANCH   1  15
ATOM     15  S   UNL     1     -34.886  23.589   4.835  0.00  0.00    +0.103 S 
ATOM     16  O   UNL     1     -33.959  24.675   4.530  0.00  0.00    -0.146 OA
ATOM     17  O   UNL     1     -34.514  22.581   5.821  0.00  0.00    -0.146 OA
BRANCH  15  18
ATOM     18  C   UNL     1     -35.197  22.724   3.350  0.00  0.00    +0.129 C 
ATOM     19  C   UNL     1     -35.583  21.386   3.391  0.00  0.00    +0.022 C 
ATOM     20  C   UNL     1     -35.058  23.374   2.123  0.00  0.00    +0.022 C 
ATOM     21  C   UNL     1     -35.695  21.344   0.978  0.00  0.00    +0.042 C 
ATOM     22  C   UNL     1     -35.832  20.695   2.204  0.00  0.00    +0.015 C 
ATOM     23  C   UNL     1     -35.308  22.684   0.937  0.00  0.00    +0.015 C 
BRANCH  21  24
ATOM     24  N   UNL     1     -35.946  20.646  -0.222  0.00  0.00    -0.357 N 
ATOM     25  H   UNL     1     -35.718  21.058  -1.087  0.00  0.00    +0.142 HD
ATOM     26  H   UNL     1     -36.348  19.748  -0.194  0.00  0.00    +0.142 HD
ENDBRANCH  21  24
ENDBRANCH  15  18
ENDBRANCH   1  15
TORSDOF 4
ENDMDL
MODEL 2
REMARK VINA RESULT:      -6.1      3.300      5.846
REMARK  Name = 5464101
REMARK  4 active torsions:
REMARK  status: ('A' for Active; 'I' for Inactive)
REMARK    1  A    between atoms: N_3  and  C_9
REMARK    2  A    between atoms: N_3  and  S_15
REMARK    3  A    between atoms: S_15  and  C_18
REMARK    4  A    between atoms: C_21  and  N_24
REMARK                            x       y       z     vdW  Elec       q    Type
REMARK                         _______ _______ _______ _____ _____    ______ ____
ROOT
ATOM      1  N   UNL     1     -34.667  23.666   4.487  0.00  0.00    -0.093 NA
ENDROOT
BRANCH   1   9
ATOM      2  O   UNL     1     -36.249  20.149   2.444  0.00  0.00    -0.436 OA
ATOM      3  N   UNL     1     -35.838  21.610   4.169  0.00  0.00    -0.269 N 
ATOM      4  N   UNL     1     -34.955  21.939   1.954  0.00  0.00    -0.358 NA
ATOM      5  N   UNL     1     -35.803  22.532   6.254  0.00  0.00    -0.368 N 
ATOM      6  C   UNL     1     -35.898  20.072   1.129  0.00  0.00    +0.218 C 
ATOM      7  C   UNL     1     -35.114  21.159   0.838  0.00  0.00    +0.132 C 
ATOM      8  C   UNL     1     -35.643  21.289   2.851  0.00  0.00    +0.355 C 
ATOM      9  C   UNL     1     -35.388  22.678   4.943  0.00  0.00    +0.223 C 
ATOM     10  C   UNL     1     -36.403  18.922   0.371  0.00  0.00    +0.055 C 
ATOM     11  C   UNL     1     -34.487  21.531  -0.439  0.00  0.00    +0.065 C 
ATOM     12  H   UNL     1     -36.399  20.967   4.659  0.00  0.00    +0.174 HD
ATOM     13  H   UNL     1     -36.347  21.754   6.514  0.00  0.00    +0.159 HD
ATOM     14  H   UNL     1     -35.555  23.206   6.927  0.00  0.00    +0.159 HD
ENDBRANCH   1   9
BRANCH   1  15
ATOM     15  S   UNL     1     -35.267  25.165   4.227  0.00  0.00    +0.103 S 
ATOM     16  O   UNL     1     -35.274  25.416   2.790  0.00  0.00    -0.146 OA
ATOM     17  O   UNL     1     -36.494  25.347   4.995  0.00  0.00    -0.146 OA
BRANCH  15  18
ATOM     18  C   UNL     1     -34.082  26.226   4.947  0.00  0.00    +0.129 C 
ATOM     19  C   UNL     1     -33.387  27.135   4.151  0.00  0.00    +0.022 C 
ATOM     20  C   UNL     1     -33.832  26.163   6.318  0.00  0.00    +0.022 C 
ATOM     21  C   UNL     1     -32.190  27.923   6.096  0.00  0.00    +0.042 C 
ATOM     22  C   UNL     1     -32.440  27.984   4.726  0.00  0.00    +0.015 C 
ATOM     23  C   UNL     1     -32.886  27.013   6.892  0.00  0.00    +0.015 C 
BRANCH  21  24
ATOM     24  N   UNL     1     -31.233  28.780   6.678  0.00  0.00    -0.357 N 
ATOM     25  H   UNL     1     -30.390  28.969   6.206  0.00  0.00    +0.142 HD
ATOM     26  H   UNL     1     -31.409  29.191   7.555  0.00  0.00    +0.142 HD
ENDBRANCH  21  24
ENDBRANCH  15  18
ENDBRANCH   1  15
TORSDOF 4
ENDMDL
MODEL 3
REMARK VINA RESULT:      -6.0      1.184      1.370
REMARK  Name = 5464101
REMARK  4 active torsions:
REMARK  status: ('A' for Active; 'I' for Inactive)
REMARK    1  A    between atoms: N_3  and  C_9
REMARK    2  A    between atoms: N_3  and  S_15
REMARK    3  A    between atoms: S_15  and  C_18
REMARK    4  A    between atoms: C_21  and  N_24
REMARK                            x       y       z     vdW  Elec       q    Type
REMARK                         _______ _______ _______ _____ _____    ______ ____
ROOT
ATOM      1  N   UNL     1     -36.974  24.258   4.569  0.00  0.00    -0.093 NA
ENDROOT
BRANCH   1   9
ATOM      2  O   UNL     1     -38.938  26.956   1.756  0.00  0.00    -0.436 OA
ATOM      3  N   UNL     1     -37.655  26.306   3.548  0.00  0.00    -0.269 N 
ATOM      4  N   UNL     1     -38.794  24.729   2.130  0.00  0.00    -0.358 NA
ATOM      5  N   UNL     1     -36.350  26.402   5.415  0.00  0.00    -0.368 N 
ATOM      6  C   UNL     1     -39.677  26.317   0.806  0.00  0.00    +0.218 C 
ATOM      7  C   UNL     1     -39.586  24.968   1.037  0.00  0.00    +0.132 C 
ATOM      8  C   UNL     1     -38.452  25.932   2.497  0.00  0.00    +0.355 C 
ATOM      9  C   UNL     1     -36.985  25.563   4.518  0.00  0.00    +0.223 C 
ATOM     10  C   UNL     1     -40.359  27.157  -0.184  0.00  0.00    +0.055 C 
ATOM     11  C   UNL     1     -40.202  23.859   0.294  0.00  0.00    +0.065 C 
ATOM     12  H   UNL     1     -37.534  27.279   3.633  0.00  0.00    +0.174 HD
ATOM     13  H   UNL     1     -36.409  27.378   5.302  0.00  0.00    +0.159 HD
ATOM     14  H   UNL     1     -35.840  26.023   6.167  0.00  0.00    +0.159 HD
ENDBRANCH   1   9
BRANCH   1  15
ATOM     15  S   UNL     1     -35.629  23.388   4.899  0.00  0.00    +0.103 S 
ATOM     16  O   UNL     1     -34.515  24.313   5.081  0.00  0.00    -0.146 OA
ATOM     17  O   UNL     1     -35.919  22.400   5.931  0.00  0.00    -0.146 OA
BRANCH  15  18
ATOM     18  C   UNL     1     -35.337  22.488   3.432  0.00  0.00    +0.129 C 
ATOM     19  C   UNL     1     -35.433  21.097   3.437  0.00  0.00    +0.022 C 
ATOM     20  C   UNL     1     -35.009  23.161   2.255  0.00  0.00    +0.022 C 
ATOM     21  C   UNL     1     -34.872  21.050   1.087  0.00  0.00    +0.042 C 
ATOM     22  C   UNL     1     -35.199  20.378   2.264  0.00  0.00    +0.015 C 
ATOM     23  C   UNL     1     -34.777  22.441   1.082  0.00  0.00    +0.015 C 
BRANCH  21  24
ATOM     24  N   UNL     1     -34.636  20.323  -0.099  0.00  0.00    -0.357 N 
ATOM     25  H   UNL     1     -35.272  20.385  -0.848  0.00  0.00    +0.142 HD
ATOM     26  H   UNL     1     -33.836  19.756  -0.177  0.00  0.00    +0.142 HD
ENDBRANCH  21  24
ENDBRANCH  15  18
ENDBRANCH   1  15
TORSDOF 4
ENDMDL
MODEL 4
REMARK VINA RESULT:      -6.0      2.272      4.506
REMARK  Name = 5464101
REMARK  4 active torsions:
REMARK  status: ('A' for Active; 'I' for Inactive)
REMARK    1  A    between atoms: N_3  and  C_9
REMARK    2  A    between atoms: N_3  and  S_15
REMARK    3  A    between atoms: S_15  and  C_18
REMARK    4  A    between atoms: C_21  and  N_24
REMARK                            x       y       z     vdW  Elec       q    Type
REMARK                         _______ _______ _______ _____ _____    ______ ____
ROOT
ATOM      1  N   UNL     1     -39.425  23.992   3.061  0.00  0.00    -0.093 NA
ENDROOT
BRANCH   1   9
ATOM      2  O   UNL     1     -36.124  26.213   4.854  0.00  0.00    -0.436 OA
ATOM      3  N   UNL     1     -38.096  25.859   3.728  0.00  0.00    -0.269 N 
ATOM      4  N   UNL     1     -36.738  24.055   4.562  0.00  0.00    -0.358 NA
ATOM      5  N   UNL     1     -40.004  26.250   2.544  0.00  0.00    -0.368 N 
ATOM      6  C   UNL     1     -35.173  25.420   5.424  0.00  0.00    +0.218 C 
ATOM      7  C   UNL     1     -35.550  24.113   5.244  0.00  0.00    +0.132 C 
ATOM      8  C   UNL     1     -37.012  25.314   4.368  0.00  0.00    +0.355 C 
ATOM      9  C   UNL     1     -39.199  25.277   3.108  0.00  0.00    +0.223 C 
ATOM     10  C   UNL     1     -34.036  26.095   6.059  0.00  0.00    +0.055 C 
ATOM     11  C   UNL     1     -34.864  22.886   5.673  0.00  0.00    +0.065 C 
ATOM     12  H   UNL     1     -38.092  26.843   3.702  0.00  0.00    +0.174 HD
ATOM     13  H   UNL     1     -39.759  27.200   2.628  0.00  0.00    +0.159 HD
ATOM     14  H   UNL     1     -40.822  25.993   2.061  0.00  0.00    +0.159 HD
ENDBRANCH   1   9
BRANCH   1  15
ATOM     15  S   UNL     1     -39.495  23.147   1.663  0.00  0.00    +0.103 S 
ATOM     16  O   UNL     1     -40.429  22.040   1.840  0.00  0.00    -0.146 OA
ATOM     17  O   UNL     1     -39.668  24.061   0.540  0.00  0.00    -0.146 OA
BRANCH  15  18
ATOM     18  C   UNL     1     -37.894  22.470   1.497  0.00  0.00    +0.129 C 
ATOM     19  C   UNL     1     -37.659  21.143   1.852  0.00  0.00    +0.022 C 
ATOM     20  C   UNL     1     -36.852  23.258   1.007  0.00  0.00    +0.022 C 
ATOM     21  C   UNL     1     -35.337  21.388   1.229  0.00  0.00    +0.042 C 
ATOM     22  C   UNL     1     -36.380  20.602   1.718  0.00  0.00    +0.015 C 
ATOM     23  C   UNL     1     -35.573  22.716   0.873  0.00  0.00    +0.015 C 
BRANCH  21  24
ATOM     24  N   UNL     1     -34.044  20.842   1.093  0.00  0.00    -0.357 N 
ATOM     25  H   UNL     1     -33.253  21.400   1.272  0.00  0.00    +0.142 HD
ATOM     26  H   UNL     1     -33.933  19.902   0.822  0.00  0.00    +0.142 HD
ENDBRANCH  21  24
ENDBRANCH  15  18
ENDBRANCH   1  15
TORSDOF 4
ENDMDL
MODEL 5
REMARK VINA RESULT:      -6.0      3.171      4.895
REMARK  Name = 5464101
REMARK  4 active torsions:
REMARK  status: ('A' for Active; 'I' for Inactive)
REMARK    1  A    between atoms: N_3  and  C_9
REMARK    2  A    between atoms: N_3  and  S_15
REMARK    3  A    between atoms: S_15  and  C_18
REMARK    4  A    between atoms: C_21  and  N_24
REMARK                            x       y       z     vdW  Elec       q    Type
REMARK                         _______ _______ _______ _____ _____    ______ ____
ROOT
ATOM      1  N   UNL     1     -36.655  21.401   1.240  0.00  0.00    -0.093 NA
ENDROOT
BRANCH   1   9
ATOM      2  O   UNL     1     -36.975  24.234   4.544  0.00  0.00    -0.436 OA
ATOM      3  N   UNL     1     -37.597  22.554   3.106  0.00  0.00    -0.269 N 
ATOM      4  N   UNL     1     -35.488  23.699   2.924  0.00  0.00    -0.358 NA
ATOM      5  N   UNL     1     -38.845  20.947   2.077  0.00  0.00    -0.368 N 
ATOM      6  C   UNL     1     -35.884  25.039   4.686  0.00  0.00    +0.218 C 
ATOM      7  C   UNL     1     -34.986  24.711   3.702  0.00  0.00    +0.132 C 
ATOM      8  C   UNL     1     -36.649  23.473   3.473  0.00  0.00    +0.355 C 
ATOM      9  C   UNL     1     -37.632  21.611   2.080  0.00  0.00    +0.223 C 
ATOM     10  C   UNL     1     -35.912  26.011   5.784  0.00  0.00    +0.055 C 
ATOM     11  C   UNL     1     -33.663  25.289   3.428  0.00  0.00    +0.065 C 
ATOM     12  H   UNL     1     -38.403  22.562   3.672  0.00  0.00    +0.174 HD
ATOM     13  H   UNL     1     -39.528  21.167   2.749  0.00  0.00    +0.159 HD
ATOM     14  H   UNL     1     -39.024  20.253   1.401  0.00  0.00    +0.159 HD
ENDBRANCH   1   9
BRANCH   1  15
ATOM     15  S   UNL     1     -35.500  20.269   1.478  0.00  0.00    +0.103 S 
ATOM     16  O   UNL     1     -35.214  20.195   2.907  0.00  0.00    -0.146 OA
ATOM     17  O   UNL     1     -35.841  19.052   0.750  0.00  0.00    -0.146 OA
BRANCH  15  18
ATOM     18  C   UNL     1     -34.090  20.929   0.688  0.00  0.00    +0.129 C 
ATOM     19  C   UNL     1     -34.085  22.258   0.268  0.00  0.00    +0.022 C 
ATOM     20  C   UNL     1     -32.969  20.126   0.479  0.00  0.00    +0.022 C 
ATOM     21  C   UNL     1     -31.836  21.984  -0.573  0.00  0.00    +0.042 C 
ATOM     22  C   UNL     1     -32.958  22.786  -0.364  0.00  0.00    +0.015 C 
ATOM     23  C   UNL     1     -31.841  20.654  -0.151  0.00  0.00    +0.015 C 
BRANCH  21  24
ATOM     24  N   UNL     1     -30.696  22.517  -1.210  0.00  0.00    -0.357 N 
ATOM     25  H   UNL     1     -30.415  23.442  -1.022  0.00  0.00    +0.142 HD
ATOM     26  H   UNL     1     -30.182  21.964  -1.841  0.00  0.00    +0.142 HD
ENDBRANCH  21  24
ENDBRANCH  15  18
ENDBRANCH   1  15
TORSDOF 4
ENDMDL
MODEL 6
REMARK VINA RESULT:      -5.9      5.830      8.383
REMARK  Name = 5464101
REMARK  4 active torsions:
REMARK  status: ('A' for Active; 'I' for Inactive)
REMARK    1  A    between atoms: N_3  and  C_9
REMARK    2  A    between atoms: N_3  and  S_15
REMARK    3  A    between atoms: S_15  and  C_18
REMARK    4  A    between atoms: C_21  and  N_24
REMARK                            x       y       z     vdW  Elec       q    Type
REMARK                         _______ _______ _______ _____ _____    ______ ____
ROOT
ATOM      1  N   UNL     1     -32.389  27.606   4.743  0.00  0.00    -0.093 NA
ENDROOT
BRANCH   1   9
ATOM      2  O   UNL     1     -29.139  29.876   6.568  0.00  0.00    -0.436 OA
ATOM      3  N   UNL     1     -31.126  29.493   5.481  0.00  0.00    -0.269 N 
ATOM      4  N   UNL     1     -29.661  27.711   6.166  0.00  0.00    -0.358 NA
ATOM      5  N   UNL     1     -33.087  29.860   4.378  0.00  0.00    -0.368 N 
ATOM      6  C   UNL     1     -28.134  29.098   7.062  0.00  0.00    +0.218 C 
ATOM      7  C   UNL     1     -28.456  27.787   6.816  0.00  0.00    +0.132 C 
ATOM      8  C   UNL     1     -29.999  28.965   6.055  0.00  0.00    +0.355 C 
ATOM      9  C   UNL     1     -32.221  28.895   4.859  0.00  0.00    +0.223 C 
ATOM     10  C   UNL     1     -27.010  29.789   7.703  0.00  0.00    +0.055 C 
ATOM     11  C   UNL     1     -27.700  26.572   7.151  0.00  0.00    +0.065 C 
ATOM     12  H   UNL     1     -31.170  30.476   5.513  0.00  0.00    +0.174 HD
ATOM     13  H   UNL     1     -32.885  30.813   4.510  0.00  0.00    +0.159 HD
ATOM     14  H   UNL     1     -33.908  29.591   3.904  0.00  0.00    +0.159 HD
ENDBRANCH   1   9
BRANCH   1  15
ATOM     15  S   UNL     1     -32.710  26.872   3.318  0.00  0.00    +0.103 S 
ATOM     16  O   UNL     1     -33.468  27.798   2.482  0.00  0.00    -0.146 OA
ATOM     17  O   UNL     1     -31.497  26.258   2.791  0.00  0.00    -0.146 OA
BRANCH  15  18
ATOM     18  C   UNL     1     -33.773  25.555   3.750  0.00  0.00    +0.129 C 
ATOM     19  C   UNL     1     -34.122  25.351   5.083  0.00  0.00    +0.022 C 
ATOM     20  C   UNL     1     -34.272  24.709   2.759  0.00  0.00    +0.022 C 
ATOM     21  C   UNL     1     -35.472  23.453   4.439  0.00  0.00    +0.042 C 
ATOM     22  C   UNL     1     -34.972  24.299   5.429  0.00  0.00    +0.015 C 
ATOM     23  C   UNL     1     -35.123  23.659   3.104  0.00  0.00    +0.015 C 
BRANCH  21  24
ATOM     24  N   UNL     1     -36.332  22.390   4.787  0.00  0.00    -0.357 N 
ATOM     25  H   UNL     1     -37.245  22.579   5.104  0.00  0.00    +0.142 HD
ATOM     26  H   UNL     1     -36.019  21.460   4.712  0.00  0.00    +0.142 HD
ENDBRANCH  21  24
ENDBRANCH  15  18
ENDBRANCH   1  15
TORSDOF 4
ENDMDL
MODEL 7
REMARK VINA RESULT:      -5.9      3.252      5.313
REMARK  Name = 5464101
REMARK  4 active torsions:
REMARK  status: ('A' for Active; 'I' for Inactive)
REMARK    1  A    between atoms: N_3  and  C_9
REMARK    2  A    between atoms: N_3  and  S_15
REMARK    3  A    between atoms: S_15  and  C_18
REMARK    4  A    between atoms: C_21  and  N_24
REMARK                            x       y       z     vdW  Elec       q    Type
REMARK                         _______ _______ _______ _____ _____    ______ ____
ROOT
ATOM      1  N   UNL     1     -35.320  24.865   4.006  0.00  0.00    -0.093 NA
ENDROOT
BRANCH   1   9
ATOM      2  O   UNL     1     -32.891  28.444   4.585  0.00  0.00    -0.436 OA
ATOM      3  N   UNL     1     -34.665  27.006   4.835  0.00  0.00    -0.269 N 
ATOM      4  N   UNL     1     -32.809  26.532   3.377  0.00  0.00    -0.358 NA
ATOM      5  N   UNL     1     -36.671  26.149   5.498  0.00  0.00    -0.368 N 
ATOM      6  C   UNL     1     -31.737  28.449   3.859  0.00  0.00    +0.218 C 
ATOM      7  C   UNL     1     -31.692  27.288   3.129  0.00  0.00    +0.132 C 
ATOM      8  C   UNL     1     -33.461  27.267   4.234  0.00  0.00    +0.355 C 
ATOM      9  C   UNL     1     -35.541  25.926   4.733  0.00  0.00    +0.223 C 
ATOM     10  C   UNL     1     -30.860  29.615   4.010  0.00  0.00    +0.055 C 
ATOM     11  C   UNL     1     -30.658  26.824   2.194  0.00  0.00    +0.065 C 
ATOM     12  H   UNL     1     -34.966  27.711   5.452  0.00  0.00    +0.174 HD
ATOM     13  H   UNL     1     -36.756  26.980   6.019  0.00  0.00    +0.159 HD
ATOM     14  H   UNL     1     -37.389  25.476   5.522  0.00  0.00    +0.159 HD
ENDBRANCH   1   9
BRANCH   1  15
ATOM     15  S   UNL     1     -36.215  23.501   4.121  0.00  0.00    +0.103 S 
ATOM     16  O   UNL     1     -35.983  22.907   5.434  0.00  0.00    -0.146 OA
ATOM     17  O   UNL     1     -37.580  23.766   3.682  0.00  0.00    -0.146 OA
BRANCH  15  18
ATOM     18  C   UNL     1     -35.518  22.436   2.926  0.00  0.00    +0.129 C 
ATOM     19  C   UNL     1     -35.554  21.056   3.118  0.00  0.00    +0.022 C 
ATOM     20  C   UNL     1     -34.927  22.967   1.779  0.00  0.00    +0.022 C 
ATOM     21  C   UNL     1     -34.407  20.734   1.016  0.00  0.00    +0.042 C 
ATOM     22  C   UNL     1     -34.997  20.204   2.163  0.00  0.00    +0.015 C 
ATOM     23  C   UNL     1     -34.372  22.115   0.824  0.00  0.00    +0.015 C 
BRANCH  21  24
ATOM     24  N   UNL     1     -33.845  19.873   0.050  0.00  0.00    -0.357 N 
ATOM     25  H   UNL     1     -33.516  20.240  -0.803  0.00  0.00    +0.142 HD
ATOM     26  H   UNL     1     -33.780  18.908   0.229  0.00  0.00    +0.142 HD
ENDBRANCH  21  24
ENDBRANCH  15  18
ENDBRANCH   1  15
TORSDOF 4
ENDMDL
MODEL 8
REMARK VINA RESULT:      -5.8      2.206      2.870
REMARK  Name = 5464101
REMARK  4 active torsions:
REMARK  status: ('A' for Active; 'I' for Inactive)
REMARK    1  A    between atoms: N_3  and  C_9
REMARK    2  A    between atoms: N_3  and  S_15
REMARK    3  A    between atoms: S_15  and  C_18
REMARK    4  A    between atoms: C_21  and  N_24
REMARK                            x       y       z     vdW  Elec       q    Type
REMARK                         _______ _______ _______ _____ _____    ______ ____
ROOT
ATOM      1  N   UNL     1     -35.178  27.112   4.417  0.00  0.00    -0.093 NA
ENDROOT
BRANCH   1   9
ATOM      2  O   UNL     1     -37.826  26.987   0.951  0.00  0.00    -0.436 OA
ATOM      3  N   UNL     1     -36.076  27.666   2.276  0.00  0.00    -0.269 N 
ATOM      4  N   UNL     1     -37.642  25.973   2.965  0.00  0.00    -0.358 NA
ATOM      5  N   UNL     1     -34.260  28.822   3.026  0.00  0.00    -0.368 N 
ATOM      6  C   UNL     1     -38.840  26.083   1.066  0.00  0.00    +0.218 C 
ATOM      7  C   UNL     1     -38.723  25.471   2.289  0.00  0.00    +0.132 C 
ATOM      8  C   UNL     1     -37.168  26.850   2.126  0.00  0.00    +0.355 C 
ATOM      9  C   UNL     1     -35.164  27.818   3.319  0.00  0.00    +0.223 C 
ATOM     10  C   UNL     1     -39.767  25.974  -0.066  0.00  0.00    +0.055 C 
ATOM     11  C   UNL     1     -39.570  24.428   2.884  0.00  0.00    +0.065 C 
ATOM     12  H   UNL     1     -35.906  28.253   1.505  0.00  0.00    +0.174 HD
ATOM     13  H   UNL     1     -34.321  29.305   2.171  0.00  0.00    +0.159 HD
ATOM     14  H   UNL     1     -33.555  29.054   3.673  0.00  0.00    +0.159 HD
ENDBRANCH   1   9
BRANCH   1  15
ATOM     15  S   UNL     1     -33.988  26.066   4.822  0.00  0.00    +0.103 S 
ATOM     16  O   UNL     1     -32.820  26.353   3.994  0.00  0.00    -0.146 OA
ATOM     17  O   UNL     1     -33.845  26.014   6.272  0.00  0.00    -0.146 OA
BRANCH  15  18
ATOM     18  C   UNL     1     -34.611  24.508   4.338  0.00  0.00    +0.129 C 
ATOM     19  C   UNL     1     -34.696  24.181   2.986  0.00  0.00    +0.022 C 
ATOM     20  C   UNL     1     -35.024  23.592   5.306  0.00  0.00    +0.022 C 
ATOM     21  C   UNL     1     -35.606  22.019   3.567  0.00  0.00    +0.042 C 
ATOM     22  C   UNL     1     -35.193  22.936   2.600  0.00  0.00    +0.015 C 
ATOM     23  C   UNL     1     -35.521  22.347   4.920  0.00  0.00    +0.015 C 
BRANCH  21  24
ATOM     24  N   UNL     1     -36.109  20.760   3.177  0.00  0.00    -0.357 N 
ATOM     25  H   UNL     1     -35.883  19.957   3.700  0.00  0.00    +0.142 HD
ATOM     26  H   UNL     1     -36.686  20.685   2.383  0.00  0.00    +0.142 HD
ENDBRANCH  21  24
ENDBRANCH  15  18
ENDBRANCH   1  15
TORSDOF 4
ENDMDL
MODEL 9
REMARK VINA RESULT:      -5.7      3.340      4.124
REMARK  Name = 5464101
REMARK  4 active torsions:
REMARK  status: ('A' for Active; 'I' for Inactive)
REMARK    1  A    between atoms: N_3  and  C_9
REMARK    2  A    between atoms: N_3  and  S_15
REMARK    3  A    between atoms: S_15  and  C_18
REMARK    4  A    between atoms: C_21  and  N_24
REMARK                            x       y       z     vdW  Elec       q    Type
REMARK                         _______ _______ _______ _____ _____    ______ ____
ROOT
ATOM      1  N   UNL     1     -35.312  22.109   2.333  0.00  0.00    -0.093 NA
ENDROOT
BRANCH   1   9
ATOM      2  O   UNL     1     -38.767  24.411   3.679  0.00  0.00    -0.436 OA
ATOM      3  N   UNL     1     -37.000  22.947   3.799  0.00  0.00    -0.269 N 
ATOM      4  N   UNL     1     -37.603  24.086   1.766  0.00  0.00    -0.358 NA
ATOM      5  N   UNL     1     -35.522  21.412   4.607  0.00  0.00    -0.368 N 
ATOM      6  C   UNL     1     -39.331  25.178   2.703  0.00  0.00    +0.218 C 
ATOM      7  C   UNL     1     -38.621  24.977   1.546  0.00  0.00    +0.132 C 
ATOM      8  C   UNL     1     -37.749  23.799   3.029  0.00  0.00    +0.355 C 
ATOM      9  C   UNL     1     -35.896  22.151   3.501  0.00  0.00    +0.223 C 
ATOM     10  C   UNL     1     -40.492  25.991   3.082  0.00  0.00    +0.055 C 
ATOM     11  C   UNL     1     -38.832  25.572   0.218  0.00  0.00    +0.065 C 
ATOM     12  H   UNL     1     -37.298  22.887   4.735  0.00  0.00    +0.174 HD
ATOM     13  H   UNL     1     -36.018  21.506   5.452  0.00  0.00    +0.159 HD
ATOM     14  H   UNL     1     -34.759  20.792   4.550  0.00  0.00    +0.159 HD
ENDBRANCH   1   9
BRANCH   1  15
ATOM     15  S   UNL     1     -35.588  20.926   1.239  0.00  0.00    +0.103 S 
ATOM     16  O   UNL     1     -36.403  19.893   1.872  0.00  0.00    -0.146 OA
ATOM     17  O   UNL     1     -36.023  21.510  -0.024  0.00  0.00    -0.146 OA
BRANCH  15  18
ATOM     18  C   UNL     1     -34.007  20.247   0.942  0.00  0.00    +0.129 C 
ATOM     19  C   UNL     1     -33.078  20.952   0.179  0.00  0.00    +0.022 C 
ATOM     20  C   UNL     1     -33.675  18.999   1.469  0.00  0.00    +0.022 C 
ATOM     21  C   UNL     1     -31.481  19.163   0.469  0.00  0.00    +0.042 C 
ATOM     22  C   UNL     1     -31.814  20.410  -0.058  0.00  0.00    +0.015 C 
ATOM     23  C   UNL     1     -32.411  18.457   1.233  0.00  0.00    +0.015 C 
BRANCH  21  24
ATOM     24  N   UNL     1     -30.204  18.614   0.230  0.00  0.00    -0.357 N 
ATOM     25  H   UNL     1     -29.398  19.163   0.370  0.00  0.00    +0.142 HD
ATOM     26  H   UNL     1     -30.118  17.682  -0.075  0.00  0.00    +0.142 HD
ENDBRANCH  21  24
ENDBRANCH  15  18
ENDBRANCH   1  15
TORSDOF 4
ENDMDL
