MODEL 1
REMARK VINA RESULT:      -7.5      0.000      0.000
REMARK  Name = 60138149
REMARK  4 active torsions:
REMARK  status: ('A' for Active; 'I' for Inactive)
REMARK    1  A    between atoms: N_3  and  C_18
REMARK    2  A    between atoms: C_6  and  C_13
REMARK    3  A    between atoms: C_18  and  C_19
REMARK    4  A    between atoms: C_22  and  O_25
REMARK                            x       y       z     vdW  Elec       q    Type
REMARK                         _______ _______ _______ _____ _____    ______ ____
ROOT
ATOM      1  S   UNL     1     -31.681  29.392   3.626  0.00  0.00    -0.059 S 
ATOM      2  O   UNL     1     -33.630  26.043   6.253  0.00  0.00    -0.252 OA
ATOM      3  N   UNL     1     -35.324  26.307   4.703  0.00  0.00    -0.285 N 
ATOM      4  N   UNL     1     -33.436  27.603   4.510  0.00  0.00    -0.239 N 
ATOM      5  N   UNL     1     -31.315  27.895   5.701  0.00  0.00    -0.384 NA
ATOM      6  C   UNL     1     -30.194  28.690   5.556  0.00  0.00    +0.123 C 
ATOM      7  C   UNL     1     -32.164  28.179   4.739  0.00  0.00    +0.214 C 
ATOM      8  C   UNL     1     -34.071  26.605   5.254  0.00  0.00    +0.307 C 
ATOM      9  C   UNL     1     -30.209  29.564   4.490  0.00  0.00    +0.125 C 
ATOM     10  H   UNL     1     -35.610  26.799   3.899  0.00  0.00    +0.151 HD
ATOM     11  H   UNL     1     -33.933  27.946   3.733  0.00  0.00    +0.159 HD
ENDROOT
BRANCH   6  13
ATOM     12  N   UNL     1     -26.938  28.423   8.242  0.00  0.00    -0.242 NA
ATOM     13  C   UNL     1     -29.089  28.601   6.466  0.00  0.00    +0.029 C 
ATOM     14  C   UNL     1     -28.392  27.405   6.601  0.00  0.00    +0.023 C 
ATOM     15  C   UNL     1     -28.713  29.707   7.220  0.00  0.00    +0.023 C 
ATOM     16  C   UNL     1     -27.333  27.369   7.493  0.00  0.00    +0.099 C 
ATOM     17  C   UNL     1     -27.640  29.568   8.085  0.00  0.00    +0.099 C 
ENDBRANCH   6  13
BRANCH   3  18
ATOM     18  C   UNL     1     -36.213  25.316   5.252  0.00  0.00    +0.118 C 
BRANCH  18  19
ATOM     19  C   UNL     1     -35.960  23.955   4.697  0.00  0.00    +0.000 C 
ATOM     20  C   UNL     1     -35.645  22.900   5.553  0.00  0.00    +0.034 C 
ATOM     21  C   UNL     1     -36.037  23.739   3.321  0.00  0.00    -0.002 C 
ATOM     22  C   UNL     1     -35.408  21.627   5.034  0.00  0.00    +0.133 C 
ATOM     23  C   UNL     1     -35.799  22.466   2.801  0.00  0.00    +0.003 C 
ATOM     24  C   UNL     1     -35.485  21.410   3.657  0.00  0.00    +0.037 C 
BRANCH  22  25
ATOM     25  O   UNL     1     -35.100  20.598   5.869  0.00  0.00    -0.506 OA
ATOM     26  H   UNL     1     -35.569  20.490   6.673  0.00  0.00    +0.292 HD
ENDBRANCH  22  25
ENDBRANCH  18  19
ENDBRANCH   3  18
TORSDOF 4
ENDMDL
MODEL 2
REMARK VINA RESULT:      -7.3      0.882      1.659
REMARK  Name = 60138149
REMARK  4 active torsions:
REMARK  status: ('A' for Active; 'I' for Inactive)
REMARK    1  A    between atoms: N_3  and  C_18
REMARK    2  A    between atoms: C_6  and  C_13
REMARK    3  A    between atoms: C_18  and  C_19
REMARK    4  A    between atoms: C_22  and  O_25
REMARK                            x       y       z     vdW  Elec       q    Type
REMARK                         _______ _______ _______ _____ _____    ______ ____
ROOT
ATOM      1  S   UNL     1     -31.677  29.328   3.552  0.00  0.00    -0.059 S 
ATOM      2  O   UNL     1     -33.655  26.164   6.380  0.00  0.00    -0.252 OA
ATOM      3  N   UNL     1     -35.347  26.348   4.816  0.00  0.00    -0.285 N 
ATOM      4  N   UNL     1     -33.448  27.612   4.545  0.00  0.00    -0.239 N 
ATOM      5  N   UNL     1     -31.323  27.957   5.715  0.00  0.00    -0.384 NA
ATOM      6  C   UNL     1     -30.195  28.732   5.522  0.00  0.00    +0.123 C 
ATOM      7  C   UNL     1     -32.170  28.190   4.738  0.00  0.00    +0.214 C 
ATOM      8  C   UNL     1     -34.092  26.667   5.348  0.00  0.00    +0.307 C 
ATOM      9  C   UNL     1     -30.203  29.539   4.404  0.00  0.00    +0.125 C 
ATOM     10  H   UNL     1     -35.629  26.792   3.984  0.00  0.00    +0.151 HD
ATOM     11  H   UNL     1     -33.942  27.911   3.748  0.00  0.00    +0.159 HD
ENDROOT
BRANCH   6  13
ATOM     12  N   UNL     1     -26.938  28.607   8.217  0.00  0.00    -0.242 NA
ATOM     13  C   UNL     1     -29.091  28.689   6.436  0.00  0.00    +0.029 C 
ATOM     14  C   UNL     1     -28.724  29.830   7.141  0.00  0.00    +0.023 C 
ATOM     15  C   UNL     1     -28.382  27.507   6.621  0.00  0.00    +0.023 C 
ATOM     16  C   UNL     1     -27.651  29.738   8.011  0.00  0.00    +0.099 C 
ATOM     17  C   UNL     1     -27.324  27.518   7.515  0.00  0.00    +0.099 C 
ENDBRANCH   6  13
BRANCH   3  18
ATOM     18  C   UNL     1     -36.245  25.400   5.426  0.00  0.00    +0.118 C 
BRANCH  18  19
ATOM     19  C   UNL     1     -35.883  23.989   5.107  0.00  0.00    +0.000 C 
ATOM     20  C   UNL     1     -35.974  23.527   3.794  0.00  0.00    +0.034 C 
ATOM     21  C   UNL     1     -35.456  23.132   6.121  0.00  0.00    -0.002 C 
ATOM     22  C   UNL     1     -35.637  22.206   3.495  0.00  0.00    +0.133 C 
ATOM     23  C   UNL     1     -35.121  21.811   5.822  0.00  0.00    +0.003 C 
ATOM     24  C   UNL     1     -35.210  21.349   4.510  0.00  0.00    +0.037 C 
BRANCH  22  25
ATOM     25  O   UNL     1     -35.726  21.755   2.215  0.00  0.00    -0.506 OA
ATOM     26  H   UNL     1     -35.175  21.054   1.925  0.00  0.00    +0.292 HD
ENDBRANCH  22  25
ENDBRANCH  18  19
ENDBRANCH   3  18
TORSDOF 4
ENDMDL
MODEL 3
REMARK VINA RESULT:      -6.5      6.513      9.344
REMARK  Name = 60138149
REMARK  4 active torsions:
REMARK  status: ('A' for Active; 'I' for Inactive)
REMARK    1  A    between atoms: N_3  and  C_18
REMARK    2  A    between atoms: C_6  and  C_13
REMARK    3  A    between atoms: C_18  and  C_19
REMARK    4  A    between atoms: C_22  and  O_25
REMARK                            x       y       z     vdW  Elec       q    Type
REMARK                         _______ _______ _______ _____ _____    ______ ____
ROOT
ATOM      1  S   UNL     1     -36.155  24.946   4.953  0.00  0.00    -0.059 S 
ATOM      2  O   UNL     1     -39.861  24.556   2.120  0.00  0.00    -0.252 OA
ATOM      3  N   UNL     1     -40.670  26.193   3.537  0.00  0.00    -0.285 N 
ATOM      4  N   UNL     1     -38.560  25.359   3.901  0.00  0.00    -0.239 N 
ATOM      5  N   UNL     1     -37.075  23.694   2.887  0.00  0.00    -0.384 NA
ATOM      6  C   UNL     1     -35.803  23.214   3.134  0.00  0.00    +0.123 C 
ATOM      7  C   UNL     1     -37.365  24.611   3.783  0.00  0.00    +0.214 C 
ATOM      8  C   UNL     1     -39.698  25.289   3.092  0.00  0.00    +0.307 C 
ATOM      9  C   UNL     1     -35.148  23.772   4.212  0.00  0.00    +0.125 C 
ATOM     10  H   UNL     1     -40.466  26.750   4.323  0.00  0.00    +0.151 HD
ATOM     11  H   UNL     1     -38.595  26.005   4.641  0.00  0.00    +0.159 HD
ENDROOT
BRANCH   6  13
ATOM     12  N   UNL     1     -34.062  20.217   0.711  0.00  0.00    -0.242 NA
ATOM     13  C   UNL     1     -35.213  22.198   2.312  0.00  0.00    +0.029 C 
ATOM     14  C   UNL     1     -35.320  20.860   2.673  0.00  0.00    +0.023 C 
ATOM     15  C   UNL     1     -34.530  22.547   1.152  0.00  0.00    +0.023 C 
ATOM     16  C   UNL     1     -34.733  19.916   1.846  0.00  0.00    +0.099 C 
ATOM     17  C   UNL     1     -33.978  21.528   0.393  0.00  0.00    +0.099 C 
ENDBRANCH   6  13
BRANCH   3  18
ATOM     18  C   UNL     1     -41.952  26.350   2.900  0.00  0.00    +0.118 C 
BRANCH  18  19
ATOM     19  C   UNL     1     -42.904  27.144   3.729  0.00  0.00    +0.000 C 
ATOM     20  C   UNL     1     -42.474  28.314   4.356  0.00  0.00    +0.034 C 
ATOM     21  C   UNL     1     -44.224  26.717   3.878  0.00  0.00    -0.002 C 
ATOM     22  C   UNL     1     -43.364  29.057   5.132  0.00  0.00    +0.133 C 
ATOM     23  C   UNL     1     -45.113  27.460   4.656  0.00  0.00    +0.003 C 
ATOM     24  C   UNL     1     -44.684  28.629   5.282  0.00  0.00    +0.037 C 
BRANCH  22  25
ATOM     25  O   UNL     1     -42.944  30.197   5.744  0.00  0.00    -0.506 OA
ATOM     26  H   UNL     1     -43.466  30.587   6.418  0.00  0.00    +0.292 HD
ENDBRANCH  22  25
ENDBRANCH  18  19
ENDBRANCH   3  18
TORSDOF 4
ENDMDL
MODEL 4
REMARK VINA RESULT:      -6.4      4.196      4.945
REMARK  Name = 60138149
REMARK  4 active torsions:
REMARK  status: ('A' for Active; 'I' for Inactive)
REMARK    1  A    between atoms: N_3  and  C_18
REMARK    2  A    between atoms: C_6  and  C_13
REMARK    3  A    between atoms: C_18  and  C_19
REMARK    4  A    between atoms: C_22  and  O_25
REMARK                            x       y       z     vdW  Elec       q    Type
REMARK                         _______ _______ _______ _____ _____    ______ ____
ROOT
ATOM      1  S   UNL     1     -36.040  30.477   1.609  0.00  0.00    -0.059 S 
ATOM      2  O   UNL     1     -33.340  28.013   4.534  0.00  0.00    -0.252 OA
ATOM      3  N   UNL     1     -34.985  26.434   4.156  0.00  0.00    -0.285 N 
ATOM      4  N   UNL     1     -35.151  28.475   3.114  0.00  0.00    -0.239 N 
ATOM      5  N   UNL     1     -33.873  30.564   3.016  0.00  0.00    -0.384 NA
ATOM      6  C   UNL     1     -34.004  31.780   2.375  0.00  0.00    +0.123 C 
ATOM      7  C   UNL     1     -34.889  29.798   2.686  0.00  0.00    +0.214 C 
ATOM      8  C   UNL     1     -34.388  27.689   3.982  0.00  0.00    +0.307 C 
ATOM      9  C   UNL     1     -35.115  31.921   1.570  0.00  0.00    +0.125 C 
ATOM     10  H   UNL     1     -35.826  26.245   3.679  0.00  0.00    +0.151 HD
ATOM     11  H   UNL     1     -35.968  28.059   2.758  0.00  0.00    +0.159 HD
ENDROOT
BRANCH   6  13
ATOM     12  N   UNL     1     -31.147  34.858   2.880  0.00  0.00    -0.242 NA
ATOM     13  C   UNL     1     -33.036  32.825   2.545  0.00  0.00    +0.029 C 
ATOM     14  C   UNL     1     -31.765  32.525   3.023  0.00  0.00    +0.023 C 
ATOM     15  C   UNL     1     -33.363  34.140   2.235  0.00  0.00    +0.023 C 
ATOM     16  C   UNL     1     -30.865  33.568   3.171  0.00  0.00    +0.099 C 
ATOM     17  C   UNL     1     -32.393  35.111   2.418  0.00  0.00    +0.099 C 
ENDBRANCH   6  13
BRANCH   3  18
ATOM     18  C   UNL     1     -34.428  25.404   4.996  0.00  0.00    +0.118 C 
BRANCH  18  19
ATOM     19  C   UNL     1     -34.806  24.035   4.542  0.00  0.00    +0.000 C 
ATOM     20  C   UNL     1     -34.944  23.006   5.473  0.00  0.00    +0.034 C 
ATOM     21  C   UNL     1     -35.018  23.784   3.186  0.00  0.00    -0.002 C 
ATOM     22  C   UNL     1     -35.297  21.725   5.049  0.00  0.00    +0.133 C 
ATOM     23  C   UNL     1     -35.369  22.502   2.762  0.00  0.00    +0.003 C 
ATOM     24  C   UNL     1     -35.509  21.472   3.693  0.00  0.00    +0.037 C 
BRANCH  22  25
ATOM     25  O   UNL     1     -35.431  20.720   5.957  0.00  0.00    -0.506 OA
ATOM     26  H   UNL     1     -36.102  20.075   5.846  0.00  0.00    +0.292 HD
ENDBRANCH  22  25
ENDBRANCH  18  19
ENDBRANCH   3  18
TORSDOF 4
ENDMDL
MODEL 5
REMARK VINA RESULT:      -6.3      2.080      2.508
REMARK  Name = 60138149
REMARK  4 active torsions:
REMARK  status: ('A' for Active; 'I' for Inactive)
REMARK    1  A    between atoms: N_3  and  C_18
REMARK    2  A    between atoms: C_6  and  C_13
REMARK    3  A    between atoms: C_18  and  C_19
REMARK    4  A    between atoms: C_22  and  O_25
REMARK                            x       y       z     vdW  Elec       q    Type
REMARK                         _______ _______ _______ _____ _____    ______ ____
ROOT
ATOM      1  S   UNL     1     -32.823  30.684   2.865  0.00  0.00    -0.059 S 
ATOM      2  O   UNL     1     -32.291  27.286   6.042  0.00  0.00    -0.252 OA
ATOM      3  N   UNL     1     -34.317  26.622   5.150  0.00  0.00    -0.285 N 
ATOM      4  N   UNL     1     -33.305  28.508   4.314  0.00  0.00    -0.239 N 
ATOM      5  N   UNL     1     -31.256  29.789   4.716  0.00  0.00    -0.384 NA
ATOM      6  C   UNL     1     -30.676  30.928   4.191  0.00  0.00    +0.123 C 
ATOM      7  C   UNL     1     -32.391  29.565   4.093  0.00  0.00    +0.214 C 
ATOM      8  C   UNL     1     -33.205  27.468   5.242  0.00  0.00    +0.307 C 
ATOM      9  C   UNL     1     -31.377  31.550   3.180  0.00  0.00    +0.125 C 
ATOM     10  H   UNL     1     -35.010  26.832   4.483  0.00  0.00    +0.151 HD
ATOM     11  H   UNL     1     -34.108  28.505   3.745  0.00  0.00    +0.159 HD
ENDROOT
BRANCH   6  13
ATOM     12  N   UNL     1     -26.972  32.381   5.628  0.00  0.00    -0.242 NA
ATOM     13  C   UNL     1     -29.419  31.421   4.677  0.00  0.00    +0.029 C 
ATOM     14  C   UNL     1     -28.746  30.740   5.685  0.00  0.00    +0.023 C 
ATOM     15  C   UNL     1     -28.870  32.582   4.145  0.00  0.00    +0.023 C 
ATOM     16  C   UNL     1     -27.537  31.255   6.121  0.00  0.00    +0.099 C 
ATOM     17  C   UNL     1     -27.655  33.016   4.649  0.00  0.00    +0.099 C 
ENDBRANCH   6  13
BRANCH   3  18
ATOM     18  C   UNL     1     -34.495  25.459   5.981  0.00  0.00    +0.118 C 
BRANCH  18  19
ATOM     19  C   UNL     1     -34.843  24.244   5.190  0.00  0.00    +0.000 C 
ATOM     20  C   UNL     1     -35.008  23.017   5.833  0.00  0.00    +0.034 C 
ATOM     21  C   UNL     1     -35.003  24.334   3.807  0.00  0.00    -0.002 C 
ATOM     22  C   UNL     1     -35.333  21.880   5.094  0.00  0.00    +0.133 C 
ATOM     23  C   UNL     1     -35.328  23.196   3.068  0.00  0.00    +0.003 C 
ATOM     24  C   UNL     1     -35.493  21.969   3.711  0.00  0.00    +0.037 C 
BRANCH  22  25
ATOM     25  O   UNL     1     -35.492  20.683   5.721  0.00  0.00    -0.506 OA
ATOM     26  H   UNL     1     -35.920  19.975   5.280  0.00  0.00    +0.292 HD
ENDBRANCH  22  25
ENDBRANCH  18  19
ENDBRANCH   3  18
TORSDOF 4
ENDMDL
MODEL 6
REMARK VINA RESULT:      -6.3      4.769      9.215
REMARK  Name = 60138149
REMARK  4 active torsions:
REMARK  status: ('A' for Active; 'I' for Inactive)
REMARK    1  A    between atoms: N_3  and  C_18
REMARK    2  A    between atoms: C_6  and  C_13
REMARK    3  A    between atoms: C_18  and  C_19
REMARK    4  A    between atoms: C_22  and  O_25
REMARK                            x       y       z     vdW  Elec       q    Type
REMARK                         _______ _______ _______ _____ _____    ______ ____
ROOT
ATOM      1  S   UNL     1     -37.314  21.315   0.161  0.00  0.00    -0.059 S 
ATOM      2  O   UNL     1     -35.141  22.653   4.086  0.00  0.00    -0.252 OA
ATOM      3  N   UNL     1     -36.797  24.265   4.032  0.00  0.00    -0.285 N 
ATOM      4  N   UNL     1     -36.727  22.694   2.357  0.00  0.00    -0.239 N 
ATOM      5  N   UNL     1     -35.348  20.763   1.746  0.00  0.00    -0.384 NA
ATOM      6  C   UNL     1     -35.335  19.834   0.723  0.00  0.00    +0.123 C 
ATOM      7  C   UNL     1     -36.349  21.593   1.552  0.00  0.00    +0.214 C 
ATOM      8  C   UNL     1     -36.123  23.143   3.534  0.00  0.00    +0.307 C 
ATOM      9  C   UNL     1     -36.322  19.972  -0.229  0.00  0.00    +0.125 C 
ATOM     10  H   UNL     1     -37.578  24.601   3.534  0.00  0.00    +0.151 HD
ATOM     11  H   UNL     1     -37.511  23.204   2.051  0.00  0.00    +0.159 HD
ENDROOT
BRANCH   6  13
ATOM     12  N   UNL     1     -32.427  16.767   0.562  0.00  0.00    -0.242 NA
ATOM     13  C   UNL     1     -34.348  18.795   0.668  0.00  0.00    +0.029 C 
ATOM     14  C   UNL     1     -34.616  17.614  -0.016  0.00  0.00    +0.023 C 
ATOM     15  C   UNL     1     -33.120  18.962   1.299  0.00  0.00    +0.023 C 
ATOM     16  C   UNL     1     -33.631  16.640  -0.040  0.00  0.00    +0.099 C 
ATOM     17  C   UNL     1     -32.202  17.928   1.217  0.00  0.00    +0.099 C 
ENDBRANCH   6  13
BRANCH   3  18
ATOM     18  C   UNL     1     -36.406  24.951   5.236  0.00  0.00    +0.118 C 
BRANCH  18  19
ATOM     19  C   UNL     1     -35.240  25.856   5.021  0.00  0.00    +0.000 C 
ATOM     20  C   UNL     1     -34.281  26.007   6.023  0.00  0.00    +0.034 C 
ATOM     21  C   UNL     1     -35.110  26.551   3.820  0.00  0.00    -0.002 C 
ATOM     22  C   UNL     1     -33.191  26.854   5.823  0.00  0.00    +0.133 C 
ATOM     23  C   UNL     1     -34.020  27.399   3.620  0.00  0.00    +0.003 C 
ATOM     24  C   UNL     1     -33.060  27.550   4.621  0.00  0.00    +0.037 C 
BRANCH  22  25
ATOM     25  O   UNL     1     -32.256  27.002   6.800  0.00  0.00    -0.506 OA
ATOM     26  H   UNL     1     -32.379  26.590   7.633  0.00  0.00    +0.292 HD
ENDBRANCH  22  25
ENDBRANCH  18  19
ENDBRANCH   3  18
TORSDOF 4
ENDMDL
MODEL 7
REMARK VINA RESULT:      -6.2      3.899      5.646
REMARK  Name = 60138149
REMARK  4 active torsions:
REMARK  status: ('A' for Active; 'I' for Inactive)
REMARK    1  A    between atoms: N_3  and  C_18
REMARK    2  A    between atoms: C_6  and  C_13
REMARK    3  A    between atoms: C_18  and  C_19
REMARK    4  A    between atoms: C_22  and  O_25
REMARK                            x       y       z     vdW  Elec       q    Type
REMARK                         _______ _______ _______ _____ _____    ______ ____
ROOT
ATOM      1  S   UNL     1     -31.664  30.085   4.373  0.00  0.00    -0.059 S 
ATOM      2  O   UNL     1     -35.547  28.081   2.693  0.00  0.00    -0.252 OA
ATOM      3  N   UNL     1     -34.679  26.268   3.834  0.00  0.00    -0.285 N 
ATOM      4  N   UNL     1     -33.522  28.253   3.865  0.00  0.00    -0.239 N 
ATOM      5  N   UNL     1     -33.777  30.509   2.945  0.00  0.00    -0.384 NA
ATOM      6  C   UNL     1     -33.055  31.687   2.984  0.00  0.00    +0.123 C 
ATOM      7  C   UNL     1     -33.139  29.597   3.643  0.00  0.00    +0.214 C 
ATOM      8  C   UNL     1     -34.662  27.597   3.394  0.00  0.00    +0.307 C 
ATOM      9  C   UNL     1     -31.883  31.651   3.708  0.00  0.00    +0.125 C 
ATOM     10  H   UNL     1     -33.935  25.952   4.395  0.00  0.00    +0.151 HD
ATOM     11  H   UNL     1     -32.912  27.715   4.419  0.00  0.00    +0.159 HD
ENDROOT
BRANCH   6  13
ATOM     12  N   UNL     1     -34.399  35.165   0.987  0.00  0.00    -0.242 NA
ATOM     13  C   UNL     1     -33.511  32.867   2.308  0.00  0.00    +0.029 C 
ATOM     14  C   UNL     1     -34.645  32.816   1.505  0.00  0.00    +0.023 C 
ATOM     15  C   UNL     1     -32.820  34.065   2.451  0.00  0.00    +0.023 C 
ATOM     16  C   UNL     1     -35.044  33.982   0.873  0.00  0.00    +0.099 C 
ATOM     17  C   UNL     1     -33.301  35.176   1.776  0.00  0.00    +0.099 C 
ENDBRANCH   6  13
BRANCH   3  18
ATOM     18  C   UNL     1     -35.733  25.342   3.508  0.00  0.00    +0.118 C 
BRANCH  18  19
ATOM     19  C   UNL     1     -35.557  24.022   4.179  0.00  0.00    +0.000 C 
ATOM     20  C   UNL     1     -35.677  22.844   3.442  0.00  0.00    +0.034 C 
ATOM     21  C   UNL     1     -35.274  23.966   5.544  0.00  0.00    -0.002 C 
ATOM     22  C   UNL     1     -35.513  21.609   4.070  0.00  0.00    +0.133 C 
ATOM     23  C   UNL     1     -35.111  22.731   6.172  0.00  0.00    +0.003 C 
ATOM     24  C   UNL     1     -35.231  21.553   5.435  0.00  0.00    +0.037 C 
BRANCH  22  25
ATOM     25  O   UNL     1     -35.632  20.460   3.351  0.00  0.00    -0.506 OA
ATOM     26  H   UNL     1     -36.087  19.725   3.714  0.00  0.00    +0.292 HD
ENDBRANCH  22  25
ENDBRANCH  18  19
ENDBRANCH   3  18
TORSDOF 4
ENDMDL
MODEL 8
REMARK VINA RESULT:      -6.2      2.650      8.603
REMARK  Name = 60138149
REMARK  4 active torsions:
REMARK  status: ('A' for Active; 'I' for Inactive)
REMARK    1  A    between atoms: N_3  and  C_18
REMARK    2  A    between atoms: C_6  and  C_13
REMARK    3  A    between atoms: C_18  and  C_19
REMARK    4  A    between atoms: C_22  and  O_25
REMARK                            x       y       z     vdW  Elec       q    Type
REMARK                         _______ _______ _______ _____ _____    ______ ____
ROOT
ATOM      1  S   UNL     1     -35.990  25.953   5.350  0.00  0.00    -0.059 S 
ATOM      2  O   UNL     1     -31.773  26.955   3.581  0.00  0.00    -0.252 OA
ATOM      3  N   UNL     1     -31.999  28.763   5.003  0.00  0.00    -0.285 N 
ATOM      4  N   UNL     1     -33.696  27.218   4.901  0.00  0.00    -0.239 N 
ATOM      5  N   UNL     1     -34.175  25.137   3.699  0.00  0.00    -0.384 NA
ATOM      6  C   UNL     1     -35.215  24.227   3.662  0.00  0.00    +0.123 C 
ATOM      7  C   UNL     1     -34.475  26.089   4.555  0.00  0.00    +0.214 C 
ATOM      8  C   UNL     1     -32.436  27.572   4.411  0.00  0.00    +0.307 C 
ATOM      9  C   UNL     1     -36.285  24.501   4.487  0.00  0.00    +0.125 C 
ATOM     10  H   UNL     1     -32.585  29.202   5.661  0.00  0.00    +0.151 HD
ATOM     11  H   UNL     1     -34.088  27.827   5.567  0.00  0.00    +0.159 HD
ENDROOT
BRANCH   6  13
ATOM     12  N   UNL     1     -35.078  20.820   1.160  0.00  0.00    -0.242 NA
ATOM     13  C   UNL     1     -35.169  23.072   2.813  0.00  0.00    +0.029 C 
ATOM     14  C   UNL     1     -35.555  21.830   3.304  0.00  0.00    +0.023 C 
ATOM     15  C   UNL     1     -34.736  23.189   1.497  0.00  0.00    +0.023 C 
ATOM     16  C   UNL     1     -35.493  20.745   2.445  0.00  0.00    +0.099 C 
ATOM     17  C   UNL     1     -34.710  22.043   0.718  0.00  0.00    +0.099 C 
ENDBRANCH   6  13
BRANCH   3  18
ATOM     18  C   UNL     1     -30.733  29.379   4.697  0.00  0.00    +0.118 C 
BRANCH  18  19
ATOM     19  C   UNL     1     -29.649  28.938   5.621  0.00  0.00    +0.000 C 
ATOM     20  C   UNL     1     -29.547  29.499   6.894  0.00  0.00    +0.034 C 
ATOM     21  C   UNL     1     -28.736  27.967   5.211  0.00  0.00    -0.002 C 
ATOM     22  C   UNL     1     -28.533  29.087   7.758  0.00  0.00    +0.133 C 
ATOM     23  C   UNL     1     -27.720  27.556   6.075  0.00  0.00    +0.003 C 
ATOM     24  C   UNL     1     -27.619  28.115   7.349  0.00  0.00    +0.037 C 
BRANCH  22  25
ATOM     25  O   UNL     1     -28.433  29.634   9.000  0.00  0.00    -0.506 OA
ATOM     26  H   UNL     1     -27.680  30.144   9.229  0.00  0.00    +0.292 HD
ENDBRANCH  22  25
ENDBRANCH  18  19
ENDBRANCH   3  18
TORSDOF 4
ENDMDL
MODEL 9
REMARK VINA RESULT:      -6.2      6.794      8.957
REMARK  Name = 60138149
REMARK  4 active torsions:
REMARK  status: ('A' for Active; 'I' for Inactive)
REMARK    1  A    between atoms: N_3  and  C_18
REMARK    2  A    between atoms: C_6  and  C_13
REMARK    3  A    between atoms: C_18  and  C_19
REMARK    4  A    between atoms: C_22  and  O_25
REMARK                            x       y       z     vdW  Elec       q    Type
REMARK                         _______ _______ _______ _____ _____    ______ ____
ROOT
ATOM      1  S   UNL     1     -38.367  23.114   2.266  0.00  0.00    -0.059 S 
ATOM      2  O   UNL     1     -40.810  26.987   3.237  0.00  0.00    -0.252 OA
ATOM      3  N   UNL     1     -42.481  25.763   2.210  0.00  0.00    -0.285 N 
ATOM      4  N   UNL     1     -40.393  24.828   2.417  0.00  0.00    -0.239 N 
ATOM      5  N   UNL     1     -38.211  25.462   3.336  0.00  0.00    -0.384 NA
ATOM      6  C   UNL     1     -36.967  24.870   3.443  0.00  0.00    +0.123 C 
ATOM      7  C   UNL     1     -39.028  24.627   2.732  0.00  0.00    +0.214 C 
ATOM      8  C   UNL     1     -41.176  25.956   2.679  0.00  0.00    +0.307 C 
ATOM      9  C   UNL     1     -36.858  23.599   2.921  0.00  0.00    +0.125 C 
ATOM     10  H   UNL     1     -42.700  24.908   1.773  0.00  0.00    +0.151 HD
ATOM     11  H   UNL     1     -40.845  24.083   1.960  0.00  0.00    +0.159 HD
ENDROOT
BRANCH   6  13
ATOM     12  N   UNL     1     -33.719  26.869   5.270  0.00  0.00    -0.242 NA
ATOM     13  C   UNL     1     -35.866  25.548   4.064  0.00  0.00    +0.029 C 
ATOM     14  C   UNL     1     -35.134  26.489   3.348  0.00  0.00    +0.023 C 
ATOM     15  C   UNL     1     -35.525  25.267   5.382  0.00  0.00    +0.023 C 
ATOM     16  C   UNL     1     -34.080  27.117   3.991  0.00  0.00    +0.099 C 
ATOM     17  C   UNL     1     -34.453  25.949   5.934  0.00  0.00    +0.099 C 
ENDBRANCH   6  13
BRANCH   3  18
ATOM     18  C   UNL     1     -43.519  26.753   2.337  0.00  0.00    +0.118 C 
BRANCH  18  19
ATOM     19  C   UNL     1     -44.578  26.346   3.305  0.00  0.00    +0.000 C 
ATOM     20  C   UNL     1     -44.642  26.946   4.562  0.00  0.00    +0.034 C 
ATOM     21  C   UNL     1     -45.504  25.363   2.953  0.00  0.00    -0.002 C 
ATOM     22  C   UNL     1     -45.632  26.565   5.468  0.00  0.00    +0.133 C 
ATOM     23  C   UNL     1     -46.493  24.981   3.859  0.00  0.00    +0.003 C 
ATOM     24  C   UNL     1     -46.557  25.581   5.116  0.00  0.00    +0.037 C 
BRANCH  22  25
ATOM     25  O   UNL     1     -45.693  27.150   6.695  0.00  0.00    -0.506 OA
ATOM     26  H   UNL     1     -46.244  26.786   7.360  0.00  0.00    +0.292 HD
ENDBRANCH  22  25
ENDBRANCH  18  19
ENDBRANCH   3  18
TORSDOF 4
ENDMDL
