MODEL 1
REMARK VINA RESULT:      -6.8      0.000      0.000
REMARK  Name = 5281792
REMARK  12 active torsions:
REMARK  status: ('A' for Active; 'I' for Inactive)
REMARK    1  A    between atoms: C_1  and  C_3
REMARK    2  A    between atoms: C_1  and  O_6
REMARK    3  A    between atoms: C_1  and  C_21
REMARK    4  A    between atoms: C_3  and  O_4
REMARK    5  A    between atoms: O_6  and  C_8
REMARK    6  A    between atoms: C_8  and  C_9
REMARK    7  A    between atoms: C_10  and  C_11
REMARK    8  A    between atoms: C_14  and  O_17
REMARK    9  A    between atoms: C_16  and  O_19
REMARK   10  A    between atoms: C_21  and  C_22
REMARK   11  A    between atoms: C_25  and  O_28
REMARK   12  A    between atoms: C_27  and  O_30
REMARK                            x       y       z     vdW  Elec       q    Type
REMARK                         _______ _______ _______ _____ _____    ______ ____
ROOT
ATOM      1  C   UNL     1     -35.621  21.810   3.266  0.00  0.00    +0.271 C 
ENDROOT
BRANCH   1   3
ATOM      2  O   UNL     1     -34.505  20.363   1.660  0.00  0.00    -0.246 OA
ATOM      3  C   UNL     1     -35.476  20.598   2.369  0.00  0.00    +0.355 C 
BRANCH   3   4
ATOM      4  O   UNL     1     -36.549  19.769   2.449  0.00  0.00    -0.478 OA
ATOM      5  H   UNL     1     -37.006  19.517   1.671  0.00  0.00    +0.295 HD
ENDBRANCH   3   4
ENDBRANCH   1   3
BRANCH   1   6
ATOM      6  O   UNL     1     -35.276  21.406   4.595  0.00  0.00    -0.437 OA
BRANCH   6   8
ATOM      7  O   UNL     1     -36.184  22.336   6.504  0.00  0.00    -0.245 OA
ATOM      8  C   UNL     1     -35.420  22.362   5.553  0.00  0.00    +0.342 C 
BRANCH   8   9
ATOM      9  C   UNL     1     -34.479  23.459   5.235  0.00  0.00    +0.082 C 
ATOM     10  C   UNL     1     -34.779  24.732   5.577  0.00  0.00    +0.007 C 
BRANCH  10  11
ATOM     11  C   UNL     1     -33.933  25.889   5.330  0.00  0.00    +0.003 C 
ATOM     12  C   UNL     1     -33.356  26.573   6.401  0.00  0.00    +0.040 C 
ATOM     13  C   UNL     1     -33.699  26.316   4.022  0.00  0.00    +0.003 C 
ATOM     14  C   UNL     1     -32.545  27.683   6.163  0.00  0.00    +0.167 C 
ATOM     15  C   UNL     1     -32.888  27.425   3.785  0.00  0.00    +0.040 C 
ATOM     16  C   UNL     1     -32.311  28.109   4.855  0.00  0.00    +0.167 C 
BRANCH  14  17
ATOM     17  O   UNL     1     -31.989  28.344   7.216  0.00  0.00    -0.503 OA
ATOM     18  H   UNL     1     -32.103  29.270   7.302  0.00  0.00    +0.292 HD
ENDBRANCH  14  17
BRANCH  16  19
ATOM     19  O   UNL     1     -31.520  29.191   4.611  0.00  0.00    -0.503 OA
ATOM     20  H   UNL     1     -31.901  30.044   4.544  0.00  0.00    +0.292 HD
ENDBRANCH  16  19
ENDBRANCH  10  11
ENDBRANCH   8   9
ENDBRANCH   6   8
ENDBRANCH   1   6
BRANCH   1  21
ATOM     21  C   UNL     1     -37.066  22.315   3.266  0.00  0.00    +0.082 C 
BRANCH  21  22
ATOM     22  C   UNL     1     -37.159  23.764   2.854  0.00  0.00    -0.015 C 
ATOM     23  C   UNL     1     -38.246  24.518   3.268  0.00  0.00    +0.036 C 
ATOM     24  C   UNL     1     -36.156  24.315   2.073  0.00  0.00    -0.001 C 
ATOM     25  C   UNL     1     -38.332  25.859   2.889  0.00  0.00    +0.167 C 
ATOM     26  C   UNL     1     -36.242  25.654   1.693  0.00  0.00    +0.039 C 
ATOM     27  C   UNL     1     -37.329  26.426   2.101  0.00  0.00    +0.167 C 
BRANCH  25  28
ATOM     28  O   UNL     1     -39.399  26.602   3.293  0.00  0.00    -0.503 OA
ATOM     29  H   UNL     1     -39.263  27.395   3.771  0.00  0.00    +0.292 HD
ENDBRANCH  25  28
BRANCH  27  30
ATOM     30  O   UNL     1     -37.401  27.733   1.725  0.00  0.00    -0.503 OA
ATOM     31  H   UNL     1     -36.629  28.264   1.724  0.00  0.00    +0.292 HD
ENDBRANCH  27  30
ENDBRANCH  21  22
ENDBRANCH   1  21
TORSDOF 12
ENDMDL
MODEL 2
REMARK VINA RESULT:      -6.6      2.175      3.767
REMARK  Name = 5281792
REMARK  12 active torsions:
REMARK  status: ('A' for Active; 'I' for Inactive)
REMARK    1  A    between atoms: C_1  and  C_3
REMARK    2  A    between atoms: C_1  and  O_6
REMARK    3  A    between atoms: C_1  and  C_21
REMARK    4  A    between atoms: C_3  and  O_4
REMARK    5  A    between atoms: O_6  and  C_8
REMARK    6  A    between atoms: C_8  and  C_9
REMARK    7  A    between atoms: C_10  and  C_11
REMARK    8  A    between atoms: C_14  and  O_17
REMARK    9  A    between atoms: C_16  and  O_19
REMARK   10  A    between atoms: C_21  and  C_22
REMARK   11  A    between atoms: C_25  and  O_28
REMARK   12  A    between atoms: C_27  and  O_30
REMARK                            x       y       z     vdW  Elec       q    Type
REMARK                         _______ _______ _______ _____ _____    ______ ____
ROOT
ATOM      1  C   UNL     1     -35.702  21.502   1.933  0.00  0.00    +0.271 C 
ENDROOT
BRANCH   1   3
ATOM      2  O   UNL     1     -36.774  19.968   0.378  0.00  0.00    -0.246 OA
ATOM      3  C   UNL     1     -36.504  20.281   1.531  0.00  0.00    +0.355 C 
BRANCH   3   4
ATOM      4  O   UNL     1     -36.885  19.542   2.604  0.00  0.00    -0.478 OA
ATOM      5  H   UNL     1     -37.706  19.089   2.594  0.00  0.00    +0.295 HD
ENDBRANCH   3   4
ENDBRANCH   1   3
BRANCH   1   6
ATOM      6  O   UNL     1     -34.423  21.405   1.298  0.00  0.00    -0.437 OA
BRANCH   6   8
ATOM      7  O   UNL     1     -33.647  22.136  -0.751  0.00  0.00    -0.245 OA
ATOM      8  C   UNL     1     -34.177  22.330   0.332  0.00  0.00    +0.342 C 
BRANCH   8   9
ATOM      9  C   UNL     1     -34.669  23.635   0.826  0.00  0.00    +0.082 C 
ATOM     10  C   UNL     1     -33.814  24.508   1.405  0.00  0.00    +0.007 C 
BRANCH  10  11
ATOM     11  C   UNL     1     -34.174  25.821   1.918  0.00  0.00    +0.003 C 
ATOM     12  C   UNL     1     -35.391  26.401   1.559  0.00  0.00    +0.040 C 
ATOM     13  C   UNL     1     -33.302  26.500   2.770  0.00  0.00    +0.003 C 
ATOM     14  C   UNL     1     -35.735  27.659   2.053  0.00  0.00    +0.167 C 
ATOM     15  C   UNL     1     -33.646  27.758   3.262  0.00  0.00    +0.040 C 
ATOM     16  C   UNL     1     -34.863  28.338   2.904  0.00  0.00    +0.167 C 
BRANCH  14  17
ATOM     17  O   UNL     1     -36.926  28.217   1.694  0.00  0.00    -0.503 OA
ATOM     18  H   UNL     1     -37.372  27.916   0.927  0.00  0.00    +0.292 HD
ENDBRANCH  14  17
BRANCH  16  19
ATOM     19  O   UNL     1     -35.189  29.568   3.392  0.00  0.00    -0.503 OA
ATOM     20  H   UNL     1     -35.844  30.083   2.964  0.00  0.00    +0.292 HD
ENDBRANCH  16  19
ENDBRANCH  10  11
ENDBRANCH   8   9
ENDBRANCH   6   8
ENDBRANCH   1   6
BRANCH   1  21
ATOM     21  C   UNL     1     -35.497  21.541   3.448  0.00  0.00    +0.082 C 
BRANCH  21  22
ATOM     22  C   UNL     1     -35.766  22.912   4.021  0.00  0.00    -0.015 C 
ATOM     23  C   UNL     1     -36.911  23.593   3.640  0.00  0.00    +0.036 C 
ATOM     24  C   UNL     1     -34.865  23.462   4.918  0.00  0.00    -0.001 C 
ATOM     25  C   UNL     1     -37.162  24.859   4.170  0.00  0.00    +0.167 C 
ATOM     26  C   UNL     1     -35.114  24.728   5.448  0.00  0.00    +0.039 C 
ATOM     27  C   UNL     1     -36.263  25.427   5.074  0.00  0.00    +0.167 C 
BRANCH  25  28
ATOM     28  O   UNL     1     -38.286  25.531   3.797  0.00  0.00    -0.503 OA
ATOM     29  H   UNL     1     -38.244  26.448   3.609  0.00  0.00    +0.292 HD
ENDBRANCH  25  28
BRANCH  27  30
ATOM     30  O   UNL     1     -36.495  26.662   5.599  0.00  0.00    -0.503 OA
ATOM     31  H   UNL     1     -35.813  27.113   6.055  0.00  0.00    +0.292 HD
ENDBRANCH  27  30
ENDBRANCH  21  22
ENDBRANCH   1  21
TORSDOF 12
ENDMDL
MODEL 3
REMARK VINA RESULT:      -6.6      2.007      3.486
REMARK  Name = 5281792
REMARK  12 active torsions:
REMARK  status: ('A' for Active; 'I' for Inactive)
REMARK    1  A    between atoms: C_1  and  C_3
REMARK    2  A    between atoms: C_1  and  O_6
REMARK    3  A    between atoms: C_1  and  C_21
REMARK    4  A    between atoms: C_3  and  O_4
REMARK    5  A    between atoms: O_6  and  C_8
REMARK    6  A    between atoms: C_8  and  C_9
REMARK    7  A    between atoms: C_10  and  C_11
REMARK    8  A    between atoms: C_14  and  O_17
REMARK    9  A    between atoms: C_16  and  O_19
REMARK   10  A    between atoms: C_21  and  C_22
REMARK   11  A    between atoms: C_25  and  O_28
REMARK   12  A    between atoms: C_27  and  O_30
REMARK                            x       y       z     vdW  Elec       q    Type
REMARK                         _______ _______ _______ _____ _____    ______ ____
ROOT
ATOM      1  C   UNL     1     -35.719  21.534   1.920  0.00  0.00    +0.271 C 
ENDROOT
BRANCH   1   3
ATOM      2  O   UNL     1     -36.788  20.036   0.330  0.00  0.00    -0.246 OA
ATOM      3  C   UNL     1     -36.510  20.316   1.489  0.00  0.00    +0.355 C 
BRANCH   3   4
ATOM      4  O   UNL     1     -36.871  19.540   2.543  0.00  0.00    -0.478 OA
ATOM      5  H   UNL     1     -36.220  19.056   3.013  0.00  0.00    +0.295 HD
ENDBRANCH   3   4
ENDBRANCH   1   3
BRANCH   1   6
ATOM      6  O   UNL     1     -34.432  21.455   1.297  0.00  0.00    -0.437 OA
BRANCH   6   8
ATOM      7  O   UNL     1     -33.701  22.110  -0.793  0.00  0.00    -0.245 OA
ATOM      8  C   UNL     1     -34.215  22.342   0.289  0.00  0.00    +0.342 C 
BRANCH   8   9
ATOM      9  C   UNL     1     -34.714  23.661   0.739  0.00  0.00    +0.082 C 
ATOM     10  C   UNL     1     -33.898  24.504   1.410  0.00  0.00    +0.007 C 
BRANCH  10  11
ATOM     11  C   UNL     1     -34.268  25.826   1.892  0.00  0.00    +0.003 C 
ATOM     12  C   UNL     1     -33.521  26.435   2.900  0.00  0.00    +0.040 C 
ATOM     13  C   UNL     1     -35.370  26.484   1.345  0.00  0.00    +0.003 C 
ATOM     14  C   UNL     1     -33.876  27.703   3.361  0.00  0.00    +0.167 C 
ATOM     15  C   UNL     1     -35.725  27.751   1.807  0.00  0.00    +0.040 C 
ATOM     16  C   UNL     1     -34.978  28.361   2.814  0.00  0.00    +0.167 C 
BRANCH  14  17
ATOM     17  O   UNL     1     -33.140  28.287   4.347  0.00  0.00    -0.503 OA
ATOM     18  H   UNL     1     -32.348  27.884   4.643  0.00  0.00    +0.292 HD
ENDBRANCH  14  17
BRANCH  16  19
ATOM     19  O   UNL     1     -35.333  29.600   3.256  0.00  0.00    -0.503 OA
ATOM     20  H   UNL     1     -36.161  29.727   3.677  0.00  0.00    +0.292 HD
ENDBRANCH  16  19
ENDBRANCH  10  11
ENDBRANCH   8   9
ENDBRANCH   6   8
ENDBRANCH   1   6
BRANCH   1  21
ATOM     21  C   UNL     1     -35.529  21.548   3.439  0.00  0.00    +0.082 C 
BRANCH  21  22
ATOM     22  C   UNL     1     -35.787  22.913   4.029  0.00  0.00    -0.015 C 
ATOM     23  C   UNL     1     -36.880  23.645   3.593  0.00  0.00    +0.036 C 
ATOM     24  C   UNL     1     -34.929  23.407   4.998  0.00  0.00    -0.001 C 
ATOM     25  C   UNL     1     -37.120  24.906   4.140  0.00  0.00    +0.167 C 
ATOM     26  C   UNL     1     -35.168  24.668   5.544  0.00  0.00    +0.039 C 
ATOM     27  C   UNL     1     -36.263  25.418   5.116  0.00  0.00    +0.167 C 
BRANCH  25  28
ATOM     28  O   UNL     1     -38.193  25.629   3.713  0.00  0.00    -0.503 OA
ATOM     29  H   UNL     1     -38.446  26.406   4.169  0.00  0.00    +0.292 HD
ENDBRANCH  25  28
BRANCH  27  30
ATOM     30  O   UNL     1     -36.487  26.647   5.657  0.00  0.00    -0.503 OA
ATOM     31  H   UNL     1     -36.498  27.406   5.108  0.00  0.00    +0.292 HD
ENDBRANCH  27  30
ENDBRANCH  21  22
ENDBRANCH   1  21
TORSDOF 12
ENDMDL
MODEL 4
REMARK VINA RESULT:      -6.4      2.089      7.057
REMARK  Name = 5281792
REMARK  12 active torsions:
REMARK  status: ('A' for Active; 'I' for Inactive)
REMARK    1  A    between atoms: C_1  and  C_3
REMARK    2  A    between atoms: C_1  and  O_6
REMARK    3  A    between atoms: C_1  and  C_21
REMARK    4  A    between atoms: C_3  and  O_4
REMARK    5  A    between atoms: O_6  and  C_8
REMARK    6  A    between atoms: C_8  and  C_9
REMARK    7  A    between atoms: C_10  and  C_11
REMARK    8  A    between atoms: C_14  and  O_17
REMARK    9  A    between atoms: C_16  and  O_19
REMARK   10  A    between atoms: C_21  and  C_22
REMARK   11  A    between atoms: C_25  and  O_28
REMARK   12  A    between atoms: C_27  and  O_30
REMARK                            x       y       z     vdW  Elec       q    Type
REMARK                         _______ _______ _______ _____ _____    ______ ____
ROOT
ATOM      1  C   UNL     1     -34.148  26.312   4.483  0.00  0.00    +0.271 C 
ENDROOT
BRANCH   1   3
ATOM      2  O   UNL     1     -32.987  27.468   6.281  0.00  0.00    -0.246 OA
ATOM      3  C   UNL     1     -33.051  27.156   5.098  0.00  0.00    +0.355 C 
BRANCH   3   4
ATOM      4  O   UNL     1     -32.113  27.521   4.187  0.00  0.00    -0.478 OA
ATOM      5  H   UNL     1     -32.251  27.346   3.276  0.00  0.00    +0.295 HD
ENDBRANCH   3   4
ENDBRANCH   1   3
BRANCH   1   6
ATOM      6  O   UNL     1     -35.199  27.197   4.082  0.00  0.00    -0.437 OA
BRANCH   6   8
ATOM      7  O   UNL     1     -34.441  28.323   2.214  0.00  0.00    -0.245 OA
ATOM      8  C   UNL     1     -35.202  27.545   2.767  0.00  0.00    +0.342 C 
BRANCH   8   9
ATOM      9  C   UNL     1     -36.306  26.810   2.112  0.00  0.00    +0.082 C 
ATOM     10  C   UNL     1     -37.391  26.435   2.826  0.00  0.00    +0.007 C 
BRANCH  10  11
ATOM     11  C   UNL     1     -38.541  25.720   2.294  0.00  0.00    +0.003 C 
ATOM     12  C   UNL     1     -38.726  24.371   2.598  0.00  0.00    +0.040 C 
ATOM     13  C   UNL     1     -39.459  26.383   1.479  0.00  0.00    +0.003 C 
ATOM     14  C   UNL     1     -39.829  23.686   2.088  0.00  0.00    +0.167 C 
ATOM     15  C   UNL     1     -40.561  25.699   0.969  0.00  0.00    +0.040 C 
ATOM     16  C   UNL     1     -40.747  24.350   1.273  0.00  0.00    +0.167 C 
BRANCH  14  17
ATOM     17  O   UNL     1     -39.998  22.369   2.390  0.00  0.00    -0.503 OA
ATOM     18  H   UNL     1     -39.803  22.057   3.252  0.00  0.00    +0.292 HD
ENDBRANCH  14  17
BRANCH  16  19
ATOM     19  O   UNL     1     -41.828  23.692   0.770  0.00  0.00    -0.503 OA
ATOM     20  H   UNL     1     -42.693  23.979   0.986  0.00  0.00    +0.292 HD
ENDBRANCH  16  19
ENDBRANCH  10  11
ENDBRANCH   8   9
ENDBRANCH   6   8
ENDBRANCH   1   6
BRANCH   1  21
ATOM     21  C   UNL     1     -34.706  25.318   5.504  0.00  0.00    +0.082 C 
BRANCH  21  22
ATOM     22  C   UNL     1     -34.979  23.967   4.889  0.00  0.00    -0.015 C 
ATOM     23  C   UNL     1     -35.128  22.863   5.713  0.00  0.00    +0.036 C 
ATOM     24  C   UNL     1     -35.076  23.855   3.511  0.00  0.00    -0.001 C 
ATOM     25  C   UNL     1     -35.381  21.614   5.145  0.00  0.00    +0.167 C 
ATOM     26  C   UNL     1     -35.328  22.607   2.942  0.00  0.00    +0.039 C 
ATOM     27  C   UNL     1     -35.481  21.486   3.759  0.00  0.00    +0.167 C 
BRANCH  25  28
ATOM     28  O   UNL     1     -35.528  20.528   5.954  0.00  0.00    -0.503 OA
ATOM     29  H   UNL     1     -36.287  19.985   5.877  0.00  0.00    +0.292 HD
ENDBRANCH  25  28
BRANCH  27  30
ATOM     30  O   UNL     1     -35.728  20.273   3.193  0.00  0.00    -0.503 OA
ATOM     31  H   UNL     1     -36.458  19.761   3.480  0.00  0.00    +0.292 HD
ENDBRANCH  27  30
ENDBRANCH  21  22
ENDBRANCH   1  21
TORSDOF 12
ENDMDL
MODEL 5
REMARK VINA RESULT:      -6.3      2.405      3.215
REMARK  Name = 5281792
REMARK  12 active torsions:
REMARK  status: ('A' for Active; 'I' for Inactive)
REMARK    1  A    between atoms: C_1  and  C_3
REMARK    2  A    between atoms: C_1  and  O_6
REMARK    3  A    between atoms: C_1  and  C_21
REMARK    4  A    between atoms: C_3  and  O_4
REMARK    5  A    between atoms: O_6  and  C_8
REMARK    6  A    between atoms: C_8  and  C_9
REMARK    7  A    between atoms: C_10  and  C_11
REMARK    8  A    between atoms: C_14  and  O_17
REMARK    9  A    between atoms: C_16  and  O_19
REMARK   10  A    between atoms: C_21  and  C_22
REMARK   11  A    between atoms: C_25  and  O_28
REMARK   12  A    between atoms: C_27  and  O_30
REMARK                            x       y       z     vdW  Elec       q    Type
REMARK                         _______ _______ _______ _____ _____    ______ ____
ROOT
ATOM      1  C   UNL     1     -37.143  20.504   0.732  0.00  0.00    +0.271 C 
ENDROOT
BRANCH   1   3
ATOM      2  O   UNL     1     -37.082  19.305  -1.383  0.00  0.00    -0.246 OA
ATOM      3  C   UNL     1     -37.180  19.282  -0.163  0.00  0.00    +0.355 C 
BRANCH   3   4
ATOM      4  O   UNL     1     -37.314  18.132   0.546  0.00  0.00    -0.478 OA
ATOM      5  H   UNL     1     -36.568  17.585   0.698  0.00  0.00    +0.295 HD
ENDBRANCH   3   4
ENDBRANCH   1   3
BRANCH   1   6
ATOM      6  O   UNL     1     -36.601  20.099   1.994  0.00  0.00    -0.437 OA
BRANCH   6   8
ATOM      7  O   UNL     1     -34.373  19.586   2.322  0.00  0.00    -0.245 OA
ATOM      8  C   UNL     1     -35.285  20.386   2.184  0.00  0.00    +0.342 C 
BRANCH   8   9
ATOM      9  C   UNL     1     -35.145  21.859   2.197  0.00  0.00    +0.082 C 
ATOM     10  C   UNL     1     -35.504  22.566   3.292  0.00  0.00    +0.007 C 
BRANCH  10  11
ATOM     11  C   UNL     1     -35.404  24.010   3.430  0.00  0.00    +0.003 C 
ATOM     12  C   UNL     1     -36.031  24.654   4.497  0.00  0.00    +0.040 C 
ATOM     13  C   UNL     1     -34.682  24.752   2.495  0.00  0.00    +0.003 C 
ATOM     14  C   UNL     1     -35.934  26.040   4.629  0.00  0.00    +0.167 C 
ATOM     15  C   UNL     1     -34.585  26.137   2.626  0.00  0.00    +0.040 C 
ATOM     16  C   UNL     1     -35.212  26.781   3.693  0.00  0.00    +0.167 C 
BRANCH  14  17
ATOM     17  O   UNL     1     -36.552  26.658   5.673  0.00  0.00    -0.503 OA
ATOM     18  H   UNL     1     -36.303  27.528   5.917  0.00  0.00    +0.292 HD
ENDBRANCH  14  17
BRANCH  16  19
ATOM     19  O   UNL     1     -35.110  28.135   3.812  0.00  0.00    -0.503 OA
ATOM     20  H   UNL     1     -34.339  28.515   4.183  0.00  0.00    +0.292 HD
ENDBRANCH  16  19
ENDBRANCH  10  11
ENDBRANCH   8   9
ENDBRANCH   6   8
ENDBRANCH   1   6
BRANCH   1  21
ATOM     21  C   UNL     1     -38.553  21.053   0.959  0.00  0.00    +0.082 C 
BRANCH  21  22
ATOM     22  C   UNL     1     -38.542  22.529   1.274  0.00  0.00    -0.015 C 
ATOM     23  C   UNL     1     -39.136  22.978   2.444  0.00  0.00    +0.036 C 
ATOM     24  C   UNL     1     -37.938  23.409   0.390  0.00  0.00    -0.001 C 
ATOM     25  C   UNL     1     -39.125  24.342   2.737  0.00  0.00    +0.167 C 
ATOM     26  C   UNL     1     -37.928  24.772   0.682  0.00  0.00    +0.039 C 
ATOM     27  C   UNL     1     -38.521  25.239   1.855  0.00  0.00    +0.167 C 
BRANCH  25  28
ATOM     28  O   UNL     1     -39.708  24.786   3.885  0.00  0.00    -0.503 OA
ATOM     29  H   UNL     1     -40.622  24.988   3.898  0.00  0.00    +0.292 HD
ENDBRANCH  25  28
BRANCH  27  30
ATOM     30  O   UNL     1     -38.504  26.573   2.129  0.00  0.00    -0.503 OA
ATOM     31  H   UNL     1     -39.032  27.162   1.627  0.00  0.00    +0.292 HD
ENDBRANCH  27  30
ENDBRANCH  21  22
ENDBRANCH   1  21
TORSDOF 12
ENDMDL
MODEL 6
REMARK VINA RESULT:      -6.1      2.732      6.194
REMARK  Name = 5281792
REMARK  12 active torsions:
REMARK  status: ('A' for Active; 'I' for Inactive)
REMARK    1  A    between atoms: C_1  and  C_3
REMARK    2  A    between atoms: C_1  and  O_6
REMARK    3  A    between atoms: C_1  and  C_21
REMARK    4  A    between atoms: C_3  and  O_4
REMARK    5  A    between atoms: O_6  and  C_8
REMARK    6  A    between atoms: C_8  and  C_9
REMARK    7  A    between atoms: C_10  and  C_11
REMARK    8  A    between atoms: C_14  and  O_17
REMARK    9  A    between atoms: C_16  and  O_19
REMARK   10  A    between atoms: C_21  and  C_22
REMARK   11  A    between atoms: C_25  and  O_28
REMARK   12  A    between atoms: C_27  and  O_30
REMARK                            x       y       z     vdW  Elec       q    Type
REMARK                         _______ _______ _______ _____ _____    ______ ____
ROOT
ATOM      1  C   UNL     1     -39.166  26.067   1.506  0.00  0.00    +0.271 C 
ENDROOT
BRANCH   1   3
ATOM      2  O   UNL     1     -41.435  26.795   1.019  0.00  0.00    -0.246 OA
ATOM      3  C   UNL     1     -40.549  26.587   1.839  0.00  0.00    +0.355 C 
BRANCH   3   4
ATOM      4  O   UNL     1     -40.715  26.784   3.172  0.00  0.00    -0.478 OA
ATOM      5  H   UNL     1     -41.485  27.214   3.490  0.00  0.00    +0.295 HD
ENDBRANCH   3   4
ENDBRANCH   1   3
BRANCH   1   6
ATOM      6  O   UNL     1     -38.307  27.200   1.341  0.00  0.00    -0.437 OA
BRANCH   6   8
ATOM      7  O   UNL     1     -36.194  27.933   1.918  0.00  0.00    -0.245 OA
ATOM      8  C   UNL     1     -37.078  27.091   1.915  0.00  0.00    +0.342 C 
BRANCH   8   9
ATOM      9  C   UNL     1     -36.994  25.754   2.543  0.00  0.00    +0.082 C 
ATOM     10  C   UNL     1     -35.920  25.422   3.294  0.00  0.00    +0.007 C 
BRANCH  10  11
ATOM     11  C   UNL     1     -35.729  24.148   3.968  0.00  0.00    +0.003 C 
ATOM     12  C   UNL     1     -35.917  22.954   3.271  0.00  0.00    +0.040 C 
ATOM     13  C   UNL     1     -35.358  24.119   5.313  0.00  0.00    +0.003 C 
ATOM     14  C   UNL     1     -35.732  21.732   3.919  0.00  0.00    +0.167 C 
ATOM     15  C   UNL     1     -35.174  22.898   5.960  0.00  0.00    +0.040 C 
ATOM     16  C   UNL     1     -35.361  21.704   5.263  0.00  0.00    +0.167 C 
BRANCH  14  17
ATOM     17  O   UNL     1     -35.920  20.573   3.228  0.00  0.00    -0.503 OA
ATOM     18  H   UNL     1     -35.848  20.566   2.294  0.00  0.00    +0.292 HD
ENDBRANCH  14  17
BRANCH  16  19
ATOM     19  O   UNL     1     -35.177  20.517   5.906  0.00  0.00    -0.503 OA
ATOM     20  H   UNL     1     -35.495  20.403   6.780  0.00  0.00    +0.292 HD
ENDBRANCH  16  19
ENDBRANCH  10  11
ENDBRANCH   8   9
ENDBRANCH   6   8
ENDBRANCH   1   6
BRANCH   1  21
ATOM     21  C   UNL     1     -39.185  25.271   0.199  0.00  0.00    +0.082 C 
BRANCH  21  22
ATOM     22  C   UNL     1     -38.848  23.816   0.416  0.00  0.00    -0.015 C 
ATOM     23  C   UNL     1     -39.677  23.039   1.210  0.00  0.00    +0.036 C 
ATOM     24  C   UNL     1     -37.718  23.283  -0.183  0.00  0.00    -0.001 C 
ATOM     25  C   UNL     1     -39.367  21.693   1.410  0.00  0.00    +0.167 C 
ATOM     26  C   UNL     1     -37.407  21.939   0.018  0.00  0.00    +0.039 C 
ATOM     27  C   UNL     1     -38.231  21.143   0.814  0.00  0.00    +0.167 C 
BRANCH  25  28
ATOM     28  O   UNL     1     -40.179  20.927   2.190  0.00  0.00    -0.503 OA
ATOM     29  H   UNL     1     -41.108  21.041   2.153  0.00  0.00    +0.292 HD
ENDBRANCH  25  28
BRANCH  27  30
ATOM     30  O   UNL     1     -37.917  19.832   1.001  0.00  0.00    -0.503 OA
ATOM     31  H   UNL     1     -38.418  19.164   0.575  0.00  0.00    +0.292 HD
ENDBRANCH  27  30
ENDBRANCH  21  22
ENDBRANCH   1  21
TORSDOF 12
ENDMDL
MODEL 7
REMARK VINA RESULT:      -6.0      2.961      6.937
REMARK  Name = 5281792
REMARK  12 active torsions:
REMARK  status: ('A' for Active; 'I' for Inactive)
REMARK    1  A    between atoms: C_1  and  C_3
REMARK    2  A    between atoms: C_1  and  O_6
REMARK    3  A    between atoms: C_1  and  C_21
REMARK    4  A    between atoms: C_3  and  O_4
REMARK    5  A    between atoms: O_6  and  C_8
REMARK    6  A    between atoms: C_8  and  C_9
REMARK    7  A    between atoms: C_10  and  C_11
REMARK    8  A    between atoms: C_14  and  O_17
REMARK    9  A    between atoms: C_16  and  O_19
REMARK   10  A    between atoms: C_21  and  C_22
REMARK   11  A    between atoms: C_25  and  O_28
REMARK   12  A    between atoms: C_27  and  O_30
REMARK                            x       y       z     vdW  Elec       q    Type
REMARK                         _______ _______ _______ _____ _____    ______ ____
ROOT
ATOM      1  C   UNL     1     -36.981  24.558   3.369  0.00  0.00    +0.271 C 
ENDROOT
BRANCH   1   3
ATOM      2  O   UNL     1     -35.684  26.613   3.252  0.00  0.00    -0.246 OA
ATOM      3  C   UNL     1     -36.369  25.836   3.906  0.00  0.00    +0.355 C 
BRANCH   3   4
ATOM      4  O   UNL     1     -36.684  26.047   5.209  0.00  0.00    -0.478 OA
ATOM      5  H   UNL     1     -37.550  25.865   5.518  0.00  0.00    +0.295 HD
ENDBRANCH   3   4
ENDBRANCH   1   3
BRANCH   1   6
ATOM      6  O   UNL     1     -35.929  23.595   3.248  0.00  0.00    -0.437 OA
BRANCH   6   8
ATOM      7  O   UNL     1     -36.074  22.816   5.417  0.00  0.00    -0.245 OA
ATOM      8  C   UNL     1     -35.889  22.647   4.223  0.00  0.00    +0.342 C 
BRANCH   8   9
ATOM      9  C   UNL     1     -35.572  21.354   3.577  0.00  0.00    +0.082 C 
ATOM     10  C   UNL     1     -35.279  21.306   2.258  0.00  0.00    +0.007 C 
BRANCH  10  11
ATOM     11  C   UNL     1     -34.942  20.102   1.515  0.00  0.00    +0.003 C 
ATOM     12  C   UNL     1     -33.742  19.438   1.770  0.00  0.00    +0.040 C 
ATOM     13  C   UNL     1     -35.820  19.611   0.548  0.00  0.00    +0.003 C 
ATOM     14  C   UNL     1     -33.421  18.282   1.058  0.00  0.00    +0.167 C 
ATOM     15  C   UNL     1     -35.498  18.456  -0.164  0.00  0.00    +0.040 C 
ATOM     16  C   UNL     1     -34.298  17.791   0.090  0.00  0.00    +0.167 C 
BRANCH  14  17
ATOM     17  O   UNL     1     -32.245  17.643   1.314  0.00  0.00    -0.503 OA
ATOM     18  H   UNL     1     -31.823  17.149   0.639  0.00  0.00    +0.292 HD
ENDBRANCH  14  17
BRANCH  16  19
ATOM     19  O   UNL     1     -33.994  16.663  -0.611  0.00  0.00    -0.503 OA
ATOM     20  H   UNL     1     -34.153  16.629  -1.534  0.00  0.00    +0.292 HD
ENDBRANCH  16  19
ENDBRANCH  10  11
ENDBRANCH   8   9
ENDBRANCH   6   8
ENDBRANCH   1   6
BRANCH   1  21
ATOM     21  C   UNL     1     -37.596  24.789   1.988  0.00  0.00    +0.082 C 
BRANCH  21  22
ATOM     22  C   UNL     1     -38.165  23.520   1.402  0.00  0.00    -0.015 C 
ATOM     23  C   UNL     1     -39.056  22.766   2.150  0.00  0.00    +0.036 C 
ATOM     24  C   UNL     1     -37.788  23.132   0.126  0.00  0.00    -0.001 C 
ATOM     25  C   UNL     1     -39.583  21.594   1.608  0.00  0.00    +0.167 C 
ATOM     26  C   UNL     1     -38.314  21.959  -0.416  0.00  0.00    +0.039 C 
ATOM     27  C   UNL     1     -39.211  21.190   0.325  0.00  0.00    +0.167 C 
BRANCH  25  28
ATOM     28  O   UNL     1     -40.458  20.851   2.341  0.00  0.00    -0.503 OA
ATOM     29  H   UNL     1     -40.197  20.017   2.679  0.00  0.00    +0.292 HD
ENDBRANCH  25  28
BRANCH  27  30
ATOM     30  O   UNL     1     -39.718  20.048  -0.215  0.00  0.00    -0.503 OA
ATOM     31  H   UNL     1     -39.956  20.023  -1.122  0.00  0.00    +0.292 HD
ENDBRANCH  27  30
ENDBRANCH  21  22
ENDBRANCH   1  21
TORSDOF 12
ENDMDL
MODEL 8
REMARK VINA RESULT:      -6.0      2.134      6.004
REMARK  Name = 5281792
REMARK  12 active torsions:
REMARK  status: ('A' for Active; 'I' for Inactive)
REMARK    1  A    between atoms: C_1  and  C_3
REMARK    2  A    between atoms: C_1  and  O_6
REMARK    3  A    between atoms: C_1  and  C_21
REMARK    4  A    between atoms: C_3  and  O_4
REMARK    5  A    between atoms: O_6  and  C_8
REMARK    6  A    between atoms: C_8  and  C_9
REMARK    7  A    between atoms: C_10  and  C_11
REMARK    8  A    between atoms: C_14  and  O_17
REMARK    9  A    between atoms: C_16  and  O_19
REMARK   10  A    between atoms: C_21  and  C_22
REMARK   11  A    between atoms: C_25  and  O_28
REMARK   12  A    between atoms: C_27  and  O_30
REMARK                            x       y       z     vdW  Elec       q    Type
REMARK                         _______ _______ _______ _____ _____    ______ ____
ROOT
ATOM      1  C   UNL     1     -36.537  27.790   1.358  0.00  0.00    +0.271 C 
ENDROOT
BRANCH   1   3
ATOM      2  O   UNL     1     -36.624  29.473  -0.397  0.00  0.00    -0.246 OA
ATOM      3  C   UNL     1     -36.628  29.194   0.796  0.00  0.00    +0.355 C 
BRANCH   3   4
ATOM      4  O   UNL     1     -36.738  30.130   1.773  0.00  0.00    -0.478 OA
ATOM      5  H   UNL     1     -36.157  30.866   1.785  0.00  0.00    +0.295 HD
ENDBRANCH   3   4
ENDBRANCH   1   3
BRANCH   1   6
ATOM      6  O   UNL     1     -35.177  27.568   1.744  0.00  0.00    -0.437 OA
BRANCH   6   8
ATOM      7  O   UNL     1     -34.483  28.911   3.490  0.00  0.00    -0.245 OA
ATOM      8  C   UNL     1     -34.884  27.848   3.043  0.00  0.00    +0.342 C 
BRANCH   8   9
ATOM      9  C   UNL     1     -35.136  26.623   3.833  0.00  0.00    +0.082 C 
ATOM     10  C   UNL     1     -34.824  25.410   3.325  0.00  0.00    +0.007 C 
BRANCH  10  11
ATOM     11  C   UNL     1     -35.013  24.139   4.007  0.00  0.00    +0.003 C 
ATOM     12  C   UNL     1     -35.360  23.001   3.278  0.00  0.00    +0.040 C 
ATOM     13  C   UNL     1     -34.848  24.058   5.390  0.00  0.00    +0.003 C 
ATOM     14  C   UNL     1     -35.541  21.783   3.933  0.00  0.00    +0.167 C 
ATOM     15  C   UNL     1     -35.030  22.841   6.044  0.00  0.00    +0.040 C 
ATOM     16  C   UNL     1     -35.376  21.702   5.316  0.00  0.00    +0.167 C 
BRANCH  14  17
ATOM     17  O   UNL     1     -35.882  20.679   3.211  0.00  0.00    -0.503 OA
ATOM     18  H   UNL     1     -35.395  20.452   2.443  0.00  0.00    +0.292 HD
ENDBRANCH  14  17
BRANCH  16  19
ATOM     19  O   UNL     1     -35.550  20.517   5.966  0.00  0.00    -0.503 OA
ATOM     20  H   UNL     1     -35.776  20.511   6.875  0.00  0.00    +0.292 HD
ENDBRANCH  16  19
ENDBRANCH  10  11
ENDBRANCH   8   9
ENDBRANCH   6   8
ENDBRANCH   1   6
BRANCH   1  21
ATOM     21  C   UNL     1     -36.921  26.755   0.298  0.00  0.00    +0.082 C 
BRANCH  21  22
ATOM     22  C   UNL     1     -37.753  25.635   0.875  0.00  0.00    -0.015 C 
ATOM     23  C   UNL     1     -38.310  25.784   2.136  0.00  0.00    +0.036 C 
ATOM     24  C   UNL     1     -37.945  24.480   0.134  0.00  0.00    -0.001 C 
ATOM     25  C   UNL     1     -39.080  24.750   2.669  0.00  0.00    +0.167 C 
ATOM     26  C   UNL     1     -38.713  23.446   0.667  0.00  0.00    +0.039 C 
ATOM     27  C   UNL     1     -39.281  23.580   1.935  0.00  0.00    +0.167 C 
BRANCH  25  28
ATOM     28  O   UNL     1     -39.628  24.893   3.908  0.00  0.00    -0.503 OA
ATOM     29  H   UNL     1     -40.021  25.706   4.155  0.00  0.00    +0.292 HD
ENDBRANCH  25  28
BRANCH  27  30
ATOM     30  O   UNL     1     -40.030  22.564   2.444  0.00  0.00    -0.503 OA
ATOM     31  H   UNL     1     -39.616  21.862   2.907  0.00  0.00    +0.292 HD
ENDBRANCH  27  30
ENDBRANCH  21  22
ENDBRANCH   1  21
TORSDOF 12
ENDMDL
MODEL 9
REMARK VINA RESULT:      -6.0      1.407      4.154
REMARK  Name = 5281792
REMARK  12 active torsions:
REMARK  status: ('A' for Active; 'I' for Inactive)
REMARK    1  A    between atoms: C_1  and  C_3
REMARK    2  A    between atoms: C_1  and  O_6
REMARK    3  A    between atoms: C_1  and  C_21
REMARK    4  A    between atoms: C_3  and  O_4
REMARK    5  A    between atoms: O_6  and  C_8
REMARK    6  A    between atoms: C_8  and  C_9
REMARK    7  A    between atoms: C_10  and  C_11
REMARK    8  A    between atoms: C_14  and  O_17
REMARK    9  A    between atoms: C_16  and  O_19
REMARK   10  A    between atoms: C_21  and  C_22
REMARK   11  A    between atoms: C_25  and  O_28
REMARK   12  A    between atoms: C_27  and  O_30
REMARK                            x       y       z     vdW  Elec       q    Type
REMARK                         _______ _______ _______ _____ _____    ______ ____
ROOT
ATOM      1  C   UNL     1     -37.300  24.481   3.635  0.00  0.00    +0.271 C 
ENDROOT
BRANCH   1   3
ATOM      2  O   UNL     1     -39.709  24.377   3.314  0.00  0.00    -0.246 OA
ATOM      3  C   UNL     1     -38.686  25.045   3.400  0.00  0.00    +0.355 C 
BRANCH   3   4
ATOM      4  O   UNL     1     -38.679  26.400   3.312  0.00  0.00    -0.478 OA
ATOM      5  H   UNL     1     -38.423  26.817   2.513  0.00  0.00    +0.295 HD
ENDBRANCH   3   4
ENDBRANCH   1   3
BRANCH   1   6
ATOM      6  O   UNL     1     -36.623  25.362   4.537  0.00  0.00    -0.437 OA
BRANCH   6   8
ATOM      7  O   UNL     1     -35.800  23.628   5.822  0.00  0.00    -0.245 OA
ATOM      8  C   UNL     1     -35.742  24.767   5.386  0.00  0.00    +0.342 C 
BRANCH   8   9
ATOM      9  C   UNL     1     -34.685  25.754   5.699  0.00  0.00    +0.082 C 
ATOM     10  C   UNL     1     -33.966  26.319   4.703  0.00  0.00    +0.007 C 
BRANCH  10  11
ATOM     11  C   UNL     1     -32.913  27.306   4.883  0.00  0.00    +0.003 C 
ATOM     12  C   UNL     1     -32.573  27.738   6.166  0.00  0.00    +0.040 C 
ATOM     13  C   UNL     1     -32.242  27.820   3.773  0.00  0.00    +0.003 C 
ATOM     14  C   UNL     1     -31.562  28.684   6.337  0.00  0.00    +0.167 C 
ATOM     15  C   UNL     1     -31.232  28.766   3.945  0.00  0.00    +0.040 C 
ATOM     16  C   UNL     1     -30.892  29.198   5.227  0.00  0.00    +0.167 C 
BRANCH  14  17
ATOM     17  O   UNL     1     -31.241  29.100   7.594  0.00  0.00    -0.503 OA
ATOM     18  H   UNL     1     -30.482  28.756   8.022  0.00  0.00    +0.292 HD
ENDBRANCH  14  17
BRANCH  16  19
ATOM     19  O   UNL     1     -29.902  30.122   5.383  0.00  0.00    -0.503 OA
ATOM     20  H   UNL     1     -29.854  30.858   4.806  0.00  0.00    +0.292 HD
ENDBRANCH  16  19
ENDBRANCH  10  11
ENDBRANCH   8   9
ENDBRANCH   6   8
ENDBRANCH   1   6
BRANCH   1  21
ATOM     21  C   UNL     1     -36.510  24.418   2.326  0.00  0.00    +0.082 C 
BRANCH  21  22
ATOM     22  C   UNL     1     -36.000  23.027   2.038  0.00  0.00    -0.015 C 
ATOM     23  C   UNL     1     -36.693  21.934   2.533  0.00  0.00    +0.036 C 
ATOM     24  C   UNL     1     -34.848  22.868   1.283  0.00  0.00    -0.001 C 
ATOM     25  C   UNL     1     -36.223  20.648   2.266  0.00  0.00    +0.167 C 
ATOM     26  C   UNL     1     -34.377  21.583   1.017  0.00  0.00    +0.039 C 
ATOM     27  C   UNL     1     -35.064  20.473   1.508  0.00  0.00    +0.167 C 
BRANCH  25  28
ATOM     28  O   UNL     1     -36.902  19.571   2.751  0.00  0.00    -0.503 OA
ATOM     29  H   UNL     1     -37.544  19.687   3.423  0.00  0.00    +0.292 HD
ENDBRANCH  25  28
BRANCH  27  30
ATOM     30  O   UNL     1     -34.594  19.223   1.241  0.00  0.00    -0.503 OA
ATOM     31  H   UNL     1     -34.931  18.485   1.711  0.00  0.00    +0.292 HD
ENDBRANCH  27  30
ENDBRANCH  21  22
ENDBRANCH   1  21
TORSDOF 12
ENDMDL
