MODEL 1
REMARK VINA RESULT:      -6.0      0.000      0.000
REMARK  Name = 54685147
REMARK  8 active torsions:
REMARK  status: ('A' for Active; 'I' for Inactive)
REMARK    1  A    between atoms: N_3  and  C_24
REMARK    2  A    between atoms: C_7  and  C_15
REMARK    3  A    between atoms: C_8  and  O_22
REMARK    4  A    between atoms: N_14  and  C_17
REMARK    5  A    between atoms: C_17  and  C_19
REMARK    6  A    between atoms: C_19  and  O_20
REMARK    7  A    between atoms: C_24  and  C_25
REMARK    8  A    between atoms: C_25  and  C_26
REMARK                            x       y       z     vdW  Elec       q    Type
REMARK                         _______ _______ _______ _____ _____    ______ ____
ROOT
ATOM      1  F   UNL     1     -36.104  19.667   2.054  0.00  0.00    -0.204 F 
ATOM      2  O   UNL     1     -38.350  26.969   2.351  0.00  0.00    -0.267 OA
ATOM      3  N   UNL     1     -36.864  25.191   2.261  0.00  0.00    -0.295 N 
ATOM      4  C   UNL     1     -36.657  23.779   2.208  0.00  0.00    +0.065 A 
ATOM      5  C   UNL     1     -38.140  25.754   2.306  0.00  0.00    +0.268 A 
ATOM      6  C   UNL     1     -37.770  22.924   2.202  0.00  0.00    +0.052 A 
ATOM      7  C   UNL     1     -39.315  24.822   2.296  0.00  0.00    +0.143 A 
ATOM      8  C   UNL     1     -39.128  23.490   2.250  0.00  0.00    +0.144 A 
ATOM      9  C   UNL     1     -35.365  23.221   2.162  0.00  0.00    +0.020 C 
ATOM     10  C   UNL     1     -37.563  21.531   2.149  0.00  0.00    +0.034 C 
ATOM     11  C   UNL     1     -35.178  21.841   2.110  0.00  0.00    +0.031 C 
ATOM     12  C   UNL     1     -36.277  20.994   2.104  0.00  0.00    +0.140 C 
ENDROOT
BRANCH   7  15
ATOM     13  O   UNL     1     -41.436  25.266   1.389  0.00  0.00    -0.270 OA
ATOM     14  N   UNL     1     -40.935  26.048   3.528  0.00  0.00    -0.291 N 
ATOM     15  C   UNL     1     -40.676  25.395   2.340  0.00  0.00    +0.254 C 
ATOM     16  H   UNL     1     -40.229  26.076   4.214  0.00  0.00    +0.150 HD
BRANCH  14  17
ATOM     17  C   UNL     1     -42.198  26.692   3.811  0.00  0.00    +0.201 C 
BRANCH  17  19
ATOM     18  O   UNL     1     -42.041  28.880   4.803  0.00  0.00    -0.248 OA
ATOM     19  C   UNL     1     -42.108  28.196   3.788  0.00  0.00    +0.334 C 
BRANCH  19  20
ATOM     20  O   UNL     1     -42.110  28.719   2.540  0.00  0.00    -0.479 OA
ATOM     21  H   UNL     1     -41.304  28.820   2.073  0.00  0.00    +0.295 HD
ENDBRANCH  19  20
ENDBRANCH  17  19
ENDBRANCH  14  17
ENDBRANCH   7  15
BRANCH   8  22
ATOM     22  O   UNL     1     -40.134  22.545   2.242  0.00  0.00    -0.505 OA
ATOM     23  H   UNL     1     -40.291  22.022   3.003  0.00  0.00    +0.292 HD
ENDBRANCH   8  22
BRANCH   3  24
ATOM     24  C   UNL     1     -35.700  26.077   2.270  0.00  0.00    +0.109 C 
BRANCH  24  25
ATOM     25  C   UNL     1     -35.393  26.614   3.663  0.00  0.00    +0.025 C 
BRANCH  25  26
ATOM     26  C   UNL     1     -34.377  25.788   4.393  0.00  0.00    +0.002 C 
ATOM     27  C   UNL     1     -34.835  24.838   5.460  0.00  0.00    +0.000 C 
ATOM     28  C   UNL     1     -34.091  26.086   5.836  0.00  0.00    +0.000 C 
ENDBRANCH  25  26
ENDBRANCH  24  25
ENDBRANCH   3  24
TORSDOF 8
ENDMDL
MODEL 2
REMARK VINA RESULT:      -6.0      4.328      6.932
REMARK  Name = 54685147
REMARK  8 active torsions:
REMARK  status: ('A' for Active; 'I' for Inactive)
REMARK    1  A    between atoms: N_3  and  C_24
REMARK    2  A    between atoms: C_7  and  C_15
REMARK    3  A    between atoms: C_8  and  O_22
REMARK    4  A    between atoms: N_14  and  C_17
REMARK    5  A    between atoms: C_17  and  C_19
REMARK    6  A    between atoms: C_19  and  O_20
REMARK    7  A    between atoms: C_24  and  C_25
REMARK    8  A    between atoms: C_25  and  C_26
REMARK                            x       y       z     vdW  Elec       q    Type
REMARK                         _______ _______ _______ _____ _____    ______ ____
ROOT
ATOM      1  F   UNL     1     -35.685  31.227   0.605  0.00  0.00    -0.204 F 
ATOM      2  O   UNL     1     -33.591  25.473   5.183  0.00  0.00    -0.267 OA
ATOM      3  N   UNL     1     -33.417  27.517   4.101  0.00  0.00    -0.295 N 
ATOM      4  C   UNL     1     -33.988  28.475   3.208  0.00  0.00    +0.065 A 
ATOM      5  C   UNL     1     -34.058  26.319   4.415  0.00  0.00    +0.268 A 
ATOM      6  C   UNL     1     -35.234  28.205   2.621  0.00  0.00    +0.052 A 
ATOM      7  C   UNL     1     -35.390  26.052   3.778  0.00  0.00    +0.143 A 
ATOM      8  C   UNL     1     -35.932  26.947   2.932  0.00  0.00    +0.144 A 
ATOM      9  C   UNL     1     -33.333  29.682   2.900  0.00  0.00    +0.020 C 
ATOM     10  C   UNL     1     -35.795  29.151   1.740  0.00  0.00    +0.034 C 
ATOM     11  C   UNL     1     -33.901  30.607   2.026  0.00  0.00    +0.031 C 
ATOM     12  C   UNL     1     -35.133  30.342   1.445  0.00  0.00    +0.140 C 
ENDROOT
BRANCH   7  15
ATOM     13  O   UNL     1     -37.238  24.805   4.519  0.00  0.00    -0.270 OA
ATOM     14  N   UNL     1     -35.305  23.679   3.860  0.00  0.00    -0.291 N 
ATOM     15  C   UNL     1     -36.089  24.790   4.096  0.00  0.00    +0.254 C 
ATOM     16  H   UNL     1     -34.392  23.811   3.517  0.00  0.00    +0.150 HD
BRANCH  14  17
ATOM     17  C   UNL     1     -35.766  22.329   4.095  0.00  0.00    +0.201 C 
BRANCH  17  19
ATOM     18  O   UNL     1     -35.839  22.495   6.496  0.00  0.00    -0.248 OA
ATOM     19  C   UNL     1     -35.508  21.857   5.503  0.00  0.00    +0.334 C 
BRANCH  19  20
ATOM     20  O   UNL     1     -34.874  20.664   5.567  0.00  0.00    -0.479 OA
ATOM     21  H   UNL     1     -34.030  20.602   5.970  0.00  0.00    +0.295 HD
ENDBRANCH  19  20
ENDBRANCH  17  19
ENDBRANCH  14  17
ENDBRANCH   7  15
BRANCH   8  22
ATOM     22  O   UNL     1     -37.145  26.801   2.289  0.00  0.00    -0.505 OA
ATOM     23  H   UNL     1     -37.541  27.536   1.863  0.00  0.00    +0.292 HD
ENDBRANCH   8  22
BRANCH   3  24
ATOM     24  C   UNL     1     -32.117  27.803   4.708  0.00  0.00    +0.109 C 
BRANCH  24  25
ATOM     25  C   UNL     1     -32.228  28.092   6.200  0.00  0.00    +0.025 C 
BRANCH  25  26
ATOM     26  C   UNL     1     -31.523  29.353   6.602  0.00  0.00    +0.002 C 
ATOM     27  C   UNL     1     -31.993  30.664   6.045  0.00  0.00    +0.000 C 
ATOM     28  C   UNL     1     -30.688  30.081   5.589  0.00  0.00    +0.000 C 
ENDBRANCH  25  26
ENDBRANCH  24  25
ENDBRANCH   3  24
TORSDOF 8
ENDMDL
MODEL 3
REMARK VINA RESULT:      -5.9      3.883      5.357
REMARK  Name = 54685147
REMARK  8 active torsions:
REMARK  status: ('A' for Active; 'I' for Inactive)
REMARK    1  A    between atoms: N_3  and  C_24
REMARK    2  A    between atoms: C_7  and  C_15
REMARK    3  A    between atoms: C_8  and  O_22
REMARK    4  A    between atoms: N_14  and  C_17
REMARK    5  A    between atoms: C_17  and  C_19
REMARK    6  A    between atoms: C_19  and  O_20
REMARK    7  A    between atoms: C_24  and  C_25
REMARK    8  A    between atoms: C_25  and  C_26
REMARK                            x       y       z     vdW  Elec       q    Type
REMARK                         _______ _______ _______ _____ _____    ______ ____
ROOT
ATOM      1  F   UNL     1     -35.343  22.330   7.245  0.00  0.00    -0.204 F 
ATOM      2  O   UNL     1     -35.764  25.355   0.236  0.00  0.00    -0.267 OA
ATOM      3  N   UNL     1     -35.574  23.689   1.838  0.00  0.00    -0.295 N 
ATOM      4  C   UNL     1     -35.514  23.329   3.219  0.00  0.00    +0.065 A 
ATOM      5  C   UNL     1     -35.708  25.014   1.421  0.00  0.00    +0.268 A 
ATOM      6  C   UNL     1     -35.589  24.337   4.193  0.00  0.00    +0.052 A 
ATOM      7  C   UNL     1     -35.789  26.075   2.478  0.00  0.00    +0.143 A 
ATOM      8  C   UNL     1     -35.729  25.743   3.781  0.00  0.00    +0.144 A 
ATOM      9  C   UNL     1     -35.380  21.989   3.629  0.00  0.00    +0.020 C 
ATOM     10  C   UNL     1     -35.530  23.979   5.555  0.00  0.00    +0.034 C 
ATOM     11  C   UNL     1     -35.323  21.652   4.981  0.00  0.00    +0.031 C 
ATOM     12  C   UNL     1     -35.397  22.647   5.945  0.00  0.00    +0.140 C 
ENDROOT
BRANCH   7  15
ATOM     13  O   UNL     1     -37.013  27.910   1.672  0.00  0.00    -0.270 OA
ATOM     14  N   UNL     1     -34.752  28.189   2.169  0.00  0.00    -0.291 N 
ATOM     15  C   UNL     1     -35.933  27.484   2.061  0.00  0.00    +0.254 C 
ATOM     16  H   UNL     1     -33.952  27.720   2.499  0.00  0.00    +0.150 HD
BRANCH  14  17
ATOM     17  C   UNL     1     -34.637  29.588   1.819  0.00  0.00    +0.201 C 
BRANCH  17  19
ATOM     18  O   UNL     1     -34.690  30.845   3.871  0.00  0.00    -0.248 OA
ATOM     19  C   UNL     1     -35.260  30.502   2.842  0.00  0.00    +0.334 C 
BRANCH  19  20
ATOM     20  O   UNL     1     -36.510  30.905   2.518  0.00  0.00    -0.479 OA
ATOM     21  H   UNL     1     -36.987  31.467   3.097  0.00  0.00    +0.295 HD
ENDBRANCH  19  20
ENDBRANCH  17  19
ENDBRANCH  14  17
ENDBRANCH   7  15
BRANCH   8  22
ATOM     22  O   UNL     1     -35.788  26.635   4.833  0.00  0.00    -0.505 OA
ATOM     23  H   UNL     1     -35.927  26.323   5.705  0.00  0.00    +0.292 HD
ENDBRANCH   8  22
BRANCH   3  24
ATOM     24  C   UNL     1     -35.493  22.635   0.827  0.00  0.00    +0.109 C 
BRANCH  24  25
ATOM     25  C   UNL     1     -34.053  22.292   0.466  0.00  0.00    +0.025 C 
BRANCH  25  26
ATOM     26  C   UNL     1     -33.881  20.859   0.057  0.00  0.00    +0.002 C 
ATOM     27  C   UNL     1     -33.746  19.806   1.116  0.00  0.00    +0.000 C 
ATOM     28  C   UNL     1     -32.559  20.187   0.281  0.00  0.00    +0.000 C 
ENDBRANCH  25  26
ENDBRANCH  24  25
ENDBRANCH   3  24
TORSDOF 8
ENDMDL
MODEL 4
REMARK VINA RESULT:      -5.9      1.928      2.770
REMARK  Name = 54685147
REMARK  8 active torsions:
REMARK  status: ('A' for Active; 'I' for Inactive)
REMARK    1  A    between atoms: N_3  and  C_24
REMARK    2  A    between atoms: C_7  and  C_15
REMARK    3  A    between atoms: C_8  and  O_22
REMARK    4  A    between atoms: N_14  and  C_17
REMARK    5  A    between atoms: C_17  and  C_19
REMARK    6  A    between atoms: C_19  and  O_20
REMARK    7  A    between atoms: C_24  and  C_25
REMARK    8  A    between atoms: C_25  and  C_26
REMARK                            x       y       z     vdW  Elec       q    Type
REMARK                         _______ _______ _______ _____ _____    ______ ____
ROOT
ATOM      1  F   UNL     1     -34.731  18.363  -0.518  0.00  0.00    -0.204 F 
ATOM      2  O   UNL     1     -37.952  23.833   3.742  0.00  0.00    -0.267 OA
ATOM      3  N   UNL     1     -36.393  22.221   3.155  0.00  0.00    -0.295 N 
ATOM      4  C   UNL     1     -35.957  21.231   2.222  0.00  0.00    +0.065 A 
ATOM      5  C   UNL     1     -37.552  22.971   2.956  0.00  0.00    +0.268 A 
ATOM      6  C   UNL     1     -36.718  20.999   1.065  0.00  0.00    +0.052 A 
ATOM      7  C   UNL     1     -38.348  22.709   1.712  0.00  0.00    +0.143 A 
ATOM      8  C   UNL     1     -37.947  21.775   0.830  0.00  0.00    +0.144 A 
ATOM      9  C   UNL     1     -34.785  20.481   2.433  0.00  0.00    +0.020 C 
ATOM     10  C   UNL     1     -36.286  20.022   0.146  0.00  0.00    +0.034 C 
ATOM     11  C   UNL     1     -34.372  19.517   1.513  0.00  0.00    +0.031 C 
ATOM     12  C   UNL     1     -35.122  19.287   0.369  0.00  0.00    +0.140 C 
ENDROOT
BRANCH   7  15
ATOM     13  O   UNL     1     -40.653  22.929   1.319  0.00  0.00    -0.270 OA
ATOM     14  N   UNL     1     -39.343  24.853   1.467  0.00  0.00    -0.291 N 
ATOM     15  C   UNL     1     -39.578  23.493   1.478  0.00  0.00    +0.254 C 
ATOM     16  H   UNL     1     -38.424  25.173   1.609  0.00  0.00    +0.150 HD
BRANCH  14  17
ATOM     17  C   UNL     1     -40.389  25.829   1.256  0.00  0.00    +0.201 C 
BRANCH  17  19
ATOM     18  O   UNL     1     -41.643  27.405   2.575  0.00  0.00    -0.248 OA
ATOM     19  C   UNL     1     -40.682  26.650   2.486  0.00  0.00    +0.334 C 
BRANCH  19  20
ATOM     20  O   UNL     1     -39.782  26.474   3.480  0.00  0.00    -0.479 OA
ATOM     21  H   UNL     1     -39.414  27.218   3.915  0.00  0.00    +0.295 HD
ENDBRANCH  19  20
ENDBRANCH  17  19
ENDBRANCH  14  17
ENDBRANCH   7  15
BRANCH   8  22
ATOM     22  O   UNL     1     -38.603  21.450  -0.340  0.00  0.00    -0.505 OA
ATOM     23  H   UNL     1     -38.344  20.693  -0.828  0.00  0.00    +0.292 HD
ENDBRANCH   8  22
BRANCH   3  24
ATOM     24  C   UNL     1     -35.597  22.457   4.360  0.00  0.00    +0.109 C 
BRANCH  24  25
ATOM     25  C   UNL     1     -34.795  23.750   4.278  0.00  0.00    +0.025 C 
BRANCH  25  26
ATOM     26  C   UNL     1     -34.859  24.555   5.541  0.00  0.00    +0.002 C 
ATOM     27  C   UNL     1     -35.728  25.777   5.588  0.00  0.00    +0.000 C 
ATOM     28  C   UNL     1     -34.234  25.919   5.573  0.00  0.00    +0.000 C 
ENDBRANCH  25  26
ENDBRANCH  24  25
ENDBRANCH   3  24
TORSDOF 8
ENDMDL
MODEL 5
REMARK VINA RESULT:      -5.9      4.853      7.768
REMARK  Name = 54685147
REMARK  8 active torsions:
REMARK  status: ('A' for Active; 'I' for Inactive)
REMARK    1  A    between atoms: N_3  and  C_24
REMARK    2  A    between atoms: C_7  and  C_15
REMARK    3  A    between atoms: C_8  and  O_22
REMARK    4  A    between atoms: N_14  and  C_17
REMARK    5  A    between atoms: C_17  and  C_19
REMARK    6  A    between atoms: C_19  and  O_20
REMARK    7  A    between atoms: C_24  and  C_25
REMARK    8  A    between atoms: C_25  and  C_26
REMARK                            x       y       z     vdW  Elec       q    Type
REMARK                         _______ _______ _______ _____ _____    ______ ____
ROOT
ATOM      1  F   UNL     1     -38.080  27.664   0.140  0.00  0.00    -0.204 F 
ATOM      2  O   UNL     1     -32.949  26.611   5.709  0.00  0.00    -0.267 OA
ATOM      3  N   UNL     1     -34.869  26.220   4.469  0.00  0.00    -0.295 N 
ATOM      4  C   UNL     1     -35.699  26.581   3.364  0.00  0.00    +0.065 A 
ATOM      5  C   UNL     1     -33.686  26.899   4.762  0.00  0.00    +0.268 A 
ATOM      6  C   UNL     1     -35.319  27.654   2.543  0.00  0.00    +0.052 A 
ATOM      7  C   UNL     1     -33.297  28.041   3.871  0.00  0.00    +0.143 A 
ATOM      8  C   UNL     1     -34.075  28.389   2.830  0.00  0.00    +0.144 A 
ATOM      9  C   UNL     1     -36.891  25.888   3.076  0.00  0.00    +0.020 C 
ATOM     10  C   UNL     1     -36.139  28.007   1.453  0.00  0.00    +0.034 C 
ATOM     11  C   UNL     1     -37.691  26.251   1.994  0.00  0.00    +0.031 C 
ATOM     12  C   UNL     1     -37.315  27.310   1.181  0.00  0.00    +0.140 C 
ENDROOT
BRANCH   7  15
ATOM     13  O   UNL     1     -31.193  28.913   3.294  0.00  0.00    -0.270 OA
ATOM     14  N   UNL     1     -31.997  29.239   5.458  0.00  0.00    -0.291 N 
ATOM     15  C   UNL     1     -32.047  28.773   4.160  0.00  0.00    +0.254 C 
ATOM     16  H   UNL     1     -32.759  29.055   6.054  0.00  0.00    +0.150 HD
BRANCH  14  17
ATOM     17  C   UNL     1     -30.875  29.985   5.983  0.00  0.00    +0.201 C 
BRANCH  17  19
ATOM     18  O   UNL     1     -28.892  29.564   7.281  0.00  0.00    -0.248 OA
ATOM     19  C   UNL     1     -29.891  29.120   6.727  0.00  0.00    +0.334 C 
BRANCH  19  20
ATOM     20  O   UNL     1     -30.215  27.807   6.723  0.00  0.00    -0.479 OA
ATOM     21  H   UNL     1     -30.917  27.496   7.259  0.00  0.00    +0.295 HD
ENDBRANCH  19  20
ENDBRANCH  17  19
ENDBRANCH  14  17
ENDBRANCH   7  15
BRANCH   8  22
ATOM     22  O   UNL     1     -33.817  29.422   1.952  0.00  0.00    -0.505 OA
ATOM     23  H   UNL     1     -33.391  29.248   1.136  0.00  0.00    +0.292 HD
ENDBRANCH   8  22
BRANCH   3  24
ATOM     24  C   UNL     1     -35.273  25.103   5.323  0.00  0.00    +0.109 C 
BRANCH  24  25
ATOM     25  C   UNL     1     -34.680  23.778   4.858  0.00  0.00    +0.025 C 
BRANCH  25  26
ATOM     26  C   UNL     1     -35.564  22.606   5.164  0.00  0.00    +0.002 C 
ATOM     27  C   UNL     1     -35.650  22.103   6.574  0.00  0.00    +0.000 C 
ATOM     28  C   UNL     1     -34.938  21.293   5.531  0.00  0.00    +0.000 C 
ENDBRANCH  25  26
ENDBRANCH  24  25
ENDBRANCH   3  24
TORSDOF 8
ENDMDL
MODEL 6
REMARK VINA RESULT:      -5.8      2.797      5.040
REMARK  Name = 54685147
REMARK  8 active torsions:
REMARK  status: ('A' for Active; 'I' for Inactive)
REMARK    1  A    between atoms: N_3  and  C_24
REMARK    2  A    between atoms: C_7  and  C_15
REMARK    3  A    between atoms: C_8  and  O_22
REMARK    4  A    between atoms: N_14  and  C_17
REMARK    5  A    between atoms: C_17  and  C_19
REMARK    6  A    between atoms: C_19  and  O_20
REMARK    7  A    between atoms: C_24  and  C_25
REMARK    8  A    between atoms: C_25  and  C_26
REMARK                            x       y       z     vdW  Elec       q    Type
REMARK                         _______ _______ _______ _____ _____    ______ ____
ROOT
ATOM      1  F   UNL     1     -34.418  26.386   6.374  0.00  0.00    -0.204 F 
ATOM      2  O   UNL     1     -38.583  21.983   1.714  0.00  0.00    -0.267 OA
ATOM      3  N   UNL     1     -36.836  22.541   3.133  0.00  0.00    -0.295 N 
ATOM      4  C   UNL     1     -36.208  23.517   3.965  0.00  0.00    +0.065 A 
ATOM      5  C   UNL     1     -38.017  22.805   2.439  0.00  0.00    +0.268 A 
ATOM      6  C   UNL     1     -36.792  24.787   4.092  0.00  0.00    +0.052 A 
ATOM      7  C   UNL     1     -38.626  24.168   2.590  0.00  0.00    +0.143 A 
ATOM      8  C   UNL     1     -38.038  25.094   3.370  0.00  0.00    +0.144 A 
ATOM      9  C   UNL     1     -35.017  23.239   4.662  0.00  0.00    +0.020 C 
ATOM     10  C   UNL     1     -36.171  25.748   4.914  0.00  0.00    +0.034 C 
ATOM     11  C   UNL     1     -34.415  24.201   5.471  0.00  0.00    +0.031 C 
ATOM     12  C   UNL     1     -34.991  25.457   5.598  0.00  0.00    +0.140 C 
ENDROOT
BRANCH   7  15
ATOM     13  O   UNL     1     -40.857  24.894   2.468  0.00  0.00    -0.270 OA
ATOM     14  N   UNL     1     -39.779  24.220   0.514  0.00  0.00    -0.291 N 
ATOM     15  C   UNL     1     -39.878  24.470   1.867  0.00  0.00    +0.254 C 
ATOM     16  H   UNL     1     -38.926  23.879   0.159  0.00  0.00    +0.150 HD
BRANCH  14  17
ATOM     17  C   UNL     1     -40.872  24.437  -0.408  0.00  0.00    +0.201 C 
BRANCH  17  19
ATOM     18  O   UNL     1     -42.011  22.322  -0.565  0.00  0.00    -0.248 OA
ATOM     19  C   UNL     1     -42.022  23.488  -0.188  0.00  0.00    +0.334 C 
BRANCH  19  20
ATOM     20  O   UNL     1     -43.068  24.047   0.463  0.00  0.00    -0.479 OA
ATOM     21  H   UNL     1     -43.844  23.547   0.618  0.00  0.00    +0.295 HD
ENDBRANCH  19  20
ENDBRANCH  17  19
ENDBRANCH  14  17
ENDBRANCH   7  15
BRANCH   8  22
ATOM     22  O   UNL     1     -38.507  26.376   3.575  0.00  0.00    -0.505 OA
ATOM     23  H   UNL     1     -38.892  26.608   4.397  0.00  0.00    +0.292 HD
ENDBRANCH   8  22
BRANCH   3  24
ATOM     24  C   UNL     1     -36.221  21.220   3.003  0.00  0.00    +0.109 C 
BRANCH  24  25
ATOM     25  C   UNL     1     -35.233  21.155   1.845  0.00  0.00    +0.025 C 
BRANCH  25  26
ATOM     26  C   UNL     1     -34.486  19.856   1.790  0.00  0.00    +0.002 C 
ATOM     27  C   UNL     1     -33.267  19.748   0.922  0.00  0.00    +0.000 C 
ATOM     28  C   UNL     1     -34.531  19.037   0.533  0.00  0.00    +0.000 C 
ENDBRANCH  25  26
ENDBRANCH  24  25
ENDBRANCH   3  24
TORSDOF 8
ENDMDL
MODEL 7
REMARK VINA RESULT:      -5.8      3.199      6.091
REMARK  Name = 54685147
REMARK  8 active torsions:
REMARK  status: ('A' for Active; 'I' for Inactive)
REMARK    1  A    between atoms: N_3  and  C_24
REMARK    2  A    between atoms: C_7  and  C_15
REMARK    3  A    between atoms: C_8  and  O_22
REMARK    4  A    between atoms: N_14  and  C_17
REMARK    5  A    between atoms: C_17  and  C_19
REMARK    6  A    between atoms: C_19  and  O_20
REMARK    7  A    between atoms: C_24  and  C_25
REMARK    8  A    between atoms: C_25  and  C_26
REMARK                            x       y       z     vdW  Elec       q    Type
REMARK                         _______ _______ _______ _____ _____    ______ ____
ROOT
ATOM      1  F   UNL     1     -41.211  23.678   0.809  0.00  0.00    -0.204 F 
ATOM      2  O   UNL     1     -34.646  23.110   4.685  0.00  0.00    -0.267 OA
ATOM      3  N   UNL     1     -36.390  22.421   3.321  0.00  0.00    -0.295 N 
ATOM      4  C   UNL     1     -37.625  22.732   2.673  0.00  0.00    +0.065 A 
ATOM      5  C   UNL     1     -35.714  23.348   4.113  0.00  0.00    +0.268 A 
ATOM      6  C   UNL     1     -38.182  24.009   2.837  0.00  0.00    +0.052 A 
ATOM      7  C   UNL     1     -36.325  24.709   4.274  0.00  0.00    +0.143 A 
ATOM      8  C   UNL     1     -37.491  25.007   3.671  0.00  0.00    +0.144 A 
ATOM      9  C   UNL     1     -38.298  21.789   1.873  0.00  0.00    +0.020 C 
ATOM     10  C   UNL     1     -39.400  24.313   2.197  0.00  0.00    +0.034 C 
ATOM     11  C   UNL     1     -39.503  22.105   1.247  0.00  0.00    +0.031 C 
ATOM     12  C   UNL     1     -40.055  23.368   1.408  0.00  0.00    +0.140 C 
ENDROOT
BRANCH   7  15
ATOM     13  O   UNL     1     -36.236  26.344   5.958  0.00  0.00    -0.270 OA
ATOM     14  N   UNL     1     -34.284  25.803   4.802  0.00  0.00    -0.291 N 
ATOM     15  C   UNL     1     -35.627  25.707   5.108  0.00  0.00    +0.254 C 
ATOM     16  H   UNL     1     -33.921  25.228   4.091  0.00  0.00    +0.150 HD
BRANCH  14  17
ATOM     17  C   UNL     1     -33.387  26.712   5.481  0.00  0.00    +0.201 C 
BRANCH  17  19
ATOM     18  O   UNL     1     -31.536  27.681   4.284  0.00  0.00    -0.248 OA
ATOM     19  C   UNL     1     -32.733  27.698   4.546  0.00  0.00    +0.334 C 
BRANCH  19  20
ATOM     20  O   UNL     1     -33.593  28.603   4.027  0.00  0.00    -0.479 OA
ATOM     21  H   UNL     1     -33.358  29.086   3.259  0.00  0.00    +0.295 HD
ENDBRANCH  19  20
ENDBRANCH  17  19
ENDBRANCH  14  17
ENDBRANCH   7  15
BRANCH   8  22
ATOM     22  O   UNL     1     -38.143  26.220   3.754  0.00  0.00    -0.505 OA
ATOM     23  H   UNL     1     -37.652  27.018   3.749  0.00  0.00    +0.292 HD
ENDBRANCH   8  22
BRANCH   3  24
ATOM     24  C   UNL     1     -35.815  21.087   3.147  0.00  0.00    +0.109 C 
BRANCH  24  25
ATOM     25  C   UNL     1     -34.825  21.031   1.990  0.00  0.00    +0.025 C 
BRANCH  25  26
ATOM     26  C   UNL     1     -34.671  19.652   1.423  0.00  0.00    +0.002 C 
ATOM     27  C   UNL     1     -33.300  19.051   1.321  0.00  0.00    +0.000 C 
ATOM     28  C   UNL     1     -34.025  19.480   0.079  0.00  0.00    +0.000 C 
ENDBRANCH  25  26
ENDBRANCH  24  25
ENDBRANCH   3  24
TORSDOF 8
ENDMDL
MODEL 8
REMARK VINA RESULT:      -5.8      5.262      8.395
REMARK  Name = 54685147
REMARK  8 active torsions:
REMARK  status: ('A' for Active; 'I' for Inactive)
REMARK    1  A    between atoms: N_3  and  C_24
REMARK    2  A    between atoms: C_7  and  C_15
REMARK    3  A    between atoms: C_8  and  O_22
REMARK    4  A    between atoms: N_14  and  C_17
REMARK    5  A    between atoms: C_17  and  C_19
REMARK    6  A    between atoms: C_19  and  O_20
REMARK    7  A    between atoms: C_24  and  C_25
REMARK    8  A    between atoms: C_25  and  C_26
REMARK                            x       y       z     vdW  Elec       q    Type
REMARK                         _______ _______ _______ _____ _____    ______ ____
ROOT
ATOM      1  F   UNL     1     -37.262  28.166   0.359  0.00  0.00    -0.204 F 
ATOM      2  O   UNL     1     -32.578  26.730   6.228  0.00  0.00    -0.267 OA
ATOM      3  N   UNL     1     -34.399  26.433   4.825  0.00  0.00    -0.295 N 
ATOM      4  C   UNL     1     -35.140  26.868   3.683  0.00  0.00    +0.065 A 
ATOM      5  C   UNL     1     -33.239  27.082   5.248  0.00  0.00    +0.268 A 
ATOM      6  C   UNL     1     -34.693  27.985   2.961  0.00  0.00    +0.052 A 
ATOM      7  C   UNL     1     -32.777  28.272   4.460  0.00  0.00    +0.143 A 
ATOM      8  C   UNL     1     -33.472  28.690   3.386  0.00  0.00    +0.144 A 
ATOM      9  C   UNL     1     -36.309  26.205   3.263  0.00  0.00    +0.020 C 
ATOM     10  C   UNL     1     -35.425  28.411   1.835  0.00  0.00    +0.034 C 
ATOM     11  C   UNL     1     -37.023  26.640   2.148  0.00  0.00    +0.031 C 
ATOM     12  C   UNL     1     -36.581  27.743   1.432  0.00  0.00    +0.140 C 
ENDROOT
BRANCH   7  15
ATOM     13  O   UNL     1     -31.603  30.128   5.294  0.00  0.00    -0.270 OA
ATOM     14  N   UNL     1     -30.423  28.187   4.768  0.00  0.00    -0.291 N 
ATOM     15  C   UNL     1     -31.550  28.974   4.888  0.00  0.00    +0.254 C 
ATOM     16  H   UNL     1     -30.523  27.269   4.425  0.00  0.00    +0.150 HD
BRANCH  14  17
ATOM     17  C   UNL     1     -29.100  28.650   5.124  0.00  0.00    +0.201 C 
BRANCH  17  19
ATOM     18  O   UNL     1     -27.486  28.291   6.874  0.00  0.00    -0.248 OA
ATOM     19  C   UNL     1     -28.593  28.047   6.409  0.00  0.00    +0.334 C 
BRANCH  19  20
ATOM     20  O   UNL     1     -29.476  27.208   6.998  0.00  0.00    -0.479 OA
ATOM     21  H   UNL     1     -29.746  26.427   6.558  0.00  0.00    +0.295 HD
ENDBRANCH  19  20
ENDBRANCH  17  19
ENDBRANCH  14  17
ENDBRANCH   7  15
BRANCH   8  22
ATOM     22  O   UNL     1     -33.142  29.771   2.595  0.00  0.00    -0.505 OA
ATOM     23  H   UNL     1     -32.998  29.654   1.677  0.00  0.00    +0.292 HD
ENDBRANCH   8  22
BRANCH   3  24
ATOM     24  C   UNL     1     -34.872  25.270   5.575  0.00  0.00    +0.109 C 
BRANCH  24  25
ATOM     25  C   UNL     1     -34.448  23.956   4.930  0.00  0.00    +0.025 C 
BRANCH  25  26
ATOM     26  C   UNL     1     -35.424  22.845   5.178  0.00  0.00    +0.002 C 
ATOM     27  C   UNL     1     -35.512  22.239   6.548  0.00  0.00    +0.000 C 
ATOM     28  C   UNL     1     -34.908  21.457   5.419  0.00  0.00    +0.000 C 
ENDBRANCH  25  26
ENDBRANCH  24  25
ENDBRANCH   3  24
TORSDOF 8
ENDMDL
MODEL 9
REMARK VINA RESULT:      -5.7      3.965      6.424
REMARK  Name = 54685147
REMARK  8 active torsions:
REMARK  status: ('A' for Active; 'I' for Inactive)
REMARK    1  A    between atoms: N_3  and  C_24
REMARK    2  A    between atoms: C_7  and  C_15
REMARK    3  A    between atoms: C_8  and  O_22
REMARK    4  A    between atoms: N_14  and  C_17
REMARK    5  A    between atoms: C_17  and  C_19
REMARK    6  A    between atoms: C_19  and  O_20
REMARK    7  A    between atoms: C_24  and  C_25
REMARK    8  A    between atoms: C_25  and  C_26
REMARK                            x       y       z     vdW  Elec       q    Type
REMARK                         _______ _______ _______ _____ _____    ______ ____
ROOT
ATOM      1  F   UNL     1     -39.842  25.198   0.506  0.00  0.00    -0.204 F 
ATOM      2  O   UNL     1     -33.998  27.236   4.994  0.00  0.00    -0.267 OA
ATOM      3  N   UNL     1     -35.895  26.066   4.353  0.00  0.00    -0.295 N 
ATOM      4  C   UNL     1     -36.910  25.835   3.375  0.00  0.00    +0.065 A 
ATOM      5  C   UNL     1     -34.888  27.014   4.169  0.00  0.00    +0.268 A 
ATOM      6  C   UNL     1     -36.902  26.585   2.189  0.00  0.00    +0.052 A 
ATOM      7  C   UNL     1     -34.896  27.803   2.892  0.00  0.00    +0.143 A 
ATOM      8  C   UNL     1     -35.852  27.593   1.968  0.00  0.00    +0.144 A 
ATOM      9  C   UNL     1     -37.921  24.875   3.571  0.00  0.00    +0.020 C 
ATOM     10  C   UNL     1     -37.904  26.354   1.226  0.00  0.00    +0.034 C 
ATOM     11  C   UNL     1     -38.906  24.660   2.608  0.00  0.00    +0.031 C 
ATOM     12  C   UNL     1     -38.898  25.400   1.435  0.00  0.00    +0.140 C 
ENDROOT
BRANCH   7  15
ATOM     13  O   UNL     1     -33.068  28.708   1.728  0.00  0.00    -0.270 OA
ATOM     14  N   UNL     1     -33.854  29.807   3.629  0.00  0.00    -0.291 N 
ATOM     15  C   UNL     1     -33.839  28.810   2.674  0.00  0.00    +0.254 C 
ATOM     16  H   UNL     1     -34.534  29.767   4.340  0.00  0.00    +0.150 HD
BRANCH  14  17
ATOM     17  C   UNL     1     -32.917  30.908   3.630  0.00  0.00    +0.201 C 
BRANCH  17  19
ATOM     18  O   UNL     1     -30.966  31.564   4.879  0.00  0.00    -0.248 OA
ATOM     19  C   UNL     1     -31.977  30.876   4.808  0.00  0.00    +0.334 C 
BRANCH  19  20
ATOM     20  O   UNL     1     -32.356  30.014   5.780  0.00  0.00    -0.479 OA
ATOM     21  H   UNL     1     -33.190  29.589   5.730  0.00  0.00    +0.295 HD
ENDBRANCH  19  20
ENDBRANCH  17  19
ENDBRANCH  14  17
ENDBRANCH   7  15
BRANCH   8  22
ATOM     22  O   UNL     1     -35.957  28.263   0.766  0.00  0.00    -0.505 OA
ATOM     23  H   UNL     1     -35.195  28.637   0.370  0.00  0.00    +0.292 HD
ENDBRANCH   8  22
BRANCH   3  24
ATOM     24  C   UNL     1     -35.910  25.284   5.589  0.00  0.00    +0.109 C 
BRANCH  24  25
ATOM     25  C   UNL     1     -34.955  24.098   5.533  0.00  0.00    +0.025 C 
BRANCH  25  26
ATOM     26  C   UNL     1     -35.650  22.782   5.713  0.00  0.00    +0.002 C 
ATOM     27  C   UNL     1     -34.857  21.590   6.161  0.00  0.00    +0.000 C 
ATOM     28  C   UNL     1     -35.366  21.666   4.751  0.00  0.00    +0.000 C 
ENDBRANCH  25  26
ENDBRANCH  24  25
ENDBRANCH   3  24
TORSDOF 8
ENDMDL
