MODEL 1
REMARK VINA RESULT:      -5.7      0.000      0.000
REMARK  Name = 5283038
REMARK  16 active torsions:
REMARK  status: ('A' for Active; 'I' for Inactive)
REMARK    1  A    between atoms: C_2  and  C_9
REMARK    2  A    between atoms: C_3  and  C_21
REMARK    3  A    between atoms: C_4  and  O_7
REMARK    4  A    between atoms: C_10  and  C_11
REMARK    5  A    between atoms: C_11  and  O_12
REMARK    6  A    between atoms: C_11  and  C_14
REMARK    7  A    between atoms: C_14  and  C_15
REMARK    8  A    between atoms: C_15  and  C_16
REMARK    9  A    between atoms: C_16  and  C_17
REMARK   10  A    between atoms: C_17  and  O_19
REMARK   11  A    between atoms: C_21  and  C_22
REMARK   12  A    between atoms: C_23  and  C_24
REMARK   13  A    between atoms: C_24  and  C_25
REMARK   14  A    between atoms: C_25  and  C_26
REMARK   15  A    between atoms: C_26  and  C_28
REMARK   16  A    between atoms: C_28  and  O_29
REMARK                            x       y       z     vdW  Elec       q    Type
REMARK                         _______ _______ _______ _____ _____    ______ ____
ROOT
ATOM      1  O   UNL     1     -35.191  26.893   4.478  0.00  0.00    -0.296 OA
ATOM      2  C   UNL     1     -36.354  23.571   4.151  0.00  0.00    +0.056 C 
ATOM      3  C   UNL     1     -35.887  24.830   3.404  0.00  0.00    +0.068 C 
ATOM      4  C   UNL     1     -35.367  23.451   5.320  0.00  0.00    +0.122 C 
ATOM      5  C   UNL     1     -35.176  24.884   5.809  0.00  0.00    +0.094 C 
ATOM      6  C   UNL     1     -35.397  25.688   4.553  0.00  0.00    +0.153 C 
ENDROOT
BRANCH   4   7
ATOM      7  O   UNL     1     -35.923  22.646   6.347  0.00  0.00    -0.384 OA
ATOM      8  H   UNL     1     -36.254  23.214   7.061  0.00  0.00    +0.210 HD
ENDBRANCH   4   7
BRANCH   2   9
ATOM      9  C   UNL     1     -36.372  22.358   3.276  0.00  0.00    -0.026 C 
ATOM     10  C   UNL     1     -35.387  21.448   3.242  0.00  0.00    -0.002 C 
BRANCH  10  11
ATOM     11  C   UNL     1     -35.410  20.230   2.363  0.00  0.00    +0.132 C 
BRANCH  11  12
ATOM     12  O   UNL     1     -36.747  19.738   2.302  0.00  0.00    -0.380 OA
ATOM     13  H   UNL     1     -36.782  18.966   1.715  0.00  0.00    +0.211 HD
ENDBRANCH  11  12
BRANCH  11  14
ATOM     14  C   UNL     1     -34.939  20.571   0.944  0.00  0.00    +0.034 C 
BRANCH  14  15
ATOM     15  C   UNL     1     -33.483  20.148   0.701  0.00  0.00    +0.005 C 
BRANCH  15  16
ATOM     16  C   UNL     1     -33.228  18.727   1.220  0.00  0.00    +0.029 C 
BRANCH  16  17
ATOM     17  C   UNL     1     -33.524  17.621   0.202  0.00  0.00    +0.111 C 
ATOM     18  C   UNL     1     -32.460  16.534   0.155  0.00  0.00    +0.032 C 
BRANCH  17  19
ATOM     19  O   UNL     1     -34.786  17.032   0.511  0.00  0.00    -0.384 OA
ATOM     20  H   UNL     1     -35.105  17.380   1.358  0.00  0.00    +0.210 HD
ENDBRANCH  17  19
ENDBRANCH  16  17
ENDBRANCH  15  16
ENDBRANCH  14  15
ENDBRANCH  11  14
ENDBRANCH  10  11
ENDBRANCH   2   9
BRANCH   3  21
ATOM     21  C   UNL     1     -36.990  25.502   2.606  0.00  0.00    +0.033 C 
BRANCH  21  22
ATOM     22  C   UNL     1     -38.282  25.781   3.326  0.00  0.00    -0.030 C 
ATOM     23  C   UNL     1     -39.502  25.324   3.005  0.00  0.00    -0.031 C 
BRANCH  23  24
ATOM     24  C   UNL     1     -39.772  24.430   1.831  0.00  0.00    +0.026 C 
BRANCH  24  25
ATOM     25  C   UNL     1     -39.670  22.934   2.158  0.00  0.00    +0.016 C 
BRANCH  25  26
ATOM     26  C   UNL     1     -38.965  22.107   1.080  0.00  0.00    +0.110 C 
BRANCH  26  28
ATOM     27  O   UNL     1     -40.997  20.861   0.582  0.00  0.00    -0.250 OA
ATOM     28  C   UNL     1     -39.776  20.927   0.587  0.00  0.00    +0.314 C 
BRANCH  28  29
ATOM     29  O   UNL     1     -38.980  19.906   0.179  0.00  0.00    -0.480 OA
ATOM     30  H   UNL     1     -39.136  19.490  -0.647  0.00  0.00    +0.295 HD
ENDBRANCH  28  29
ENDBRANCH  26  28
ENDBRANCH  25  26
ENDBRANCH  24  25
ENDBRANCH  23  24
ENDBRANCH  21  22
ENDBRANCH   3  21
TORSDOF 16
ENDMDL
MODEL 2
REMARK VINA RESULT:      -5.6      3.024      6.208
REMARK  Name = 5283038
REMARK  16 active torsions:
REMARK  status: ('A' for Active; 'I' for Inactive)
REMARK    1  A    between atoms: C_2  and  C_9
REMARK    2  A    between atoms: C_3  and  C_21
REMARK    3  A    between atoms: C_4  and  O_7
REMARK    4  A    between atoms: C_10  and  C_11
REMARK    5  A    between atoms: C_11  and  O_12
REMARK    6  A    between atoms: C_11  and  C_14
REMARK    7  A    between atoms: C_14  and  C_15
REMARK    8  A    between atoms: C_15  and  C_16
REMARK    9  A    between atoms: C_16  and  C_17
REMARK   10  A    between atoms: C_17  and  O_19
REMARK   11  A    between atoms: C_21  and  C_22
REMARK   12  A    between atoms: C_23  and  C_24
REMARK   13  A    between atoms: C_24  and  C_25
REMARK   14  A    between atoms: C_25  and  C_26
REMARK   15  A    between atoms: C_26  and  C_28
REMARK   16  A    between atoms: C_28  and  O_29
REMARK                            x       y       z     vdW  Elec       q    Type
REMARK                         _______ _______ _______ _____ _____    ______ ____
ROOT
ATOM      1  O   UNL     1     -33.831  26.723   5.830  0.00  0.00    -0.296 OA
ATOM      2  C   UNL     1     -35.547  24.628   3.557  0.00  0.00    +0.056 C 
ATOM      3  C   UNL     1     -34.183  24.993   4.163  0.00  0.00    +0.068 C 
ATOM      4  C   UNL     1     -36.499  24.642   4.761  0.00  0.00    +0.122 C 
ATOM      5  C   UNL     1     -36.065  25.856   5.579  0.00  0.00    +0.094 C 
ATOM      6  C   UNL     1     -34.596  25.956   5.258  0.00  0.00    +0.153 C 
ENDROOT
BRANCH   4   7
ATOM      7  O   UNL     1     -37.839  24.791   4.322  0.00  0.00    -0.384 OA
ATOM      8  H   UNL     1     -38.158  23.948   3.963  0.00  0.00    +0.210 HD
ENDBRANCH   4   7
BRANCH   2   9
ATOM      9  C   UNL     1     -35.526  23.313   2.845  0.00  0.00    -0.026 C 
ATOM     10  C   UNL     1     -35.612  22.127   3.466  0.00  0.00    -0.002 C 
BRANCH  10  11
ATOM     11  C   UNL     1     -35.592  20.808   2.746  0.00  0.00    +0.132 C 
BRANCH  11  12
ATOM     12  O   UNL     1     -36.929  20.464   2.391  0.00  0.00    -0.380 OA
ATOM     13  H   UNL     1     -37.524  21.196   2.619  0.00  0.00    +0.211 HD
ENDBRANCH  11  12
BRANCH  11  14
ATOM     14  C   UNL     1     -34.744  20.894   1.471  0.00  0.00    +0.034 C 
BRANCH  14  15
ATOM     15  C   UNL     1     -34.477  19.511   0.862  0.00  0.00    +0.005 C 
BRANCH  15  16
ATOM     16  C   UNL     1     -33.349  18.788   1.607  0.00  0.00    +0.029 C 
BRANCH  16  17
ATOM     17  C   UNL     1     -32.143  18.429   0.732  0.00  0.00    +0.111 C 
ATOM     18  C   UNL     1     -31.435  19.640   0.141  0.00  0.00    +0.032 C 
BRANCH  17  19
ATOM     19  O   UNL     1     -31.216  17.674   1.508  0.00  0.00    -0.384 OA
ATOM     20  H   UNL     1     -30.866  18.228   2.223  0.00  0.00    +0.210 HD
ENDBRANCH  17  19
ENDBRANCH  16  17
ENDBRANCH  15  16
ENDBRANCH  14  15
ENDBRANCH  11  14
ENDBRANCH  10  11
ENDBRANCH   2   9
BRANCH   3  21
ATOM     21  C   UNL     1     -33.228  25.622   3.165  0.00  0.00    +0.033 C 
BRANCH  21  22
ATOM     22  C   UNL     1     -33.713  26.845   2.433  0.00  0.00    -0.030 C 
ATOM     23  C   UNL     1     -33.207  28.086   2.508  0.00  0.00    -0.031 C 
BRANCH  23  24
ATOM     24  C   UNL     1     -32.033  28.454   3.368  0.00  0.00    +0.026 C 
BRANCH  24  25
ATOM     25  C   UNL     1     -32.333  29.576   4.373  0.00  0.00    +0.016 C 
BRANCH  25  26
ATOM     26  C   UNL     1     -31.238  29.779   5.424  0.00  0.00    +0.110 C 
BRANCH  26  28
ATOM     27  O   UNL     1     -30.072  27.798   6.230  0.00  0.00    -0.250 OA
ATOM     28  C   UNL     1     -31.015  28.574   6.313  0.00  0.00    +0.314 C 
BRANCH  28  29
ATOM     29  O   UNL     1     -32.022  28.417   7.209  0.00  0.00    -0.480 OA
ATOM     30  H   UNL     1     -31.838  28.427   8.129  0.00  0.00    +0.295 HD
ENDBRANCH  28  29
ENDBRANCH  26  28
ENDBRANCH  25  26
ENDBRANCH  24  25
ENDBRANCH  23  24
ENDBRANCH  21  22
ENDBRANCH   3  21
TORSDOF 16
ENDMDL
MODEL 3
REMARK VINA RESULT:      -5.5      2.011      6.939
REMARK  Name = 5283038
REMARK  16 active torsions:
REMARK  status: ('A' for Active; 'I' for Inactive)
REMARK    1  A    between atoms: C_2  and  C_9
REMARK    2  A    between atoms: C_3  and  C_21
REMARK    3  A    between atoms: C_4  and  O_7
REMARK    4  A    between atoms: C_10  and  C_11
REMARK    5  A    between atoms: C_11  and  O_12
REMARK    6  A    between atoms: C_11  and  C_14
REMARK    7  A    between atoms: C_14  and  C_15
REMARK    8  A    between atoms: C_15  and  C_16
REMARK    9  A    between atoms: C_16  and  C_17
REMARK   10  A    between atoms: C_17  and  O_19
REMARK   11  A    between atoms: C_21  and  C_22
REMARK   12  A    between atoms: C_23  and  C_24
REMARK   13  A    between atoms: C_24  and  C_25
REMARK   14  A    between atoms: C_25  and  C_26
REMARK   15  A    between atoms: C_26  and  C_28
REMARK   16  A    between atoms: C_28  and  O_29
REMARK                            x       y       z     vdW  Elec       q    Type
REMARK                         _______ _______ _______ _____ _____    ______ ____
ROOT
ATOM      1  O   UNL     1     -34.176  21.147  -1.620  0.00  0.00    -0.296 OA
ATOM      2  C   UNL     1     -35.431  20.317   1.578  0.00  0.00    +0.056 C 
ATOM      3  C   UNL     1     -34.248  20.904   0.795  0.00  0.00    +0.068 C 
ATOM      4  C   UNL     1     -36.662  20.935   0.902  0.00  0.00    +0.122 C 
ATOM      5  C   UNL     1     -36.340  20.897  -0.590  0.00  0.00    +0.094 C 
ATOM      6  C   UNL     1     -34.836  20.997  -0.599  0.00  0.00    +0.153 C 
ENDROOT
BRANCH   4   7
ATOM      7  O   UNL     1     -37.815  20.157   1.181  0.00  0.00    -0.384 OA
ATOM      8  H   UNL     1     -38.535  20.739   1.473  0.00  0.00    +0.210 HD
ENDBRANCH   4   7
BRANCH   2   9
ATOM      9  C   UNL     1     -35.358  20.618   3.041  0.00  0.00    -0.026 C 
ATOM     10  C   UNL     1     -35.704  21.797   3.579  0.00  0.00    -0.002 C 
BRANCH  10  11
ATOM     11  C   UNL     1     -35.629  22.094   5.050  0.00  0.00    +0.132 C 
BRANCH  11  12
ATOM     12  O   UNL     1     -35.320  20.887   5.743  0.00  0.00    -0.380 OA
ATOM     13  H   UNL     1     -35.214  20.165   5.104  0.00  0.00    +0.211 HD
ENDBRANCH  11  12
BRANCH  11  14
ATOM     14  C   UNL     1     -34.537  23.130   5.343  0.00  0.00    +0.034 C 
BRANCH  14  15
ATOM     15  C   UNL     1     -34.737  24.422   4.539  0.00  0.00    +0.005 C 
BRANCH  15  16
ATOM     16  C   UNL     1     -35.957  25.203   5.044  0.00  0.00    +0.029 C 
BRANCH  16  17
ATOM     17  C   UNL     1     -36.980  25.549   3.957  0.00  0.00    +0.111 C 
ATOM     18  C   UNL     1     -36.507  25.222   2.548  0.00  0.00    +0.032 C 
BRANCH  17  19
ATOM     19  O   UNL     1     -38.192  24.847   4.222  0.00  0.00    -0.384 OA
ATOM     20  H   UNL     1     -38.948  25.397   3.963  0.00  0.00    +0.210 HD
ENDBRANCH  17  19
ENDBRANCH  16  17
ENDBRANCH  15  16
ENDBRANCH  14  15
ENDBRANCH  11  14
ENDBRANCH  10  11
ENDBRANCH   2   9
BRANCH   3  21
ATOM     21  C   UNL     1     -33.002  20.037   0.844  0.00  0.00    +0.033 C 
BRANCH  21  22
ATOM     22  C   UNL     1     -33.175  18.619   1.318  0.00  0.00    -0.030 C 
ATOM     23  C   UNL     1     -33.302  17.522   0.557  0.00  0.00    -0.031 C 
BRANCH  23  24
ATOM     24  C   UNL     1     -33.291  17.545  -0.943  0.00  0.00    +0.026 C 
BRANCH  24  25
ATOM     25  C   UNL     1     -34.454  16.771  -1.581  0.00  0.00    +0.016 C 
BRANCH  25  26
ATOM     26  C   UNL     1     -35.834  17.365  -1.286  0.00  0.00    +0.110 C 
BRANCH  26  28
ATOM     27  O   UNL     1     -36.675  15.326  -0.254  0.00  0.00    -0.250 OA
ATOM     28  C   UNL     1     -36.654  16.548  -0.311  0.00  0.00    +0.314 C 
BRANCH  28  29
ATOM     29  O   UNL     1     -37.418  17.337   0.488  0.00  0.00    -0.480 OA
ATOM     30  H   UNL     1     -38.075  17.890   0.111  0.00  0.00    +0.295 HD
ENDBRANCH  28  29
ENDBRANCH  26  28
ENDBRANCH  25  26
ENDBRANCH  24  25
ENDBRANCH  23  24
ENDBRANCH  21  22
ENDBRANCH   3  21
TORSDOF 16
ENDMDL
MODEL 4
REMARK VINA RESULT:      -5.4      2.512      8.375
REMARK  Name = 5283038
REMARK  16 active torsions:
REMARK  status: ('A' for Active; 'I' for Inactive)
REMARK    1  A    between atoms: C_2  and  C_9
REMARK    2  A    between atoms: C_3  and  C_21
REMARK    3  A    between atoms: C_4  and  O_7
REMARK    4  A    between atoms: C_10  and  C_11
REMARK    5  A    between atoms: C_11  and  O_12
REMARK    6  A    between atoms: C_11  and  C_14
REMARK    7  A    between atoms: C_14  and  C_15
REMARK    8  A    between atoms: C_15  and  C_16
REMARK    9  A    between atoms: C_16  and  C_17
REMARK   10  A    between atoms: C_17  and  O_19
REMARK   11  A    between atoms: C_21  and  C_22
REMARK   12  A    between atoms: C_23  and  C_24
REMARK   13  A    between atoms: C_24  and  C_25
REMARK   14  A    between atoms: C_25  and  C_26
REMARK   15  A    between atoms: C_26  and  C_28
REMARK   16  A    between atoms: C_28  and  O_29
REMARK                            x       y       z     vdW  Elec       q    Type
REMARK                         _______ _______ _______ _____ _____    ______ ____
ROOT
ATOM      1  O   UNL     1     -35.612  20.480   0.053  0.00  0.00    -0.296 OA
ATOM      2  C   UNL     1     -37.882  22.087   2.234  0.00  0.00    +0.056 C 
ATOM      3  C   UNL     1     -36.519  22.178   1.532  0.00  0.00    +0.068 C 
ATOM      4  C   UNL     1     -38.817  21.533   1.151  0.00  0.00    +0.122 C 
ATOM      5  C   UNL     1     -37.990  20.465   0.440  0.00  0.00    +0.094 C 
ATOM      6  C   UNL     1     -36.583  20.977   0.610  0.00  0.00    +0.153 C 
ENDROOT
BRANCH   4   7
ATOM      7  O   UNL     1     -39.968  20.956   1.746  0.00  0.00    -0.384 OA
ATOM      8  H   UNL     1     -40.733  21.535   1.600  0.00  0.00    +0.210 HD
ENDBRANCH   4   7
BRANCH   2   9
ATOM      9  C   UNL     1     -38.338  23.403   2.780  0.00  0.00    -0.026 C 
ATOM     10  C   UNL     1     -38.543  24.492   2.025  0.00  0.00    -0.002 C 
BRANCH  10  11
ATOM     11  C   UNL     1     -39.001  25.813   2.578  0.00  0.00    +0.132 C 
BRANCH  11  12
ATOM     12  O   UNL     1     -37.912  26.731   2.523  0.00  0.00    -0.380 OA
ATOM     13  H   UNL     1     -38.132  27.525   3.034  0.00  0.00    +0.211 HD
ENDBRANCH  11  12
BRANCH  11  14
ATOM     14  C   UNL     1     -40.168  26.374   1.756  0.00  0.00    +0.034 C 
BRANCH  14  15
ATOM     15  C   UNL     1     -41.527  26.073   2.404  0.00  0.00    +0.005 C 
BRANCH  15  16
ATOM     16  C   UNL     1     -41.636  26.727   3.787  0.00  0.00    +0.029 C 
BRANCH  16  17
ATOM     17  C   UNL     1     -42.576  27.936   3.841  0.00  0.00    +0.111 C 
ATOM     18  C   UNL     1     -43.987  27.592   4.296  0.00  0.00    +0.032 C 
BRANCH  17  19
ATOM     19  O   UNL     1     -42.022  28.913   4.719  0.00  0.00    -0.384 OA
ATOM     20  H   UNL     1     -42.228  28.677   5.637  0.00  0.00    +0.210 HD
ENDBRANCH  17  19
ENDBRANCH  16  17
ENDBRANCH  15  16
ENDBRANCH  14  15
ENDBRANCH  11  14
ENDBRANCH  10  11
ENDBRANCH   2   9
BRANCH   3  21
ATOM     21  C   UNL     1     -35.342  22.115   2.489  0.00  0.00    +0.033 C 
BRANCH  21  22
ATOM     22  C   UNL     1     -35.587  21.482   3.832  0.00  0.00    -0.030 C 
ATOM     23  C   UNL     1     -35.382  22.036   5.037  0.00  0.00    -0.031 C 
BRANCH  23  24
ATOM     24  C   UNL     1     -34.855  23.427   5.233  0.00  0.00    +0.026 C 
BRANCH  24  25
ATOM     25  C   UNL     1     -35.944  24.510   5.195  0.00  0.00    +0.016 C 
BRANCH  25  26
ATOM     26  C   UNL     1     -35.476  25.880   5.695  0.00  0.00    +0.110 C 
BRANCH  26  28
ATOM     27  O   UNL     1     -34.081  26.573   3.823  0.00  0.00    -0.250 OA
ATOM     28  C   UNL     1     -34.213  26.376   5.023  0.00  0.00    +0.314 C 
BRANCH  28  29
ATOM     29  O   UNL     1     -33.203  26.543   5.914  0.00  0.00    -0.480 OA
ATOM     30  H   UNL     1     -33.339  27.058   6.686  0.00  0.00    +0.295 HD
ENDBRANCH  28  29
ENDBRANCH  26  28
ENDBRANCH  25  26
ENDBRANCH  24  25
ENDBRANCH  23  24
ENDBRANCH  21  22
ENDBRANCH   3  21
TORSDOF 16
ENDMDL
MODEL 5
REMARK VINA RESULT:      -5.4      1.778      3.006
REMARK  Name = 5283038
REMARK  16 active torsions:
REMARK  status: ('A' for Active; 'I' for Inactive)
REMARK    1  A    between atoms: C_2  and  C_9
REMARK    2  A    between atoms: C_3  and  C_21
REMARK    3  A    between atoms: C_4  and  O_7
REMARK    4  A    between atoms: C_10  and  C_11
REMARK    5  A    between atoms: C_11  and  O_12
REMARK    6  A    between atoms: C_11  and  C_14
REMARK    7  A    between atoms: C_14  and  C_15
REMARK    8  A    between atoms: C_15  and  C_16
REMARK    9  A    between atoms: C_16  and  C_17
REMARK   10  A    between atoms: C_17  and  O_19
REMARK   11  A    between atoms: C_21  and  C_22
REMARK   12  A    between atoms: C_23  and  C_24
REMARK   13  A    between atoms: C_24  and  C_25
REMARK   14  A    between atoms: C_25  and  C_26
REMARK   15  A    between atoms: C_26  and  C_28
REMARK   16  A    between atoms: C_28  and  O_29
REMARK                            x       y       z     vdW  Elec       q    Type
REMARK                         _______ _______ _______ _____ _____    ______ ____
ROOT
ATOM      1  O   UNL     1     -35.098  27.734   1.981  0.00  0.00    -0.296 OA
ATOM      2  C   UNL     1     -35.199  25.950   5.031  0.00  0.00    +0.056 C 
ATOM      3  C   UNL     1     -35.624  25.961   3.555  0.00  0.00    +0.068 C 
ATOM      4  C   UNL     1     -33.748  26.448   5.000  0.00  0.00    +0.122 C 
ATOM      5  C   UNL     1     -33.753  27.579   3.974  0.00  0.00    +0.094 C 
ATOM      6  C   UNL     1     -34.860  27.164   3.039  0.00  0.00    +0.153 C 
ENDROOT
BRANCH   4   7
ATOM      7  O   UNL     1     -33.372  26.937   6.277  0.00  0.00    -0.384 OA
ATOM      8  H   UNL     1     -33.472  27.902   6.296  0.00  0.00    +0.210 HD
ENDBRANCH   4   7
BRANCH   2   9
ATOM      9  C   UNL     1     -35.339  24.600   5.659  0.00  0.00    -0.026 C 
ATOM     10  C   UNL     1     -34.856  23.472   5.118  0.00  0.00    -0.002 C 
BRANCH  10  11
ATOM     11  C   UNL     1     -34.998  22.117   5.753  0.00  0.00    +0.132 C 
BRANCH  11  12
ATOM     12  O   UNL     1     -36.187  22.107   6.540  0.00  0.00    -0.380 OA
ATOM     13  H   UNL     1     -36.894  21.654   6.053  0.00  0.00    +0.211 HD
ENDBRANCH  11  12
BRANCH  11  14
ATOM     14  C   UNL     1     -35.097  21.021   4.686  0.00  0.00    +0.034 C 
BRANCH  14  15
ATOM     15  C   UNL     1     -35.536  21.579   3.325  0.00  0.00    +0.005 C 
BRANCH  15  16
ATOM     16  C   UNL     1     -35.966  20.451   2.378  0.00  0.00    +0.029 C 
BRANCH  16  17
ATOM     17  C   UNL     1     -34.924  20.088   1.314  0.00  0.00    +0.111 C 
ATOM     18  C   UNL     1     -34.176  21.291   0.757  0.00  0.00    +0.032 C 
BRANCH  17  19
ATOM     19  O   UNL     1     -33.990  19.170   1.876  0.00  0.00    -0.384 OA
ATOM     20  H   UNL     1     -33.731  19.473   2.761  0.00  0.00    +0.210 HD
ENDBRANCH  17  19
ENDBRANCH  16  17
ENDBRANCH  15  16
ENDBRANCH  14  15
ENDBRANCH  11  14
ENDBRANCH  10  11
ENDBRANCH   2   9
BRANCH   3  21
ATOM     21  C   UNL     1     -37.124  26.097   3.360  0.00  0.00    +0.033 C 
BRANCH  21  22
ATOM     22  C   UNL     1     -37.953  24.856   3.550  0.00  0.00    -0.030 C 
ATOM     23  C   UNL     1     -38.234  23.922   2.628  0.00  0.00    -0.031 C 
BRANCH  23  24
ATOM     24  C   UNL     1     -37.743  23.979   1.211  0.00  0.00    +0.026 C 
BRANCH  24  25
ATOM     25  C   UNL     1     -38.048  22.711   0.401  0.00  0.00    +0.016 C 
BRANCH  25  26
ATOM     26  C   UNL     1     -39.535  22.511   0.092  0.00  0.00    +0.110 C 
BRANCH  26  28
ATOM     27  O   UNL     1     -40.451  20.280  -0.245  0.00  0.00    -0.250 OA
ATOM     28  C   UNL     1     -40.069  21.159   0.515  0.00  0.00    +0.314 C 
BRANCH  28  29
ATOM     29  O   UNL     1     -40.118  21.039   1.867  0.00  0.00    -0.480 OA
ATOM     30  H   UNL     1     -39.897  20.224   2.274  0.00  0.00    +0.295 HD
ENDBRANCH  28  29
ENDBRANCH  26  28
ENDBRANCH  25  26
ENDBRANCH  24  25
ENDBRANCH  23  24
ENDBRANCH  21  22
ENDBRANCH   3  21
TORSDOF 16
ENDMDL
MODEL 6
REMARK VINA RESULT:      -5.3      1.988      2.510
REMARK  Name = 5283038
REMARK  16 active torsions:
REMARK  status: ('A' for Active; 'I' for Inactive)
REMARK    1  A    between atoms: C_2  and  C_9
REMARK    2  A    between atoms: C_3  and  C_21
REMARK    3  A    between atoms: C_4  and  O_7
REMARK    4  A    between atoms: C_10  and  C_11
REMARK    5  A    between atoms: C_11  and  O_12
REMARK    6  A    between atoms: C_11  and  C_14
REMARK    7  A    between atoms: C_14  and  C_15
REMARK    8  A    between atoms: C_15  and  C_16
REMARK    9  A    between atoms: C_16  and  C_17
REMARK   10  A    between atoms: C_17  and  O_19
REMARK   11  A    between atoms: C_21  and  C_22
REMARK   12  A    between atoms: C_23  and  C_24
REMARK   13  A    between atoms: C_24  and  C_25
REMARK   14  A    between atoms: C_25  and  C_26
REMARK   15  A    between atoms: C_26  and  C_28
REMARK   16  A    between atoms: C_28  and  O_29
REMARK                            x       y       z     vdW  Elec       q    Type
REMARK                         _______ _______ _______ _____ _____    ______ ____
ROOT
ATOM      1  O   UNL     1     -36.038  25.120   5.104  0.00  0.00    -0.296 OA
ATOM      2  C   UNL     1     -35.649  21.824   3.887  0.00  0.00    +0.056 C 
ATOM      3  C   UNL     1     -35.570  23.320   3.544  0.00  0.00    +0.068 C 
ATOM      4  C   UNL     1     -35.001  21.731   5.275  0.00  0.00    +0.122 C 
ATOM      5  C   UNL     1     -35.525  22.954   6.025  0.00  0.00    +0.094 C 
ATOM      6  C   UNL     1     -35.752  23.945   4.913  0.00  0.00    +0.153 C 
ENDROOT
BRANCH   4   7
ATOM      7  O   UNL     1     -35.408  20.538   5.925  0.00  0.00    -0.384 OA
ATOM      8  H   UNL     1     -36.310  20.311   5.650  0.00  0.00    +0.210 HD
ENDBRANCH   4   7
BRANCH   2   9
ATOM      9  C   UNL     1     -34.972  20.964   2.869  0.00  0.00    -0.026 C 
ATOM     10  C   UNL     1     -35.623  20.134   2.040  0.00  0.00    -0.002 C 
BRANCH  10  11
ATOM     11  C   UNL     1     -34.938  19.272   1.018  0.00  0.00    +0.132 C 
BRANCH  11  12
ATOM     12  O   UNL     1     -35.929  18.523   0.318  0.00  0.00    -0.380 OA
ATOM     13  H   UNL     1     -36.014  18.865  -0.586  0.00  0.00    +0.211 HD
ENDBRANCH  11  12
BRANCH  11  14
ATOM     14  C   UNL     1     -34.159  20.130   0.014  0.00  0.00    +0.034 C 
BRANCH  14  15
ATOM     15  C   UNL     1     -32.647  20.101   0.281  0.00  0.00    +0.005 C 
BRANCH  15  16
ATOM     16  C   UNL     1     -32.223  18.767   0.907  0.00  0.00    +0.029 C 
BRANCH  16  17
ATOM     17  C   UNL     1     -30.907  18.203   0.360  0.00  0.00    +0.111 C 
ATOM     18  C   UNL     1     -29.970  19.267  -0.194  0.00  0.00    +0.032 C 
BRANCH  17  19
ATOM     19  O   UNL     1     -30.244  17.485   1.397  0.00  0.00    -0.384 OA
ATOM     20  H   UNL     1     -30.874  17.290   2.109  0.00  0.00    +0.210 HD
ENDBRANCH  17  19
ENDBRANCH  16  17
ENDBRANCH  15  16
ENDBRANCH  14  15
ENDBRANCH  11  14
ENDBRANCH  10  11
ENDBRANCH   2   9
BRANCH   3  21
ATOM     21  C   UNL     1     -36.631  23.768   2.554  0.00  0.00    +0.033 C 
BRANCH  21  22
ATOM     22  C   UNL     1     -36.150  24.278   1.222  0.00  0.00    -0.030 C 
ATOM     23  C   UNL     1     -36.325  23.699   0.024  0.00  0.00    -0.031 C 
BRANCH  23  24
ATOM     24  C   UNL     1     -37.055  22.404  -0.174  0.00  0.00    +0.026 C 
BRANCH  24  25
ATOM     25  C   UNL     1     -38.527  22.581  -0.575  0.00  0.00    +0.016 C 
BRANCH  25  26
ATOM     26  C   UNL     1     -39.481  21.599   0.112  0.00  0.00    +0.110 C 
BRANCH  26  28
ATOM     27  O   UNL     1     -40.222  22.734   2.135  0.00  0.00    -0.250 OA
ATOM     28  C   UNL     1     -39.611  21.817   1.604  0.00  0.00    +0.314 C 
BRANCH  28  29
ATOM     29  O   UNL     1     -38.921  20.884   2.309  0.00  0.00    -0.480 OA
ATOM     30  H   UNL     1     -38.205  20.429   1.910  0.00  0.00    +0.295 HD
ENDBRANCH  28  29
ENDBRANCH  26  28
ENDBRANCH  25  26
ENDBRANCH  24  25
ENDBRANCH  23  24
ENDBRANCH  21  22
ENDBRANCH   3  21
TORSDOF 16
ENDMDL
MODEL 7
REMARK VINA RESULT:      -5.3      1.948      6.413
REMARK  Name = 5283038
REMARK  16 active torsions:
REMARK  status: ('A' for Active; 'I' for Inactive)
REMARK    1  A    between atoms: C_2  and  C_9
REMARK    2  A    between atoms: C_3  and  C_21
REMARK    3  A    between atoms: C_4  and  O_7
REMARK    4  A    between atoms: C_10  and  C_11
REMARK    5  A    between atoms: C_11  and  O_12
REMARK    6  A    between atoms: C_11  and  C_14
REMARK    7  A    between atoms: C_14  and  C_15
REMARK    8  A    between atoms: C_15  and  C_16
REMARK    9  A    between atoms: C_16  and  C_17
REMARK   10  A    between atoms: C_17  and  O_19
REMARK   11  A    between atoms: C_21  and  C_22
REMARK   12  A    between atoms: C_23  and  C_24
REMARK   13  A    between atoms: C_24  and  C_25
REMARK   14  A    between atoms: C_25  and  C_26
REMARK   15  A    between atoms: C_26  and  C_28
REMARK   16  A    between atoms: C_28  and  O_29
REMARK                            x       y       z     vdW  Elec       q    Type
REMARK                         _______ _______ _______ _____ _____    ______ ____
ROOT
ATOM      1  O   UNL     1     -36.849  19.315  -1.578  0.00  0.00    -0.296 OA
ATOM      2  C   UNL     1     -35.371  20.478   1.415  0.00  0.00    +0.056 C 
ATOM      3  C   UNL     1     -36.687  20.134   0.703  0.00  0.00    +0.068 C 
ATOM      4  C   UNL     1     -34.427  19.337   1.015  0.00  0.00    +0.122 C 
ATOM      5  C   UNL     1     -34.724  19.094  -0.463  0.00  0.00    +0.094 C 
ATOM      6  C   UNL     1     -36.172  19.497  -0.573  0.00  0.00    +0.153 C 
ENDROOT
BRANCH   4   7
ATOM      7  O   UNL     1     -33.077  19.735   1.191  0.00  0.00    -0.384 OA
ATOM      8  H   UNL     1     -32.752  19.409   2.045  0.00  0.00    +0.210 HD
ENDBRANCH   4   7
BRANCH   2   9
ATOM      9  C   UNL     1     -35.536  20.606   2.896  0.00  0.00    -0.026 C 
ATOM     10  C   UNL     1     -35.494  21.775   3.554  0.00  0.00    -0.002 C 
BRANCH  10  11
ATOM     11  C   UNL     1     -35.660  21.899   5.042  0.00  0.00    +0.132 C 
BRANCH  11  12
ATOM     12  O   UNL     1     -35.160  20.712   5.656  0.00  0.00    -0.380 OA
ATOM     13  H   UNL     1     -34.872  20.913   6.560  0.00  0.00    +0.211 HD
ENDBRANCH  11  12
BRANCH  11  14
ATOM     14  C   UNL     1     -34.882  23.105   5.580  0.00  0.00    +0.034 C 
BRANCH  14  15
ATOM     15  C   UNL     1     -35.628  24.425   5.343  0.00  0.00    +0.005 C 
BRANCH  15  16
ATOM     16  C   UNL     1     -34.700  25.629   5.550  0.00  0.00    +0.029 C 
BRANCH  16  17
ATOM     17  C   UNL     1     -34.388  26.413   4.271  0.00  0.00    +0.111 C 
ATOM     18  C   UNL     1     -34.449  25.568   3.007  0.00  0.00    +0.032 C 
BRANCH  17  19
ATOM     19  O   UNL     1     -35.307  27.498   4.159  0.00  0.00    -0.384 OA
ATOM     20  H   UNL     1     -36.181  27.157   3.912  0.00  0.00    +0.210 HD
ENDBRANCH  17  19
ENDBRANCH  16  17
ENDBRANCH  15  16
ENDBRANCH  14  15
ENDBRANCH  11  14
ENDBRANCH  10  11
ENDBRANCH   2   9
BRANCH   3  21
ATOM     21  C   UNL     1     -37.564  21.345   0.435  0.00  0.00    +0.033 C 
BRANCH  21  22
ATOM     22  C   UNL     1     -38.929  21.353   1.069  0.00  0.00    -0.030 C 
ATOM     23  C   UNL     1     -39.364  22.170   2.040  0.00  0.00    -0.031 C 
BRANCH  23  24
ATOM     24  C   UNL     1     -38.520  23.242   2.665  0.00  0.00    +0.026 C 
BRANCH  24  25
ATOM     25  C   UNL     1     -39.146  24.642   2.593  0.00  0.00    +0.016 C 
BRANCH  25  26
ATOM     26  C   UNL     1     -38.159  25.781   2.865  0.00  0.00    +0.110 C 
BRANCH  26  28
ATOM     27  O   UNL     1     -38.080  26.287   0.485  0.00  0.00    -0.250 OA
ATOM     28  C   UNL     1     -37.817  26.598   1.638  0.00  0.00    +0.314 C 
BRANCH  28  29
ATOM     29  O   UNL     1     -37.130  27.724   1.961  0.00  0.00    -0.480 OA
ATOM     30  H   UNL     1     -37.311  28.529   1.514  0.00  0.00    +0.295 HD
ENDBRANCH  28  29
ENDBRANCH  26  28
ENDBRANCH  25  26
ENDBRANCH  24  25
ENDBRANCH  23  24
ENDBRANCH  21  22
ENDBRANCH   3  21
TORSDOF 16
ENDMDL
MODEL 8
REMARK VINA RESULT:      -5.2      1.453      6.121
REMARK  Name = 5283038
REMARK  16 active torsions:
REMARK  status: ('A' for Active; 'I' for Inactive)
REMARK    1  A    between atoms: C_2  and  C_9
REMARK    2  A    between atoms: C_3  and  C_21
REMARK    3  A    between atoms: C_4  and  O_7
REMARK    4  A    between atoms: C_10  and  C_11
REMARK    5  A    between atoms: C_11  and  O_12
REMARK    6  A    between atoms: C_11  and  C_14
REMARK    7  A    between atoms: C_14  and  C_15
REMARK    8  A    between atoms: C_15  and  C_16
REMARK    9  A    between atoms: C_16  and  C_17
REMARK   10  A    between atoms: C_17  and  O_19
REMARK   11  A    between atoms: C_21  and  C_22
REMARK   12  A    between atoms: C_23  and  C_24
REMARK   13  A    between atoms: C_24  and  C_25
REMARK   14  A    between atoms: C_25  and  C_26
REMARK   15  A    between atoms: C_26  and  C_28
REMARK   16  A    between atoms: C_28  and  O_29
REMARK                            x       y       z     vdW  Elec       q    Type
REMARK                         _______ _______ _______ _____ _____    ______ ____
ROOT
ATOM      1  O   UNL     1     -35.082  21.056   5.042  0.00  0.00    -0.296 OA
ATOM      2  C   UNL     1     -35.837  24.316   3.902  0.00  0.00    +0.056 C 
ATOM      3  C   UNL     1     -36.084  22.814   3.699  0.00  0.00    +0.068 C 
ATOM      4  C   UNL     1     -35.879  24.493   5.426  0.00  0.00    +0.122 C 
ATOM      5  C   UNL     1     -35.133  23.278   5.973  0.00  0.00    +0.094 C 
ATOM      6  C   UNL     1     -35.391  22.235   4.916  0.00  0.00    +0.153 C 
ENDROOT
BRANCH   4   7
ATOM      7  O   UNL     1     -35.217  25.691   5.797  0.00  0.00    -0.384 OA
ATOM      8  H   UNL     1     -35.495  25.950   6.690  0.00  0.00    +0.210 HD
ENDBRANCH   4   7
BRANCH   2   9
ATOM      9  C   UNL     1     -36.841  25.166   3.189  0.00  0.00    -0.026 C 
ATOM     10  C   UNL     1     -38.164  25.093   3.400  0.00  0.00    -0.002 C 
BRANCH  10  11
ATOM     11  C   UNL     1     -39.169  25.949   2.682  0.00  0.00    +0.132 C 
BRANCH  11  12
ATOM     12  O   UNL     1     -38.468  26.886   1.867  0.00  0.00    -0.380 OA
ATOM     13  H   UNL     1     -37.630  26.495   1.572  0.00  0.00    +0.211 HD
ENDBRANCH  11  12
BRANCH  11  14
ATOM     14  C   UNL     1     -40.077  25.094   1.790  0.00  0.00    +0.034 C 
BRANCH  14  15
ATOM     15  C   UNL     1     -39.872  23.591   2.030  0.00  0.00    +0.005 C 
BRANCH  15  16
ATOM     16  C   UNL     1     -39.528  22.866   0.723  0.00  0.00    +0.029 C 
BRANCH  16  17
ATOM     17  C   UNL     1     -40.068  21.435   0.634  0.00  0.00    +0.111 C 
ATOM     18  C   UNL     1     -39.186  20.500  -0.181  0.00  0.00    +0.032 C 
BRANCH  17  19
ATOM     19  O   UNL     1     -40.215  20.913   1.953  0.00  0.00    -0.384 OA
ATOM     20  H   UNL     1     -40.863  20.191   1.944  0.00  0.00    +0.210 HD
ENDBRANCH  17  19
ENDBRANCH  16  17
ENDBRANCH  15  16
ENDBRANCH  14  15
ENDBRANCH  11  14
ENDBRANCH  10  11
ENDBRANCH   2   9
BRANCH   3  21
ATOM     21  C   UNL     1     -35.515  22.279   2.396  0.00  0.00    +0.033 C 
BRANCH  21  22
ATOM     22  C   UNL     1     -36.161  21.046   1.824  0.00  0.00    -0.030 C 
ATOM     23  C   UNL     1     -35.558  19.887   1.518  0.00  0.00    -0.031 C 
BRANCH  23  24
ATOM     24  C   UNL     1     -34.091  19.637   1.708  0.00  0.00    +0.026 C 
BRANCH  24  25
ATOM     25  C   UNL     1     -33.426  18.932   0.517  0.00  0.00    +0.016 C 
BRANCH  25  26
ATOM     26  C   UNL     1     -32.677  17.649   0.891  0.00  0.00    +0.110 C 
BRANCH  26  28
ATOM     27  O   UNL     1     -34.397  16.290  -0.170  0.00  0.00    -0.250 OA
ATOM     28  C   UNL     1     -33.260  16.399   0.266  0.00  0.00    +0.314 C 
BRANCH  28  29
ATOM     29  O   UNL     1     -32.372  15.371   0.280  0.00  0.00    -0.480 OA
ATOM     30  H   UNL     1     -31.744  15.284  -0.410  0.00  0.00    +0.295 HD
ENDBRANCH  28  29
ENDBRANCH  26  28
ENDBRANCH  25  26
ENDBRANCH  24  25
ENDBRANCH  23  24
ENDBRANCH  21  22
ENDBRANCH   3  21
TORSDOF 16
ENDMDL
MODEL 9
REMARK VINA RESULT:      -5.2      1.851      2.380
REMARK  Name = 5283038
REMARK  16 active torsions:
REMARK  status: ('A' for Active; 'I' for Inactive)
REMARK    1  A    between atoms: C_2  and  C_9
REMARK    2  A    between atoms: C_3  and  C_21
REMARK    3  A    between atoms: C_4  and  O_7
REMARK    4  A    between atoms: C_10  and  C_11
REMARK    5  A    between atoms: C_11  and  O_12
REMARK    6  A    between atoms: C_11  and  C_14
REMARK    7  A    between atoms: C_14  and  C_15
REMARK    8  A    between atoms: C_15  and  C_16
REMARK    9  A    between atoms: C_16  and  C_17
REMARK   10  A    between atoms: C_17  and  O_19
REMARK   11  A    between atoms: C_21  and  C_22
REMARK   12  A    between atoms: C_23  and  C_24
REMARK   13  A    between atoms: C_24  and  C_25
REMARK   14  A    between atoms: C_25  and  C_26
REMARK   15  A    between atoms: C_26  and  C_28
REMARK   16  A    between atoms: C_28  and  O_29
REMARK                            x       y       z     vdW  Elec       q    Type
REMARK                         _______ _______ _______ _____ _____    ______ ____
ROOT
ATOM      1  O   UNL     1     -35.583  25.283   5.565  0.00  0.00    -0.296 OA
ATOM      2  C   UNL     1     -35.672  22.112   4.005  0.00  0.00    +0.056 C 
ATOM      3  C   UNL     1     -35.384  23.609   3.817  0.00  0.00    +0.068 C 
ATOM      4  C   UNL     1     -35.037  21.783   5.363  0.00  0.00    +0.122 C 
ATOM      5  C   UNL     1     -35.377  22.981   6.246  0.00  0.00    +0.094 C 
ATOM      6  C   UNL     1     -35.467  24.106   5.247  0.00  0.00    +0.153 C 
ENDROOT
BRANCH   4   7
ATOM      7  O   UNL     1     -35.605  20.597   5.894  0.00  0.00    -0.384 OA
ATOM      8  H   UNL     1     -36.557  20.582   5.704  0.00  0.00    +0.210 HD
ENDBRANCH   4   7
BRANCH   2   9
ATOM      9  C   UNL     1     -35.129  21.278   2.889  0.00  0.00    -0.026 C 
ATOM     10  C   UNL     1     -35.884  20.484   2.115  0.00  0.00    -0.002 C 
BRANCH  10  11
ATOM     11  C   UNL     1     -35.334  19.647   0.995  0.00  0.00    +0.132 C 
BRANCH  11  12
ATOM     12  O   UNL     1     -35.284  20.445  -0.186  0.00  0.00    -0.380 OA
ATOM     13  H   UNL     1     -36.182  20.725  -0.425  0.00  0.00    +0.211 HD
ENDBRANCH  11  12
BRANCH  11  14
ATOM     14  C   UNL     1     -33.919  19.156   1.324  0.00  0.00    +0.034 C 
BRANCH  14  15
ATOM     15  C   UNL     1     -33.043  19.038   0.069  0.00  0.00    +0.005 C 
BRANCH  15  16
ATOM     16  C   UNL     1     -31.755  19.857   0.217  0.00  0.00    +0.029 C 
BRANCH  16  17
ATOM     17  C   UNL     1     -31.786  21.217  -0.489  0.00  0.00    +0.111 C 
ATOM     18  C   UNL     1     -30.457  21.608  -1.118  0.00  0.00    +0.032 C 
BRANCH  17  19
ATOM     19  O   UNL     1     -32.795  21.192  -1.496  0.00  0.00    -0.384 OA
ATOM     20  H   UNL     1     -32.539  20.570  -2.195  0.00  0.00    +0.210 HD
ENDBRANCH  17  19
ENDBRANCH  16  17
ENDBRANCH  15  16
ENDBRANCH  14  15
ENDBRANCH  11  14
ENDBRANCH  10  11
ENDBRANCH   2   9
BRANCH   3  21
ATOM     21  C   UNL     1     -36.375  24.305   2.901  0.00  0.00    +0.033 C 
BRANCH  21  22
ATOM     22  C   UNL     1     -37.774  24.492   3.425  0.00  0.00    -0.030 C 
ATOM     23  C   UNL     1     -38.908  24.019   2.888  0.00  0.00    -0.031 C 
BRANCH  23  24
ATOM     24  C   UNL     1     -38.954  23.198   1.632  0.00  0.00    +0.026 C 
BRANCH  24  25
ATOM     25  C   UNL     1     -39.550  21.798   1.832  0.00  0.00    +0.016 C 
BRANCH  25  26
ATOM     26  C   UNL     1     -39.955  21.102   0.529  0.00  0.00    +0.110 C 
BRANCH  26  28
ATOM     27  O   UNL     1     -38.031  21.167  -0.962  0.00  0.00    -0.250 OA
ATOM     28  C   UNL     1     -38.787  20.528  -0.244  0.00  0.00    +0.314 C 
BRANCH  28  29
ATOM     29  O   UNL     1     -38.692  19.182  -0.084  0.00  0.00    -0.480 OA
ATOM     30  H   UNL     1     -38.595  18.626  -0.832  0.00  0.00    +0.295 HD
ENDBRANCH  28  29
ENDBRANCH  26  28
ENDBRANCH  25  26
ENDBRANCH  24  25
ENDBRANCH  23  24
ENDBRANCH  21  22
ENDBRANCH   3  21
TORSDOF 16
ENDMDL
