MODEL 1
REMARK VINA RESULT:      -7.0      0.000      0.000
REMARK  Name = 191263
REMARK  10 active torsions:
REMARK  status: ('A' for Active; 'I' for Inactive)
REMARK    1  A    between atoms: CA_5  and  N_11
REMARK    2  A    between atoms: CA_7  and  C_27
REMARK    3  A    between atoms: C_8  and  C_30
REMARK    4  A    between atoms: C_12  and  C_14
REMARK    5  A    between atoms: C_14  and  C_15
REMARK    6  A    between atoms: C_16  and  C_21
REMARK    7  A    between atoms: C_21  and  N_22
REMARK    8  A    between atoms: C_27  and  O_28
REMARK    9  A    between atoms: C_30  and  S_31
REMARK   10  A    between atoms: S_31  and  C_35
REMARK                            x       y       z     vdW  Elec       q    Type
REMARK                         _______ _______ _______ _____ _____    ______ ____
ROOT
ATOM      1  S   UNL     1     -35.832  24.692   0.637  0.00  0.00    -0.114 S 
ATOM      2  O   UNL     1     -35.155  22.774   4.817  0.00  0.00    -0.273 OA
ATOM      3  N   UNL     1     -36.078  22.988   2.658  0.00  0.00    -0.242 N 
ATOM      4  C   UNL     1     -36.568  24.288   2.237  0.00  0.00    +0.155 C 
ATOM      5  CA  UNL     1     -35.853  24.853   3.484  0.00  0.00    +0.178 C 
ATOM      6  C   UNL     1     -35.622  23.365   3.873  0.00  0.00    +0.251 C 
ATOM      7  CA  UNL     1     -36.156  21.867   1.894  0.00  0.00    +0.124 C 
ATOM      8  C   UNL     1     -36.432  21.934   0.569  0.00  0.00    -0.002 C 
ATOM      9  C   UNL     1     -36.575  23.247  -0.195  0.00  0.00    +0.083 C 
ENDROOT
BRANCH   5  11
ATOM     10  O   UNL     1     -34.640  26.693   5.351  0.00  0.00    -0.275 OA
ATOM     11  N   UNL     1     -34.614  25.608   3.300  0.00  0.00    -0.296 N 
ATOM     12  C   UNL     1     -34.106  26.478   4.266  0.00  0.00    +0.227 C 
ATOM     13  H   UNL     1     -34.117  25.498   2.458  0.00  0.00    +0.150 HD
BRANCH  12  14
ATOM     14  C   UNL     1     -32.813  27.131   3.820  0.00  0.00    +0.111 C 
BRANCH  14  15
ATOM     15  C   UNL     1     -32.473  28.373   4.600  0.00  0.00    -0.019 C 
ATOM     16  C   UNL     1     -32.879  29.632   4.157  0.00  0.00    -0.048 C 
ATOM     17  C   UNL     1     -31.743  28.252   5.783  0.00  0.00    -0.004 C 
ATOM     18  C   UNL     1     -32.553  30.770   4.896  0.00  0.00    -0.007 C 
ATOM     19  C   UNL     1     -31.417  29.389   6.521  0.00  0.00    -0.000 C 
ATOM     20  C   UNL     1     -31.823  30.649   6.078  0.00  0.00    -0.000 C 
BRANCH  16  21
ATOM     21  C   UNL     1     -33.662  29.788   2.895  0.00  0.00    -0.059 C 
BRANCH  21  22
ATOM     22  N   UNL     1     -35.096  29.930   3.145  0.00  0.00    +0.383 N 
ATOM     23  H   UNL     1     -35.619  29.520   2.370  0.00  0.00    -0.089 HD
ATOM     24  H   UNL     1     -35.330  30.919   3.228  0.00  0.00    -0.089 HD
ATOM     25  H   UNL     1     -35.340  29.450   4.011  0.00  0.00    -0.089 HD
ENDBRANCH  21  22
ENDBRANCH  16  21
ENDBRANCH  14  15
ENDBRANCH  12  14
ENDBRANCH   5  11
BRANCH   7  27
ATOM     26  OXT UNL     1     -34.759  20.238   2.916  0.00  0.00    -0.244 OA
ATOM     27  C   UNL     1     -35.866  20.587   2.556  0.00  0.00    +0.351 C 
BRANCH  27  28
ATOM     28  O   UNL     1     -37.007  19.884   2.690  0.00  0.00    -0.476 OA
ATOM     29  H   UNL     1     -37.810  20.224   2.348  0.00  0.00    +0.295 HD
ENDBRANCH  27  28
ENDBRANCH   7  27
BRANCH   8  30
ATOM     30  C   UNL     1     -36.616  20.733  -0.328  0.00  0.00    +0.088 C 
BRANCH  30  31
ATOM     31  S   UNL     1     -35.203  20.592  -1.435  0.00  0.00    -0.089 S 
BRANCH  31  35
ATOM     32  O   UNL     1     -31.627  17.615   1.836  0.00  0.00    -0.268 OA
ATOM     33  N   UNL     1     -34.566  18.535   0.072  0.00  0.00    -0.173 NA
ATOM     34  N   UNL     1     -33.688  17.852   0.847  0.00  0.00    -0.202 N 
ATOM     35  C   UNL     1     -34.142  19.647  -0.428  0.00  0.00    +0.124 C 
ATOM     36  C   UNL     1     -32.808  20.234  -0.236  0.00  0.00    +0.032 C 
ATOM     37  C   UNL     1     -31.970  19.536   0.531  0.00  0.00    +0.062 C 
ATOM     38  C   UNL     1     -32.403  18.255   1.129  0.00  0.00    +0.265 C 
ATOM     39  H   UNL     1     -33.993  17.001   1.237  0.00  0.00    +0.178 HD
ENDBRANCH  31  35
ENDBRANCH  30  31
ENDBRANCH   8  30
TORSDOF 10
ENDMDL
MODEL 2
REMARK VINA RESULT:      -6.9      4.817     10.758
REMARK  Name = 191263
REMARK  10 active torsions:
REMARK  status: ('A' for Active; 'I' for Inactive)
REMARK    1  A    between atoms: CA_5  and  N_11
REMARK    2  A    between atoms: CA_7  and  C_27
REMARK    3  A    between atoms: C_8  and  C_30
REMARK    4  A    between atoms: C_12  and  C_14
REMARK    5  A    between atoms: C_14  and  C_15
REMARK    6  A    between atoms: C_16  and  C_21
REMARK    7  A    between atoms: C_21  and  N_22
REMARK    8  A    between atoms: C_27  and  O_28
REMARK    9  A    between atoms: C_30  and  S_31
REMARK   10  A    between atoms: S_31  and  C_35
REMARK                            x       y       z     vdW  Elec       q    Type
REMARK                         _______ _______ _______ _____ _____    ______ ____
ROOT
ATOM      1  S   UNL     1     -37.112  28.133   0.377  0.00  0.00    -0.114 S 
ATOM      2  O   UNL     1     -33.748  28.338   3.580  0.00  0.00    -0.273 OA
ATOM      3  N   UNL     1     -35.092  29.105   1.800  0.00  0.00    -0.242 N 
ATOM      4  C   UNL     1     -35.332  28.217   0.678  0.00  0.00    +0.155 C 
ATOM      5  CA  UNL     1     -34.731  27.099   1.559  0.00  0.00    +0.178 C 
ATOM      6  C   UNL     1     -34.358  28.246   2.542  0.00  0.00    +0.251 C 
ATOM      7  CA  UNL     1     -35.563  30.377   1.871  0.00  0.00    +0.124 C 
ATOM      8  C   UNL     1     -36.535  30.818   1.036  0.00  0.00    -0.002 C 
ATOM      9  C   UNL     1     -37.249  29.920   0.029  0.00  0.00    +0.083 C 
ENDROOT
BRANCH   5  11
ATOM     10  O   UNL     1     -34.631  24.237   1.187  0.00  0.00    -0.275 OA
ATOM     11  N   UNL     1     -35.631  26.103   2.137  0.00  0.00    -0.296 N 
ATOM     12  C   UNL     1     -35.501  24.734   1.897  0.00  0.00    +0.227 C 
ATOM     13  H   UNL     1     -36.360  26.411   2.722  0.00  0.00    +0.150 HD
BRANCH  12  14
ATOM     14  C   UNL     1     -36.563  23.926   2.617  0.00  0.00    +0.111 C 
BRANCH  14  15
ATOM     15  C   UNL     1     -36.023  23.125   3.770  0.00  0.00    -0.019 C 
ATOM     16  C   UNL     1     -35.702  21.775   3.620  0.00  0.00    -0.048 C 
ATOM     17  C   UNL     1     -35.840  23.751   5.004  0.00  0.00    -0.004 C 
ATOM     18  C   UNL     1     -35.202  21.052   4.703  0.00  0.00    -0.007 C 
ATOM     19  C   UNL     1     -35.340  23.028   6.087  0.00  0.00    -0.000 C 
ATOM     20  C   UNL     1     -35.020  21.678   5.936  0.00  0.00    -0.000 C 
BRANCH  16  21
ATOM     21  C   UNL     1     -35.887  21.083   2.310  0.00  0.00    -0.059 C 
BRANCH  21  22
ATOM     22  N   UNL     1     -36.759  19.913   2.418  0.00  0.00    +0.383 N 
ATOM     23  H   UNL     1     -37.165  19.705   1.505  0.00  0.00    -0.089 HD
ATOM     24  H   UNL     1     -37.506  20.106   3.086  0.00  0.00    -0.089 HD
ATOM     25  H   UNL     1     -36.216  19.112   2.739  0.00  0.00    -0.089 HD
ENDBRANCH  21  22
ENDBRANCH  16  21
ENDBRANCH  14  15
ENDBRANCH  12  14
ENDBRANCH   5  11
BRANCH   7  27
ATOM     26  OXT UNL     1     -34.112  32.028   2.776  0.00  0.00    -0.244 OA
ATOM     27  C   UNL     1     -35.018  31.233   2.935  0.00  0.00    +0.351 C 
BRANCH  27  28
ATOM     28  O   UNL     1     -35.675  30.991   4.085  0.00  0.00    -0.476 OA
ATOM     29  H   UNL     1     -35.605  31.591   4.800  0.00  0.00    +0.295 HD
ENDBRANCH  27  28
ENDBRANCH   7  27
BRANCH   8  30
ATOM     30  C   UNL     1     -37.053  32.236   0.998  0.00  0.00    +0.088 C 
BRANCH  30  31
ATOM     31  S   UNL     1     -38.656  32.264   0.179  0.00  0.00    -0.089 S 
BRANCH  31  35
ATOM     32  O   UNL     1     -41.103  36.297   3.356  0.00  0.00    -0.268 OA
ATOM     33  N   UNL     1     -40.738  33.505   1.195  0.00  0.00    -0.173 NA
ATOM     34  N   UNL     1     -41.288  34.480   1.961  0.00  0.00    -0.202 N 
ATOM     35  C   UNL     1     -39.448  33.481   1.140  0.00  0.00    +0.124 C 
ATOM     36  C   UNL     1     -38.531  34.403   1.823  0.00  0.00    +0.032 C 
ATOM     37  C   UNL     1     -39.105  35.348   2.568  0.00  0.00    +0.062 C 
ATOM     38  C   UNL     1     -40.578  35.423   2.668  0.00  0.00    +0.265 C 
ATOM     39  H   UNL     1     -42.270  34.514   2.016  0.00  0.00    +0.178 HD
ENDBRANCH  31  35
ENDBRANCH  30  31
ENDBRANCH   8  30
TORSDOF 10
ENDMDL
MODEL 3
REMARK VINA RESULT:      -6.8      6.533     10.378
REMARK  Name = 191263
REMARK  10 active torsions:
REMARK  status: ('A' for Active; 'I' for Inactive)
REMARK    1  A    between atoms: CA_5  and  N_11
REMARK    2  A    between atoms: CA_7  and  C_27
REMARK    3  A    between atoms: C_8  and  C_30
REMARK    4  A    between atoms: C_12  and  C_14
REMARK    5  A    between atoms: C_14  and  C_15
REMARK    6  A    between atoms: C_16  and  C_21
REMARK    7  A    between atoms: C_21  and  N_22
REMARK    8  A    between atoms: C_27  and  O_28
REMARK    9  A    between atoms: C_30  and  S_31
REMARK   10  A    between atoms: S_31  and  C_35
REMARK                            x       y       z     vdW  Elec       q    Type
REMARK                         _______ _______ _______ _____ _____    ______ ____
ROOT
ATOM      1  S   UNL     1     -40.262  25.443   3.400  0.00  0.00    -0.114 S 
ATOM      2  O   UNL     1     -39.954  26.032  -1.201  0.00  0.00    -0.273 OA
ATOM      3  N   UNL     1     -40.967  26.103   0.927  0.00  0.00    -0.242 N 
ATOM      4  C   UNL     1     -40.877  24.932   1.780  0.00  0.00    +0.155 C 
ATOM      5  CA  UNL     1     -39.823  24.406   0.780  0.00  0.00    +0.178 C 
ATOM      6  C   UNL     1     -40.231  25.622  -0.099  0.00  0.00    +0.251 C 
ATOM      7  CA  UNL     1     -41.640  27.233   1.266  0.00  0.00    +0.124 C 
ATOM      8  C   UNL     1     -42.034  27.466   2.540  0.00  0.00    -0.002 C 
ATOM      9  C   UNL     1     -41.678  26.553   3.710  0.00  0.00    +0.083 C 
ENDROOT
BRANCH   5  11
ATOM     10  O   UNL     1     -38.277  22.179   1.776  0.00  0.00    -0.275 OA
ATOM     11  N   UNL     1     -38.416  24.416   1.176  0.00  0.00    -0.296 N 
ATOM     12  C   UNL     1     -37.753  23.282   1.648  0.00  0.00    +0.227 C 
ATOM     13  H   UNL     1     -37.914  25.259   1.106  0.00  0.00    +0.150 HD
BRANCH  12  14
ATOM     14  C   UNL     1     -36.303  23.569   1.987  0.00  0.00    +0.111 C 
BRANCH  14  15
ATOM     15  C   UNL     1     -35.947  23.235   3.410  0.00  0.00    -0.019 C 
ATOM     16  C   UNL     1     -35.932  24.220   4.397  0.00  0.00    -0.048 C 
ATOM     17  C   UNL     1     -35.629  21.916   3.738  0.00  0.00    -0.004 C 
ATOM     18  C   UNL     1     -35.599  23.889   5.710  0.00  0.00    -0.007 C 
ATOM     19  C   UNL     1     -35.296  21.584   5.051  0.00  0.00    -0.000 C 
ATOM     20  C   UNL     1     -35.282  22.570   6.038  0.00  0.00    -0.000 C 
BRANCH  16  21
ATOM     21  C   UNL     1     -36.269  25.639   4.072  0.00  0.00    -0.059 C 
BRANCH  21  22
ATOM     22  N   UNL     1     -36.499  26.444   5.271  0.00  0.00    +0.383 N 
ATOM     23  H   UNL     1     -37.129  25.946   5.900  0.00  0.00    -0.089 HD
ATOM     24  H   UNL     1     -36.916  27.337   5.006  0.00  0.00    -0.089 HD
ATOM     25  H   UNL     1     -35.611  26.612   5.743  0.00  0.00    -0.089 HD
ENDBRANCH  21  22
ENDBRANCH  16  21
ENDBRANCH  14  15
ENDBRANCH  12  14
ENDBRANCH   5  11
BRANCH   7  27
ATOM     26  OXT UNL     1     -42.920  28.363  -0.389  0.00  0.00    -0.244 OA
ATOM     27  C   UNL     1     -41.866  28.220   0.199  0.00  0.00    +0.351 C 
BRANCH  27  28
ATOM     28  O   UNL     1     -40.734  28.920  -0.009  0.00  0.00    -0.476 OA
ATOM     29  H   UNL     1     -40.378  29.450   0.676  0.00  0.00    +0.295 HD
ENDBRANCH  27  28
ENDBRANCH   7  27
BRANCH   8  30
ATOM     30  C   UNL     1     -42.855  28.655   2.979  0.00  0.00    +0.088 C 
BRANCH  30  31
ATOM     31  S   UNL     1     -44.349  28.078   3.803  0.00  0.00    -0.089 S 
BRANCH  31  35
ATOM     32  O   UNL     1     -43.977  30.808   8.779  0.00  0.00    -0.268 OA
ATOM     33  N   UNL     1     -43.257  29.811   5.449  0.00  0.00    -0.173 NA
ATOM     34  N   UNL     1     -43.197  30.443   6.648  0.00  0.00    -0.202 N 
ATOM     35  C   UNL     1     -44.198  28.938   5.309  0.00  0.00    +0.124 C 
ATOM     36  C   UNL     1     -45.199  28.570   6.319  0.00  0.00    +0.032 C 
ATOM     37  C   UNL     1     -45.112  29.210   7.485  0.00  0.00    +0.062 C 
ATOM     38  C   UNL     1     -44.054  30.221   7.701  0.00  0.00    +0.265 C 
ATOM     39  H   UNL     1     -42.486  31.112   6.773  0.00  0.00    +0.178 HD
ENDBRANCH  31  35
ENDBRANCH  30  31
ENDBRANCH   8  30
TORSDOF 10
ENDMDL
MODEL 4
REMARK VINA RESULT:      -6.8      2.011      2.810
REMARK  Name = 191263
REMARK  10 active torsions:
REMARK  status: ('A' for Active; 'I' for Inactive)
REMARK    1  A    between atoms: CA_5  and  N_11
REMARK    2  A    between atoms: CA_7  and  C_27
REMARK    3  A    between atoms: C_8  and  C_30
REMARK    4  A    between atoms: C_12  and  C_14
REMARK    5  A    between atoms: C_14  and  C_15
REMARK    6  A    between atoms: C_16  and  C_21
REMARK    7  A    between atoms: C_21  and  N_22
REMARK    8  A    between atoms: C_27  and  O_28
REMARK    9  A    between atoms: C_30  and  S_31
REMARK   10  A    between atoms: S_31  and  C_35
REMARK                            x       y       z     vdW  Elec       q    Type
REMARK                         _______ _______ _______ _____ _____    ______ ____
ROOT
ATOM      1  S   UNL     1     -35.191  24.507   0.547  0.00  0.00    -0.114 S 
ATOM      2  O   UNL     1     -35.114  22.436   4.709  0.00  0.00    -0.273 OA
ATOM      3  N   UNL     1     -35.751  22.754   2.461  0.00  0.00    -0.242 N 
ATOM      4  C   UNL     1     -36.136  24.085   2.029  0.00  0.00    +0.155 C 
ATOM      5  CA  UNL     1     -35.562  24.582   3.374  0.00  0.00    +0.178 C 
ATOM      6  C   UNL     1     -35.438  23.074   3.735  0.00  0.00    +0.251 C 
ATOM      7  CA  UNL     1     -35.776  21.662   1.653  0.00  0.00    +0.124 C 
ATOM      8  C   UNL     1     -35.881  21.780   0.308  0.00  0.00    -0.002 C 
ATOM      9  C   UNL     1     -35.879  23.121  -0.421  0.00  0.00    +0.083 C 
ENDROOT
BRANCH   5  11
ATOM     10  O   UNL     1     -35.045  27.252   4.348  0.00  0.00    -0.275 OA
ATOM     11  N   UNL     1     -34.283  25.290   3.371  0.00  0.00    -0.296 N 
ATOM     12  C   UNL     1     -34.132  26.586   3.867  0.00  0.00    +0.227 C 
ATOM     13  H   UNL     1     -33.493  24.833   3.004  0.00  0.00    +0.150 HD
BRANCH  12  14
ATOM     14  C   UNL     1     -32.705  27.082   3.743  0.00  0.00    +0.111 C 
BRANCH  14  15
ATOM     15  C   UNL     1     -32.426  28.308   4.570  0.00  0.00    -0.019 C 
ATOM     16  C   UNL     1     -32.595  29.587   4.039  0.00  0.00    -0.048 C 
ATOM     17  C   UNL     1     -31.996  28.152   5.888  0.00  0.00    -0.004 C 
ATOM     18  C   UNL     1     -32.331  30.709   4.823  0.00  0.00    -0.007 C 
ATOM     19  C   UNL     1     -31.732  29.275   6.673  0.00  0.00    -0.000 C 
ATOM     20  C   UNL     1     -31.900  30.553   6.141  0.00  0.00    -0.000 C 
BRANCH  16  21
ATOM     21  C   UNL     1     -33.055  29.779   2.631  0.00  0.00    -0.059 C 
BRANCH  21  22
ATOM     22  N   UNL     1     -34.506  29.945   2.539  0.00  0.00    +0.383 N 
ATOM     23  H   UNL     1     -34.719  30.756   1.957  0.00  0.00    -0.089 HD
ATOM     24  H   UNL     1     -34.892  30.085   3.473  0.00  0.00    -0.089 HD
ATOM     25  H   UNL     1     -34.919  29.111   2.123  0.00  0.00    -0.089 HD
ENDBRANCH  21  22
ENDBRANCH  16  21
ENDBRANCH  14  15
ENDBRANCH  12  14
ENDBRANCH   5  11
BRANCH   7  27
ATOM     26  OXT UNL     1     -34.548  19.810   2.501  0.00  0.00    -0.244 OA
ATOM     27  C   UNL     1     -35.619  20.350   2.300  0.00  0.00    +0.351 C 
BRANCH  27  28
ATOM     28  O   UNL     1     -36.832  19.862   2.622  0.00  0.00    -0.476 OA
ATOM     29  H   UNL     1     -37.441  19.638   1.947  0.00  0.00    +0.295 HD
ENDBRANCH  27  28
ENDBRANCH   7  27
BRANCH   8  30
ATOM     30  C   UNL     1     -35.997  20.616  -0.647  0.00  0.00    +0.088 C 
BRANCH  30  31
ATOM     31  S   UNL     1     -37.715  20.426  -1.151  0.00  0.00    -0.089 S 
BRANCH  31  35
ATOM     32  O   UNL     1     -38.569  14.916  -0.029  0.00  0.00    -0.268 OA
ATOM     33  N   UNL     1     -37.156  18.170   0.075  0.00  0.00    -0.173 NA
ATOM     34  N   UNL     1     -37.387  16.856   0.318  0.00  0.00    -0.202 N 
ATOM     35  C   UNL     1     -37.940  18.740  -0.777  0.00  0.00    +0.124 C 
ATOM     36  C   UNL     1     -39.051  18.103  -1.499  0.00  0.00    +0.032 C 
ATOM     37  C   UNL     1     -39.251  16.812  -1.235  0.00  0.00    +0.062 C 
ATOM     38  C   UNL     1     -38.381  16.107  -0.268  0.00  0.00    +0.265 C 
ATOM     39  H   UNL     1     -36.799  16.403   0.965  0.00  0.00    +0.178 HD
ENDBRANCH  31  35
ENDBRANCH  30  31
ENDBRANCH   8  30
TORSDOF 10
ENDMDL
MODEL 5
REMARK VINA RESULT:      -6.6      2.705      9.162
REMARK  Name = 191263
REMARK  10 active torsions:
REMARK  status: ('A' for Active; 'I' for Inactive)
REMARK    1  A    between atoms: CA_5  and  N_11
REMARK    2  A    between atoms: CA_7  and  C_27
REMARK    3  A    between atoms: C_8  and  C_30
REMARK    4  A    between atoms: C_12  and  C_14
REMARK    5  A    between atoms: C_14  and  C_15
REMARK    6  A    between atoms: C_16  and  C_21
REMARK    7  A    between atoms: C_21  and  N_22
REMARK    8  A    between atoms: C_27  and  O_28
REMARK    9  A    between atoms: C_30  and  S_31
REMARK   10  A    between atoms: S_31  and  C_35
REMARK                            x       y       z     vdW  Elec       q    Type
REMARK                         _______ _______ _______ _____ _____    ______ ____
ROOT
ATOM      1  S   UNL     1     -35.805  22.063   3.162  0.00  0.00    -0.114 S 
ATOM      2  O   UNL     1     -38.724  24.155   0.210  0.00  0.00    -0.273 OA
ATOM      3  N   UNL     1     -37.672  23.730   2.277  0.00  0.00    -0.242 N 
ATOM      4  C   UNL     1     -37.531  22.353   2.715  0.00  0.00    +0.155 C 
ATOM      5  CA  UNL     1     -37.945  21.957   1.281  0.00  0.00    +0.178 C 
ATOM      6  C   UNL     1     -38.251  23.469   1.084  0.00  0.00    +0.251 C 
ATOM      7  CA  UNL     1     -37.270  24.800   3.010  0.00  0.00    +0.124 C 
ATOM      8  C   UNL     1     -36.444  24.658   4.074  0.00  0.00    -0.002 C 
ATOM      9  C   UNL     1     -35.818  23.326   4.480  0.00  0.00    +0.083 C 
ENDROOT
BRANCH   5  11
ATOM     10  O   UNL     1     -37.880  19.362   0.013  0.00  0.00    -0.275 OA
ATOM     11  N   UNL     1     -36.921  21.444   0.372  0.00  0.00    -0.296 N 
ATOM     12  C   UNL     1     -36.978  20.169  -0.193  0.00  0.00    +0.227 C 
ATOM     13  H   UNL     1     -36.158  22.024   0.148  0.00  0.00    +0.150 HD
BRANCH  12  14
ATOM     14  C   UNL     1     -35.791  19.892  -1.095  0.00  0.00    +0.111 C 
BRANCH  14  15
ATOM     15  C   UNL     1     -34.630  19.260  -0.376  0.00  0.00    -0.019 C 
ATOM     16  C   UNL     1     -34.510  17.873  -0.285  0.00  0.00    -0.048 C 
ATOM     17  C   UNL     1     -33.663  20.083   0.204  0.00  0.00    -0.004 C 
ATOM     18  C   UNL     1     -33.425  17.309   0.386  0.00  0.00    -0.007 C 
ATOM     19  C   UNL     1     -32.579  19.518   0.875  0.00  0.00    -0.000 C 
ATOM     20  C   UNL     1     -32.459  18.131   0.966  0.00  0.00    -0.000 C 
BRANCH  16  21
ATOM     21  C   UNL     1     -35.531  16.972  -0.898  0.00  0.00    -0.059 C 
BRANCH  21  22
ATOM     22  N   UNL     1     -36.527  16.519   0.073  0.00  0.00    +0.383 N 
ATOM     23  H   UNL     1     -36.060  16.263   0.944  0.00  0.00    -0.089 HD
ATOM     24  H   UNL     1     -37.021  15.708  -0.299  0.00  0.00    -0.089 HD
ATOM     25  H   UNL     1     -37.193  17.270   0.253  0.00  0.00    -0.089 HD
ENDBRANCH  21  22
ENDBRANCH  16  21
ENDBRANCH  14  15
ENDBRANCH  12  14
ENDBRANCH   5  11
BRANCH   7  27
ATOM     26  OXT UNL     1     -37.165  26.779   1.697  0.00  0.00    -0.244 OA
ATOM     27  C   UNL     1     -37.720  26.125   2.558  0.00  0.00    +0.351 C 
BRANCH  27  28
ATOM     28  O   UNL     1     -38.822  26.481   3.245  0.00  0.00    -0.476 OA
ATOM     29  H   UNL     1     -38.781  26.588   4.175  0.00  0.00    +0.295 HD
ENDBRANCH  27  28
ENDBRANCH   7  27
BRANCH   8  30
ATOM     30  C   UNL     1     -36.019  25.784   4.985  0.00  0.00    +0.088 C 
BRANCH  30  31
ATOM     31  S   UNL     1     -34.494  25.328   5.827  0.00  0.00    -0.089 S 
BRANCH  31  35
ATOM     32  O   UNL     1     -31.450  30.088   5.176  0.00  0.00    -0.268 OA
ATOM     33  N   UNL     1     -33.731  27.457   4.490  0.00  0.00    -0.173 NA
ATOM     34  N   UNL     1     -32.990  28.586   4.367  0.00  0.00    -0.202 N 
ATOM     35  C   UNL     1     -33.582  26.792   5.585  0.00  0.00    +0.124 C 
ATOM     36  C   UNL     1     -32.692  27.142   6.701  0.00  0.00    +0.032 C 
ATOM     37  C   UNL     1     -31.979  28.258   6.548  0.00  0.00    +0.062 C 
ATOM     38  C   UNL     1     -32.110  29.060   5.313  0.00  0.00    +0.265 C 
ATOM     39  H   UNL     1     -33.090  29.108   3.538  0.00  0.00    +0.178 HD
ENDBRANCH  31  35
ENDBRANCH  30  31
ENDBRANCH   8  30
TORSDOF 10
ENDMDL
MODEL 6
REMARK VINA RESULT:      -6.6      2.204      3.230
REMARK  Name = 191263
REMARK  10 active torsions:
REMARK  status: ('A' for Active; 'I' for Inactive)
REMARK    1  A    between atoms: CA_5  and  N_11
REMARK    2  A    between atoms: CA_7  and  C_27
REMARK    3  A    between atoms: C_8  and  C_30
REMARK    4  A    between atoms: C_12  and  C_14
REMARK    5  A    between atoms: C_14  and  C_15
REMARK    6  A    between atoms: C_16  and  C_21
REMARK    7  A    between atoms: C_21  and  N_22
REMARK    8  A    between atoms: C_27  and  O_28
REMARK    9  A    between atoms: C_30  and  S_31
REMARK   10  A    between atoms: S_31  and  C_35
REMARK                            x       y       z     vdW  Elec       q    Type
REMARK                         _______ _______ _______ _____ _____    ______ ____
ROOT
ATOM      1  S   UNL     1     -35.635  24.724   2.195  0.00  0.00    -0.114 S 
ATOM      2  O   UNL     1     -35.227  21.350   5.366  0.00  0.00    -0.273 OA
ATOM      3  N   UNL     1     -35.961  22.366   3.369  0.00  0.00    -0.242 N 
ATOM      4  C   UNL     1     -36.488  23.717   3.429  0.00  0.00    +0.155 C 
ATOM      5  CA  UNL     1     -35.924  23.768   4.866  0.00  0.00    +0.178 C 
ATOM      6  C   UNL     1     -35.641  22.251   4.677  0.00  0.00    +0.251 C 
ATOM      7  CA  UNL     1     -35.902  21.628   2.230  0.00  0.00    +0.124 C 
ATOM      8  C   UNL     1     -36.060  22.197   1.011  0.00  0.00    -0.002 C 
ATOM      9  C   UNL     1     -36.212  23.701   0.798  0.00  0.00    +0.083 C 
ENDROOT
BRANCH   5  11
ATOM     10  O   UNL     1     -35.801  26.506   5.779  0.00  0.00    -0.275 OA
ATOM     11  N   UNL     1     -34.722  24.561   5.119  0.00  0.00    -0.296 N 
ATOM     12  C   UNL     1     -34.765  25.884   5.562  0.00  0.00    +0.227 C 
ATOM     13  H   UNL     1     -33.843  24.143   4.972  0.00  0.00    +0.150 HD
BRANCH  12  14
ATOM     14  C   UNL     1     -33.378  26.470   5.743  0.00  0.00    +0.111 C 
BRANCH  14  15
ATOM     15  C   UNL     1     -33.072  27.585   4.780  0.00  0.00    -0.019 C 
ATOM     16  C   UNL     1     -32.056  28.504   5.045  0.00  0.00    -0.048 C 
ATOM     17  C   UNL     1     -33.819  27.691   3.606  0.00  0.00    -0.004 C 
ATOM     18  C   UNL     1     -31.788  29.529   4.139  0.00  0.00    -0.007 C 
ATOM     19  C   UNL     1     -33.551  28.717   2.700  0.00  0.00    -0.000 C 
ATOM     20  C   UNL     1     -32.535  29.636   2.966  0.00  0.00    -0.000 C 
BRANCH  16  21
ATOM     21  C   UNL     1     -31.242  28.410   6.294  0.00  0.00    -0.059 C 
BRANCH  21  22
ATOM     22  N   UNL     1     -31.733  29.302   7.346  0.00  0.00    +0.383 N 
ATOM     23  H   UNL     1     -32.347  28.782   7.973  0.00  0.00    -0.089 HD
ATOM     24  H   UNL     1     -32.252  30.072   6.923  0.00  0.00    -0.089 HD
ATOM     25  H   UNL     1     -30.944  29.673   7.873  0.00  0.00    -0.089 HD
ENDBRANCH  21  22
ENDBRANCH  16  21
ENDBRANCH  14  15
ENDBRANCH  12  14
ENDBRANCH   5  11
BRANCH   7  27
ATOM     26  OXT UNL     1     -34.483  19.721   2.276  0.00  0.00    -0.244 OA
ATOM     27  C   UNL     1     -35.597  20.197   2.377  0.00  0.00    +0.351 C 
BRANCH  27  28
ATOM     28  O   UNL     1     -36.734  19.521   2.635  0.00  0.00    -0.476 OA
ATOM     29  H   UNL     1     -37.540  19.796   2.246  0.00  0.00    +0.295 HD
ENDBRANCH  27  28
ENDBRANCH   7  27
BRANCH   8  30
ATOM     30  C   UNL     1     -36.090  21.435  -0.292  0.00  0.00    +0.088 C 
BRANCH  30  31
ATOM     31  S   UNL     1     -37.799  21.097  -0.748  0.00  0.00    -0.089 S 
BRANCH  31  35
ATOM     32  O   UNL     1     -37.919  15.421  -0.395  0.00  0.00    -0.268 OA
ATOM     33  N   UNL     1     -36.789  18.769  -0.062  0.00  0.00    -0.173 NA
ATOM     34  N   UNL     1     -36.850  17.416   0.004  0.00  0.00    -0.202 N 
ATOM     35  C   UNL     1     -37.793  19.360  -0.617  0.00  0.00    +0.124 C 
ATOM     36  C   UNL     1     -38.985  18.708  -1.177  0.00  0.00    +0.032 C 
ATOM     37  C   UNL     1     -39.014  17.378  -1.094  0.00  0.00    +0.062 C 
ATOM     38  C   UNL     1     -37.889  16.649  -0.468  0.00  0.00    +0.265 C 
ATOM     39  H   UNL     1     -36.093  16.947   0.424  0.00  0.00    +0.178 HD
ENDBRANCH  31  35
ENDBRANCH  30  31
ENDBRANCH   8  30
TORSDOF 10
ENDMDL
MODEL 7
REMARK VINA RESULT:      -6.6      3.259      4.163
REMARK  Name = 191263
REMARK  10 active torsions:
REMARK  status: ('A' for Active; 'I' for Inactive)
REMARK    1  A    between atoms: CA_5  and  N_11
REMARK    2  A    between atoms: CA_7  and  C_27
REMARK    3  A    between atoms: C_8  and  C_30
REMARK    4  A    between atoms: C_12  and  C_14
REMARK    5  A    between atoms: C_14  and  C_15
REMARK    6  A    between atoms: C_16  and  C_21
REMARK    7  A    between atoms: C_21  and  N_22
REMARK    8  A    between atoms: C_27  and  O_28
REMARK    9  A    between atoms: C_30  and  S_31
REMARK   10  A    between atoms: S_31  and  C_35
REMARK                            x       y       z     vdW  Elec       q    Type
REMARK                         _______ _______ _______ _____ _____    ______ ____
ROOT
ATOM      1  S   UNL     1     -37.003  24.621  -0.674  0.00  0.00    -0.114 S 
ATOM      2  O   UNL     1     -39.836  24.133   2.980  0.00  0.00    -0.273 OA
ATOM      3  N   UNL     1     -39.068  23.794   0.776  0.00  0.00    -0.242 N 
ATOM      4  C   UNL     1     -38.647  24.948   0.002  0.00  0.00    +0.155 C 
ATOM      5  CA  UNL     1     -38.699  25.736   1.329  0.00  0.00    +0.178 C 
ATOM      6  C   UNL     1     -39.352  24.454   1.920  0.00  0.00    +0.251 C 
ATOM      7  CA  UNL     1     -39.086  22.525   0.292  0.00  0.00    +0.124 C 
ATOM      8  C   UNL     1     -38.439  22.196  -0.852  0.00  0.00    -0.002 C 
ATOM      9  C   UNL     1     -37.564  23.172  -1.633  0.00  0.00    +0.083 C 
ENDROOT
BRANCH   5  11
ATOM     10  O   UNL     1     -37.326  28.271   1.157  0.00  0.00    -0.275 OA
ATOM     11  N   UNL     1     -37.440  26.104   1.976  0.00  0.00    -0.296 N 
ATOM     12  C   UNL     1     -36.852  27.361   1.831  0.00  0.00    +0.227 C 
ATOM     13  H   UNL     1     -36.988  25.435   2.539  0.00  0.00    +0.150 HD
BRANCH  12  14
ATOM     14  C   UNL     1     -35.555  27.476   2.607  0.00  0.00    +0.111 C 
BRANCH  14  15
ATOM     15  C   UNL     1     -35.321  26.329   3.552  0.00  0.00    -0.019 C 
ATOM     16  C   UNL     1     -34.494  25.263   3.198  0.00  0.00    -0.048 C 
ATOM     17  C   UNL     1     -35.946  26.342   4.800  0.00  0.00    -0.004 C 
ATOM     18  C   UNL     1     -34.291  24.210   4.091  0.00  0.00    -0.007 C 
ATOM     19  C   UNL     1     -35.743  25.289   5.693  0.00  0.00    -0.000 C 
ATOM     20  C   UNL     1     -34.915  24.223   5.338  0.00  0.00    -0.000 C 
BRANCH  16  21
ATOM     21  C   UNL     1     -33.814  25.227   1.869  0.00  0.00    -0.059 C 
BRANCH  21  22
ATOM     22  N   UNL     1     -32.437  25.718   1.935  0.00  0.00    +0.383 N 
ATOM     23  H   UNL     1     -32.240  26.291   1.114  0.00  0.00    -0.089 HD
ATOM     24  H   UNL     1     -31.794  24.926   1.959  0.00  0.00    -0.089 HD
ATOM     25  H   UNL     1     -32.316  26.279   2.778  0.00  0.00    -0.089 HD
ENDBRANCH  21  22
ENDBRANCH  16  21
ENDBRANCH  14  15
ENDBRANCH  12  14
ENDBRANCH   5  11
BRANCH   7  27
ATOM     26  OXT UNL     1     -40.876  21.054   0.825  0.00  0.00    -0.244 OA
ATOM     27  C   UNL     1     -39.785  21.514   1.099  0.00  0.00    +0.351 C 
BRANCH  27  28
ATOM     28  O   UNL     1     -39.028  21.191   2.166  0.00  0.00    -0.476 OA
ATOM     29  H   UNL     1     -38.132  20.944   2.048  0.00  0.00    +0.295 HD
ENDBRANCH  27  28
ENDBRANCH   7  27
BRANCH   8  30
ATOM     30  C   UNL     1     -38.480  20.831  -1.496  0.00  0.00    +0.088 C 
BRANCH  30  31
ATOM     31  S   UNL     1     -36.808  20.173  -1.607  0.00  0.00    -0.089 S 
BRANCH  31  35
ATOM     32  O   UNL     1     -35.173  20.669   3.818  0.00  0.00    -0.268 OA
ATOM     33  N   UNL     1     -36.949  19.572   0.947  0.00  0.00    -0.173 NA
ATOM     34  N   UNL     1     -36.534  19.716   2.230  0.00  0.00    -0.202 N 
ATOM     35  C   UNL     1     -36.340  20.292   0.066  0.00  0.00    +0.124 C 
ATOM     36  C   UNL     1     -35.250  21.244   0.323  0.00  0.00    +0.032 C 
ATOM     37  C   UNL     1     -34.867  21.360   1.594  0.00  0.00    +0.062 C 
ATOM     38  C   UNL     1     -35.530  20.559   2.646  0.00  0.00    +0.265 C 
ATOM     39  H   UNL     1     -36.987  19.174   2.917  0.00  0.00    +0.178 HD
ENDBRANCH  31  35
ENDBRANCH  30  31
ENDBRANCH   8  30
TORSDOF 10
ENDMDL
MODEL 8
REMARK VINA RESULT:      -6.5      2.986      8.762
REMARK  Name = 191263
REMARK  10 active torsions:
REMARK  status: ('A' for Active; 'I' for Inactive)
REMARK    1  A    between atoms: CA_5  and  N_11
REMARK    2  A    between atoms: CA_7  and  C_27
REMARK    3  A    between atoms: C_8  and  C_30
REMARK    4  A    between atoms: C_12  and  C_14
REMARK    5  A    between atoms: C_14  and  C_15
REMARK    6  A    between atoms: C_16  and  C_21
REMARK    7  A    between atoms: C_21  and  N_22
REMARK    8  A    between atoms: C_27  and  O_28
REMARK    9  A    between atoms: C_30  and  S_31
REMARK   10  A    between atoms: S_31  and  C_35
REMARK                            x       y       z     vdW  Elec       q    Type
REMARK                         _______ _______ _______ _____ _____    ______ ____
ROOT
ATOM      1  S   UNL     1     -35.698  22.077   3.388  0.00  0.00    -0.114 S 
ATOM      2  O   UNL     1     -38.505  24.293   0.418  0.00  0.00    -0.273 OA
ATOM      3  N   UNL     1     -37.534  23.779   2.504  0.00  0.00    -0.242 N 
ATOM      4  C   UNL     1     -37.406  22.385   2.887  0.00  0.00    +0.155 C 
ATOM      5  CA  UNL     1     -37.763  22.051   1.422  0.00  0.00    +0.178 C 
ATOM      6  C   UNL     1     -38.065  23.570   1.280  0.00  0.00    +0.251 C 
ATOM      7  CA  UNL     1     -37.164  24.817   3.298  0.00  0.00    +0.124 C 
ATOM      8  C   UNL     1     -36.379  24.629   4.387  0.00  0.00    -0.002 C 
ATOM      9  C   UNL     1     -35.766  23.282   4.758  0.00  0.00    +0.083 C 
ENDROOT
BRANCH   5  11
ATOM     10  O   UNL     1     -37.520  19.428   0.235  0.00  0.00    -0.275 OA
ATOM     11  N   UNL     1     -36.702  21.579   0.532  0.00  0.00    -0.296 N 
ATOM     12  C   UNL     1     -36.672  20.287   0.007  0.00  0.00    +0.227 C 
ATOM     13  H   UNL     1     -35.978  22.201   0.293  0.00  0.00    +0.150 HD
BRANCH  12  14
ATOM     14  C   UNL     1     -35.466  20.061  -0.883  0.00  0.00    +0.111 C 
BRANCH  14  15
ATOM     15  C   UNL     1     -34.382  19.251  -0.223  0.00  0.00    -0.019 C 
ATOM     16  C   UNL     1     -34.387  17.858  -0.288  0.00  0.00    -0.048 C 
ATOM     17  C   UNL     1     -33.360  19.914   0.458  0.00  0.00    -0.004 C 
ATOM     18  C   UNL     1     -33.372  17.127   0.330  0.00  0.00    -0.007 C 
ATOM     19  C   UNL     1     -32.345  19.183   1.076  0.00  0.00    -0.000 C 
ATOM     20  C   UNL     1     -32.351  17.789   1.011  0.00  0.00    -0.000 C 
BRANCH  16  21
ATOM     21  C   UNL     1     -35.469  17.126  -1.012  0.00  0.00    -0.059 C 
BRANCH  21  22
ATOM     22  N   UNL     1     -36.489  16.601  -0.103  0.00  0.00    +0.383 N 
ATOM     23  H   UNL     1     -36.719  15.643  -0.367  0.00  0.00    -0.089 HD
ATOM     24  H   UNL     1     -37.326  17.180  -0.161  0.00  0.00    -0.089 HD
ATOM     25  H   UNL     1     -36.132  16.614   0.852  0.00  0.00    -0.089 HD
ENDBRANCH  21  22
ENDBRANCH  16  21
ENDBRANCH  14  15
ENDBRANCH  12  14
ENDBRANCH   5  11
BRANCH   7  27
ATOM     26  OXT UNL     1     -36.944  26.908   2.188  0.00  0.00    -0.244 OA
ATOM     27  C   UNL     1     -37.599  26.160   2.888  0.00  0.00    +0.351 C 
BRANCH  27  28
ATOM     28  O   UNL     1     -38.817  26.413   3.406  0.00  0.00    -0.476 OA
ATOM     29  H   UNL     1     -38.896  26.909   4.196  0.00  0.00    +0.295 HD
ENDBRANCH  27  28
ENDBRANCH   7  27
BRANCH   8  30
ATOM     30  C   UNL     1     -35.993  25.715   5.362  0.00  0.00    +0.088 C 
BRANCH  30  31
ATOM     31  S   UNL     1     -34.199  25.859   5.416  0.00  0.00    -0.089 S 
BRANCH  31  35
ATOM     32  O   UNL     1     -33.263  28.452   0.441  0.00  0.00    -0.268 OA
ATOM     33  N   UNL     1     -34.304  27.923   3.792  0.00  0.00    -0.173 NA
ATOM     34  N   UNL     1     -34.066  28.510   2.593  0.00  0.00    -0.202 N 
ATOM     35  C   UNL     1     -33.932  26.693   3.910  0.00  0.00    +0.124 C 
ATOM     36  C   UNL     1     -33.280  25.878   2.875  0.00  0.00    +0.032 C 
ATOM     37  C   UNL     1     -33.060  26.486   1.709  0.00  0.00    +0.062 C 
ATOM     38  C   UNL     1     -33.467  27.896   1.518  0.00  0.00    +0.265 C 
ATOM     39  H   UNL     1     -34.343  29.448   2.484  0.00  0.00    +0.178 HD
ENDBRANCH  31  35
ENDBRANCH  30  31
ENDBRANCH   8  30
TORSDOF 10
ENDMDL
MODEL 9
REMARK VINA RESULT:      -6.5      4.506     10.439
REMARK  Name = 191263
REMARK  10 active torsions:
REMARK  status: ('A' for Active; 'I' for Inactive)
REMARK    1  A    between atoms: CA_5  and  N_11
REMARK    2  A    between atoms: CA_7  and  C_27
REMARK    3  A    between atoms: C_8  and  C_30
REMARK    4  A    between atoms: C_12  and  C_14
REMARK    5  A    between atoms: C_14  and  C_15
REMARK    6  A    between atoms: C_16  and  C_21
REMARK    7  A    between atoms: C_21  and  N_22
REMARK    8  A    between atoms: C_27  and  O_28
REMARK    9  A    between atoms: C_30  and  S_31
REMARK   10  A    between atoms: S_31  and  C_35
REMARK                            x       y       z     vdW  Elec       q    Type
REMARK                         _______ _______ _______ _____ _____    ______ ____
ROOT
ATOM      1  S   UNL     1     -36.581  27.503   1.003  0.00  0.00    -0.114 S 
ATOM      2  O   UNL     1     -33.441  28.567   4.262  0.00  0.00    -0.273 OA
ATOM      3  N   UNL     1     -34.719  28.877   2.305  0.00  0.00    -0.242 N 
ATOM      4  C   UNL     1     -34.832  27.775   1.367  0.00  0.00    +0.155 C 
ATOM      5  CA  UNL     1     -34.216  26.895   2.477  0.00  0.00    +0.178 C 
ATOM      6  C   UNL     1     -33.979  28.232   3.233  0.00  0.00    +0.251 C 
ATOM      7  CA  UNL     1     -35.274  30.100   2.103  0.00  0.00    +0.124 C 
ATOM      8  C   UNL     1     -36.219  30.299   1.153  0.00  0.00    -0.002 C 
ATOM      9  C   UNL     1     -36.811  29.175   0.307  0.00  0.00    +0.083 C 
ENDROOT
BRANCH   5  11
ATOM     10  O   UNL     1     -33.421  24.931   4.440  0.00  0.00    -0.275 OA
ATOM     11  N   UNL     1     -35.085  25.962   3.194  0.00  0.00    -0.296 N 
ATOM     12  C   UNL     1     -34.604  25.046   4.130  0.00  0.00    +0.227 C 
ATOM     13  H   UNL     1     -36.051  25.983   3.009  0.00  0.00    +0.150 HD
BRANCH  12  14
ATOM     14  C   UNL     1     -35.714  24.201   4.724  0.00  0.00    +0.111 C 
BRANCH  14  15
ATOM     15  C   UNL     1     -36.337  23.254   3.734  0.00  0.00    -0.019 C 
ATOM     16  C   UNL     1     -37.539  23.568   3.099  0.00  0.00    -0.048 C 
ATOM     17  C   UNL     1     -35.694  22.048   3.452  0.00  0.00    -0.004 C 
ATOM     18  C   UNL     1     -38.099  22.676   2.184  0.00  0.00    -0.007 C 
ATOM     19  C   UNL     1     -36.253  21.156   2.538  0.00  0.00    -0.000 C 
ATOM     20  C   UNL     1     -37.456  21.470   1.903  0.00  0.00    -0.000 C 
BRANCH  16  21
ATOM     21  C   UNL     1     -38.246  24.852   3.383  0.00  0.00    -0.059 C 
BRANCH  21  22
ATOM     22  N   UNL     1     -39.643  24.645   3.767  0.00  0.00    +0.383 N 
ATOM     23  H   UNL     1     -40.062  25.540   4.020  0.00  0.00    -0.089 HD
ATOM     24  H   UNL     1     -39.685  24.011   4.564  0.00  0.00    -0.089 HD
ATOM     25  H   UNL     1     -40.154  24.240   2.983  0.00  0.00    -0.089 HD
ENDBRANCH  21  22
ENDBRANCH  16  21
ENDBRANCH  14  15
ENDBRANCH  12  14
ENDBRANCH   5  11
BRANCH   7  27
ATOM     26  OXT UNL     1     -34.007  32.012   2.728  0.00  0.00    -0.244 OA
ATOM     27  C   UNL     1     -34.850  31.182   3.004  0.00  0.00    +0.351 C 
BRANCH  27  28
ATOM     28  O   UNL     1     -35.538  31.097   4.159  0.00  0.00    -0.476 OA
ATOM     29  H   UNL     1     -36.213  31.718   4.350  0.00  0.00    +0.295 HD
ENDBRANCH  27  28
ENDBRANCH   7  27
BRANCH   8  30
ATOM     30  C   UNL     1     -36.822  31.641   0.814  0.00  0.00    +0.088 C 
BRANCH  30  31
ATOM     31  S   UNL     1     -38.522  31.410   0.266  0.00  0.00    -0.089 S 
BRANCH  31  35
ATOM     32  O   UNL     1     -40.773  36.019   2.725  0.00  0.00    -0.268 OA
ATOM     33  N   UNL     1     -40.520  33.012   0.856  0.00  0.00    -0.173 NA
ATOM     34  N   UNL     1     -41.023  34.120   1.455  0.00  0.00    -0.202 N 
ATOM     35  C   UNL     1     -39.254  32.808   1.002  0.00  0.00    +0.124 C 
ATOM     36  C   UNL     1     -38.317  33.658   1.750  0.00  0.00    +0.032 C 
ATOM     37  C   UNL     1     -38.845  34.738   2.326  0.00  0.00    +0.062 C 
ATOM     38  C   UNL     1     -40.290  35.021   2.192  0.00  0.00    +0.265 C 
ATOM     39  H   UNL     1     -41.988  34.292   1.355  0.00  0.00    +0.178 HD
ENDBRANCH  31  35
ENDBRANCH  30  31
ENDBRANCH   8  30
TORSDOF 10
ENDMDL
