MODEL 1
REMARK VINA RESULT:      -7.4      0.000      0.000
REMARK  Name = 502222
REMARK  10 active torsions:
REMARK  status: ('A' for Active; 'I' for Inactive)
REMARK    1  A    between atoms: P_1  and  N_3
REMARK    2  A    between atoms: P_1  and  O_11
REMARK    3  A    between atoms: P_1  and  O_28
REMARK    4  A    between atoms: N_3  and  C_5
REMARK    5  A    between atoms: C_5  and  C_8
REMARK    6  A    between atoms: C_8  and  O_9
REMARK    7  A    between atoms: O_11  and  C_12
REMARK    8  A    between atoms: C_12  and  C_14
REMARK    9  A    between atoms: C_15  and  N_20
REMARK   10  A    between atoms: O_28  and  C_29
REMARK                            x       y       z     vdW  Elec       q    Type
REMARK                         _______ _______ _______ _____ _____    ______ ____
ROOT
ATOM      1  P   UNL     1     -35.926  21.201   2.560  0.00  0.00    +0.463 P 
ATOM      2  O   UNL     1     -35.200  20.555   3.714  0.00  0.00    -0.228 OA
ENDROOT
BRANCH   1   3
ATOM      3  N   UNL     1     -37.424  20.594   2.179  0.00  0.00    -0.193 NA
ATOM      4  H   UNL     1     -37.965  20.566   3.043  0.00  0.00    +0.136 HD
BRANCH   3   5
ATOM      5  C   UNL     1     -38.230  21.295   1.191  0.00  0.00    +0.164 C 
ATOM      6  C   UNL     1     -38.543  20.363   0.028  0.00  0.00    +0.030 C 
BRANCH   5   8
ATOM      7  O   UNL     1     -40.467  21.047   2.132  0.00  0.00    -0.249 OA
ATOM      8  C   UNL     1     -39.507  21.759   1.865  0.00  0.00    +0.332 C 
BRANCH   8   9
ATOM      9  O   UNL     1     -39.413  23.096   2.133  0.00  0.00    -0.443 OA
ATOM     10  C   UNL     1     -38.895  23.904   1.071  0.00  0.00    +0.256 C 
ENDBRANCH   8   9
ENDBRANCH   5   8
ENDBRANCH   3   5
ENDBRANCH   1   3
BRANCH   1  11
ATOM     11  O   UNL     1     -36.107  22.798   2.827  0.00  0.00    -0.271 OA
BRANCH  11  12
ATOM     12  C   UNL     1     -34.970  23.635   2.956  0.00  0.00    +0.188 C 
BRANCH  12  14
ATOM     13  O   UNL     1     -33.580  24.775   4.563  0.00  0.00    -0.329 OA
ATOM     14  C   UNL     1     -34.714  23.891   4.431  0.00  0.00    +0.169 C 
ATOM     15  C   UNL     1     -33.998  25.947   5.284  0.00  0.00    +0.223 C 
ATOM     16  C   UNL     1     -35.844  24.585   5.105  0.00  0.00    +0.005 C 
ATOM     17  C   UNL     1     -35.434  25.754   5.588  0.00  0.00    +0.022 C 
BRANCH  15  20
ATOM     18  O   UNL     1     -31.752  27.701   5.377  0.00  0.00    -0.252 OA
ATOM     19  O   UNL     1     -33.456  30.344   2.023  0.00  0.00    -0.270 OA
ATOM     20  N   UNL     1     -33.810  27.122   4.441  0.00  0.00    -0.215 N 
ATOM     21  N   UNL     1     -32.614  29.011   3.704  0.00  0.00    -0.236 N 
ATOM     22  C   UNL     1     -34.795  27.418   3.521  0.00  0.00    +0.072 C 
ATOM     23  C   UNL     1     -32.663  27.916   4.574  0.00  0.00    +0.316 C 
ATOM     24  C   UNL     1     -34.745  28.466   2.690  0.00  0.00    +0.047 C 
ATOM     25  C   UNL     1     -33.563  29.367   2.758  0.00  0.00    +0.250 C 
ATOM     26  C   UNL     1     -35.813  28.783   1.694  0.00  0.00    +0.037 C 
ATOM     27  H   UNL     1     -31.821  29.591   3.771  0.00  0.00    +0.159 HD
ENDBRANCH  15  20
ENDBRANCH  12  14
ENDBRANCH  11  12
ENDBRANCH   1  11
BRANCH   1  28
ATOM     28  O   UNL     1     -35.037  21.211   1.204  0.00  0.00    -0.411 OA
BRANCH  28  29
ATOM     29  C   UNL     1     -33.921  20.450   0.981  0.00  0.00    +0.148 C 
ATOM     30  C   UNL     1     -33.835  19.164   1.514  0.00  0.00    +0.037 C 
ATOM     31  C   UNL     1     -32.869  20.962   0.220  0.00  0.00    +0.037 C 
ATOM     32  C   UNL     1     -32.697  18.389   1.287  0.00  0.00    +0.003 C 
ATOM     33  C   UNL     1     -31.732  20.188  -0.007  0.00  0.00    +0.003 C 
ATOM     34  C   UNL     1     -31.646  18.902   0.526  0.00  0.00    +0.000 C 
ENDBRANCH  28  29
ENDBRANCH   1  28
TORSDOF 10
ENDMDL
MODEL 2
REMARK VINA RESULT:      -7.2      1.417      1.819
REMARK  Name = 502222
REMARK  10 active torsions:
REMARK  status: ('A' for Active; 'I' for Inactive)
REMARK    1  A    between atoms: P_1  and  N_3
REMARK    2  A    between atoms: P_1  and  O_11
REMARK    3  A    between atoms: P_1  and  O_28
REMARK    4  A    between atoms: N_3  and  C_5
REMARK    5  A    between atoms: C_5  and  C_8
REMARK    6  A    between atoms: C_8  and  O_9
REMARK    7  A    between atoms: O_11  and  C_12
REMARK    8  A    between atoms: C_12  and  C_14
REMARK    9  A    between atoms: C_15  and  N_20
REMARK   10  A    between atoms: O_28  and  C_29
REMARK                            x       y       z     vdW  Elec       q    Type
REMARK                         _______ _______ _______ _____ _____    ______ ____
ROOT
ATOM      1  P   UNL     1     -35.912  20.910   2.262  0.00  0.00    +0.463 P 
ATOM      2  O   UNL     1     -35.187  20.316   3.443  0.00  0.00    -0.228 OA
ENDROOT
BRANCH   1   3
ATOM      3  N   UNL     1     -37.479  20.418   2.016  0.00  0.00    -0.193 NA
ATOM      4  H   UNL     1     -38.017  20.710   2.831  0.00  0.00    +0.136 HD
BRANCH   3   5
ATOM      5  C   UNL     1     -38.186  20.903   0.840  0.00  0.00    +0.164 C 
ATOM      6  C   UNL     1     -38.259  19.801  -0.207  0.00  0.00    +0.030 C 
BRANCH   5   8
ATOM      7  O   UNL     1     -40.624  20.947   0.758  0.00  0.00    -0.249 OA
ATOM      8  C   UNL     1     -39.578  21.329   1.268  0.00  0.00    +0.332 C 
BRANCH   8   9
ATOM      9  O   UNL     1     -39.478  22.200   2.317  0.00  0.00    -0.443 OA
ATOM     10  C   UNL     1     -39.730  23.575   2.004  0.00  0.00    +0.256 C 
ENDBRANCH   8   9
ENDBRANCH   5   8
ENDBRANCH   3   5
ENDBRANCH   1   3
BRANCH   1  11
ATOM     11  O   UNL     1     -35.927  22.535   2.364  0.00  0.00    -0.271 OA
BRANCH  11  12
ATOM     12  C   UNL     1     -36.339  23.174   3.561  0.00  0.00    +0.188 C 
BRANCH  12  14
ATOM     13  O   UNL     1     -34.412  24.612   3.398  0.00  0.00    -0.329 OA
ATOM     14  C   UNL     1     -35.112  23.708   4.279  0.00  0.00    +0.169 C 
ATOM     15  C   UNL     1     -34.323  25.896   4.040  0.00  0.00    +0.223 C 
ATOM     16  C   UNL     1     -35.448  24.506   5.489  0.00  0.00    +0.005 C 
ATOM     17  C   UNL     1     -35.000  25.751   5.350  0.00  0.00    +0.022 C 
BRANCH  15  20
ATOM     18  O   UNL     1     -33.650  28.663   3.905  0.00  0.00    -0.252 OA
ATOM     19  O   UNL     1     -37.020  29.514   0.894  0.00  0.00    -0.270 OA
ATOM     20  N   UNL     1     -35.007  26.891   3.223  0.00  0.00    -0.215 N 
ATOM     21  N   UNL     1     -35.335  29.073   2.405  0.00  0.00    -0.236 N 
ATOM     22  C   UNL     1     -36.067  26.468   2.448  0.00  0.00    +0.072 C 
ATOM     23  C   UNL     1     -34.590  28.229   3.235  0.00  0.00    +0.316 C 
ATOM     24  C   UNL     1     -36.779  27.279   1.655  0.00  0.00    +0.047 C 
ATOM     25  C   UNL     1     -36.408  28.719   1.602  0.00  0.00    +0.250 C 
ATOM     26  C   UNL     1     -37.927  26.818   0.817  0.00  0.00    +0.037 C 
ATOM     27  H   UNL     1     -35.069  30.022   2.389  0.00  0.00    +0.159 HD
ENDBRANCH  15  20
ENDBRANCH  12  14
ENDBRANCH  11  12
ENDBRANCH   1  11
BRANCH   1  28
ATOM     28  O   UNL     1     -35.103  20.694   0.873  0.00  0.00    -0.411 OA
BRANCH  28  29
ATOM     29  C   UNL     1     -33.868  20.115   0.756  0.00  0.00    +0.148 C 
ATOM     30  C   UNL     1     -32.824  20.814   0.149  0.00  0.00    +0.037 C 
ATOM     31  C   UNL     1     -33.652  18.826   1.244  0.00  0.00    +0.037 C 
ATOM     32  C   UNL     1     -31.566  20.223   0.029  0.00  0.00    +0.003 C 
ATOM     33  C   UNL     1     -32.395  18.236   1.125  0.00  0.00    +0.003 C 
ATOM     34  C   UNL     1     -31.351  18.935   0.518  0.00  0.00    +0.000 C 
ENDBRANCH  28  29
ENDBRANCH   1  28
TORSDOF 10
ENDMDL
MODEL 3
REMARK VINA RESULT:      -7.1      2.669      7.605
REMARK  Name = 502222
REMARK  10 active torsions:
REMARK  status: ('A' for Active; 'I' for Inactive)
REMARK    1  A    between atoms: P_1  and  N_3
REMARK    2  A    between atoms: P_1  and  O_11
REMARK    3  A    between atoms: P_1  and  O_28
REMARK    4  A    between atoms: N_3  and  C_5
REMARK    5  A    between atoms: C_5  and  C_8
REMARK    6  A    between atoms: C_8  and  O_9
REMARK    7  A    between atoms: O_11  and  C_12
REMARK    8  A    between atoms: C_12  and  C_14
REMARK    9  A    between atoms: C_15  and  N_20
REMARK   10  A    between atoms: O_28  and  C_29
REMARK                            x       y       z     vdW  Elec       q    Type
REMARK                         _______ _______ _______ _____ _____    ______ ____
ROOT
ATOM      1  P   UNL     1     -36.150  26.223   2.909  0.00  0.00    +0.463 P 
ATOM      2  O   UNL     1     -35.411  25.513   1.803  0.00  0.00    -0.228 OA
ENDROOT
BRANCH   1   3
ATOM      3  N   UNL     1     -35.301  27.357   3.775  0.00  0.00    -0.193 NA
ATOM      4  H   UNL     1     -35.202  26.998   4.724  0.00  0.00    +0.136 HD
BRANCH   3   5
ATOM      5  C   UNL     1     -33.971  27.731   3.318  0.00  0.00    +0.164 C 
ATOM      6  C   UNL     1     -33.948  29.209   2.955  0.00  0.00    +0.030 C 
BRANCH   5   8
ATOM      7  O   UNL     1     -31.773  27.580   4.366  0.00  0.00    -0.249 OA
ATOM      8  C   UNL     1     -32.987  27.438   4.435  0.00  0.00    +0.332 C 
BRANCH   8   9
ATOM      9  O   UNL     1     -33.673  26.996   5.532  0.00  0.00    -0.443 OA
ATOM     10  C   UNL     1     -32.928  26.963   6.755  0.00  0.00    +0.256 C 
ENDBRANCH   8   9
ENDBRANCH   5   8
ENDBRANCH   3   5
ENDBRANCH   1   3
BRANCH   1  11
ATOM     11  O   UNL     1     -37.479  26.960   2.322  0.00  0.00    -0.271 OA
BRANCH  11  12
ATOM     12  C   UNL     1     -38.001  26.593   1.056  0.00  0.00    +0.188 C 
BRANCH  12  14
ATOM     13  O   UNL     1     -39.650  24.974   0.367  0.00  0.00    -0.329 OA
ATOM     14  C   UNL     1     -39.428  26.105   1.237  0.00  0.00    +0.169 C 
ATOM     15  C   UNL     1     -40.044  23.851   1.173  0.00  0.00    +0.223 C 
ATOM     16  C   UNL     1     -39.704  25.613   2.613  0.00  0.00    +0.005 C 
ATOM     17  C   UNL     1     -40.053  24.330   2.574  0.00  0.00    +0.022 C 
BRANCH  15  20
ATOM     18  O   UNL     1     -40.371  21.176   2.102  0.00  0.00    -0.252 OA
ATOM     19  O   UNL     1     -36.260  19.921   0.468  0.00  0.00    -0.270 OA
ATOM     20  N   UNL     1     -39.072  22.777   1.010  0.00  0.00    -0.215 N 
ATOM     21  N   UNL     1     -38.318  20.564   1.283  0.00  0.00    -0.236 N 
ATOM     22  C   UNL     1     -37.893  23.070   0.354  0.00  0.00    +0.072 C 
ATOM     23  C   UNL     1     -39.338  21.495   1.509  0.00  0.00    +0.316 C 
ATOM     24  C   UNL     1     -36.920  22.177   0.139  0.00  0.00    +0.047 C 
ATOM     25  C   UNL     1     -37.114  20.787   0.633  0.00  0.00    +0.250 C 
ATOM     26  C   UNL     1     -35.645  22.497  -0.573  0.00  0.00    +0.037 C 
ATOM     27  H   UNL     1     -38.472  19.652   1.621  0.00  0.00    +0.159 HD
ENDBRANCH  15  20
ENDBRANCH  12  14
ENDBRANCH  11  12
ENDBRANCH   1  11
BRANCH   1  28
ATOM     28  O   UNL     1     -36.812  25.187   3.968  0.00  0.00    -0.411 OA
BRANCH  28  29
ATOM     29  C   UNL     1     -36.239  24.022   4.402  0.00  0.00    +0.148 C 
ATOM     30  C   UNL     1     -36.297  22.877   3.606  0.00  0.00    +0.037 C 
ATOM     31  C   UNL     1     -35.599  23.979   5.640  0.00  0.00    +0.037 C 
ATOM     32  C   UNL     1     -35.713  21.690   4.049  0.00  0.00    +0.003 C 
ATOM     33  C   UNL     1     -35.015  22.792   6.083  0.00  0.00    +0.003 C 
ATOM     34  C   UNL     1     -35.072  21.648   5.287  0.00  0.00    +0.000 C 
ENDBRANCH  28  29
ENDBRANCH   1  28
TORSDOF 10
ENDMDL
MODEL 4
REMARK VINA RESULT:      -7.1      2.901      8.165
REMARK  Name = 502222
REMARK  10 active torsions:
REMARK  status: ('A' for Active; 'I' for Inactive)
REMARK    1  A    between atoms: P_1  and  N_3
REMARK    2  A    between atoms: P_1  and  O_11
REMARK    3  A    between atoms: P_1  and  O_28
REMARK    4  A    between atoms: N_3  and  C_5
REMARK    5  A    between atoms: C_5  and  C_8
REMARK    6  A    between atoms: C_8  and  O_9
REMARK    7  A    between atoms: O_11  and  C_12
REMARK    8  A    between atoms: C_12  and  C_14
REMARK    9  A    between atoms: C_15  and  N_20
REMARK   10  A    between atoms: O_28  and  C_29
REMARK                            x       y       z     vdW  Elec       q    Type
REMARK                         _______ _______ _______ _____ _____    ______ ____
ROOT
ATOM      1  P   UNL     1     -36.337  27.630   1.320  0.00  0.00    +0.463 P 
ATOM      2  O   UNL     1     -35.819  27.747  -0.092  0.00  0.00    -0.228 OA
ENDROOT
BRANCH   1   3
ATOM      3  N   UNL     1     -36.005  28.889   2.350  0.00  0.00    -0.193 NA
ATOM      4  H   UNL     1     -35.529  28.496   3.161  0.00  0.00    +0.136 HD
BRANCH   3   5
ATOM      5  C   UNL     1     -35.187  29.990   1.864  0.00  0.00    +0.164 C 
ATOM      6  C   UNL     1     -35.741  31.310   2.382  0.00  0.00    +0.030 C 
BRANCH   5   8
ATOM      7  O   UNL     1     -32.788  29.612   1.637  0.00  0.00    -0.249 OA
ATOM      8  C   UNL     1     -33.767  29.776   2.353  0.00  0.00    +0.332 C 
BRANCH   8   9
ATOM      9  O   UNL     1     -33.755  29.801   3.720  0.00  0.00    -0.443 OA
ATOM     10  C   UNL     1     -32.545  30.278   4.319  0.00  0.00    +0.256 C 
ENDBRANCH   8   9
ENDBRANCH   5   8
ENDBRANCH   3   5
ENDBRANCH   1   3
BRANCH   1  11
ATOM     11  O   UNL     1     -37.952  27.423   1.315  0.00  0.00    -0.271 OA
BRANCH  11  12
ATOM     12  C   UNL     1     -38.533  26.332   0.620  0.00  0.00    +0.188 C 
BRANCH  12  14
ATOM     13  O   UNL     1     -40.033  24.495   1.054  0.00  0.00    -0.329 OA
ATOM     14  C   UNL     1     -39.778  25.882   1.366  0.00  0.00    +0.169 C 
ATOM     15  C   UNL     1     -40.036  23.746   2.282  0.00  0.00    +0.223 C 
ATOM     16  C   UNL     1     -39.622  25.940   2.844  0.00  0.00    +0.005 C 
ATOM     17  C   UNL     1     -39.769  24.724   3.363  0.00  0.00    +0.022 C 
BRANCH  15  20
ATOM     18  O   UNL     1     -40.340  21.086   1.304  0.00  0.00    -0.252 OA
ATOM     19  O   UNL     1     -35.941  20.075   2.180  0.00  0.00    -0.270 OA
ATOM     20  N   UNL     1     -38.983  22.740   2.235  0.00  0.00    -0.215 N 
ATOM     21  N   UNL     1     -38.144  20.596   1.747  0.00  0.00    -0.236 N 
ATOM     22  C   UNL     1     -37.733  23.095   2.700  0.00  0.00    +0.072 C 
ATOM     23  C   UNL     1     -39.246  21.459   1.732  0.00  0.00    +0.316 C 
ATOM     24  C   UNL     1     -36.681  22.267   2.712  0.00  0.00    +0.047 C 
ATOM     25  C   UNL     1     -36.865  20.884   2.196  0.00  0.00    +0.250 C 
ATOM     26  C   UNL     1     -35.329  22.655   3.216  0.00  0.00    +0.037 C 
ATOM     27  H   UNL     1     -38.294  19.686   1.400  0.00  0.00    +0.159 HD
ENDBRANCH  15  20
ENDBRANCH  12  14
ENDBRANCH  11  12
ENDBRANCH   1  11
BRANCH   1  28
ATOM     28  O   UNL     1     -35.850  26.261   2.040  0.00  0.00    -0.411 OA
BRANCH  28  29
ATOM     29  C   UNL     1     -35.387  26.161   3.325  0.00  0.00    +0.148 C 
ATOM     30  C   UNL     1     -36.283  25.976   4.377  0.00  0.00    +0.037 C 
ATOM     31  C   UNL     1     -34.018  26.244   3.581  0.00  0.00    +0.037 C 
ATOM     32  C   UNL     1     -35.810  25.874   5.686  0.00  0.00    +0.003 C 
ATOM     33  C   UNL     1     -33.545  26.143   4.888  0.00  0.00    +0.003 C 
ATOM     34  C   UNL     1     -34.441  25.957   5.941  0.00  0.00    +0.000 C 
ENDBRANCH  28  29
ENDBRANCH   1  28
TORSDOF 10
ENDMDL
MODEL 5
REMARK VINA RESULT:      -7.0      2.847      5.369
REMARK  Name = 502222
REMARK  10 active torsions:
REMARK  status: ('A' for Active; 'I' for Inactive)
REMARK    1  A    between atoms: P_1  and  N_3
REMARK    2  A    between atoms: P_1  and  O_11
REMARK    3  A    between atoms: P_1  and  O_28
REMARK    4  A    between atoms: N_3  and  C_5
REMARK    5  A    between atoms: C_5  and  C_8
REMARK    6  A    between atoms: C_8  and  O_9
REMARK    7  A    between atoms: O_11  and  C_12
REMARK    8  A    between atoms: C_12  and  C_14
REMARK    9  A    between atoms: C_15  and  N_20
REMARK   10  A    between atoms: O_28  and  C_29
REMARK                            x       y       z     vdW  Elec       q    Type
REMARK                         _______ _______ _______ _____ _____    ______ ____
ROOT
ATOM      1  P   UNL     1     -37.383  21.911   1.934  0.00  0.00    +0.463 P 
ATOM      2  O   UNL     1     -36.867  22.504   0.646  0.00  0.00    -0.228 OA
ENDROOT
BRANCH   1   3
ATOM      3  N   UNL     1     -37.168  22.808   3.314  0.00  0.00    -0.193 NA
ATOM      4  H   UNL     1     -37.796  22.427   4.020  0.00  0.00    +0.136 HD
BRANCH   3   5
ATOM      5  C   UNL     1     -35.840  22.866   3.907  0.00  0.00    +0.164 C 
ATOM      6  C   UNL     1     -34.898  23.628   2.985  0.00  0.00    +0.030 C 
BRANCH   5   8
ATOM      7  O   UNL     1     -36.050  24.771   5.417  0.00  0.00    -0.249 OA
ATOM      8  C   UNL     1     -35.953  23.562   5.251  0.00  0.00    +0.332 C 
BRANCH   8   9
ATOM      9  O   UNL     1     -35.937  22.623   6.245  0.00  0.00    -0.443 OA
ATOM     10  C   UNL     1     -35.019  21.541   6.058  0.00  0.00    +0.256 C 
ENDBRANCH   8   9
ENDBRANCH   5   8
ENDBRANCH   3   5
ENDBRANCH   1   3
BRANCH   1  11
ATOM     11  O   UNL     1     -38.974  21.587   1.812  0.00  0.00    -0.271 OA
BRANCH  11  12
ATOM     12  C   UNL     1     -39.557  21.325   0.546  0.00  0.00    +0.188 C 
BRANCH  12  14
ATOM     13  O   UNL     1     -40.769  23.208   1.440  0.00  0.00    -0.329 OA
ATOM     14  C   UNL     1     -40.710  22.290   0.328  0.00  0.00    +0.169 C 
ATOM     15  C   UNL     1     -40.642  24.547   0.933  0.00  0.00    +0.223 C 
ATOM     16  C   UNL     1     -40.538  23.137  -0.883  0.00  0.00    +0.005 C 
ATOM     17  C   UNL     1     -40.498  24.420  -0.536  0.00  0.00    +0.022 C 
BRANCH  15  20
ATOM     18  O   UNL     1     -40.261  25.132   3.697  0.00  0.00    -0.252 OA
ATOM     19  O   UNL     1     -36.088  26.903   2.926  0.00  0.00    -0.270 OA
ATOM     20  N   UNL     1     -39.455  25.169   1.507  0.00  0.00    -0.215 N 
ATOM     21  N   UNL     1     -38.181  26.013   3.297  0.00  0.00    -0.236 N 
ATOM     22  C   UNL     1     -38.427  25.506   0.650  0.00  0.00    +0.072 C 
ATOM     23  C   UNL     1     -39.375  25.412   2.885  0.00  0.00    +0.316 C 
ATOM     24  C   UNL     1     -37.286  26.082   1.048  0.00  0.00    +0.047 C 
ATOM     25  C   UNL     1     -37.110  26.377   2.496  0.00  0.00    +0.250 C 
ATOM     26  C   UNL     1     -36.174  26.445   0.118  0.00  0.00    +0.037 C 
ATOM     27  H   UNL     1     -38.092  26.198   4.261  0.00  0.00    +0.159 HD
ENDBRANCH  15  20
ENDBRANCH  12  14
ENDBRANCH  11  12
ENDBRANCH   1  11
BRANCH   1  28
ATOM     28  O   UNL     1     -36.785  20.429   2.209  0.00  0.00    -0.411 OA
BRANCH  28  29
ATOM     29  C   UNL     1     -35.799  19.822   1.478  0.00  0.00    +0.148 C 
ATOM     30  C   UNL     1     -36.121  19.130   0.310  0.00  0.00    +0.037 C 
ATOM     31  C   UNL     1     -34.472  19.896   1.901  0.00  0.00    +0.037 C 
ATOM     32  C   UNL     1     -35.115  18.512  -0.434  0.00  0.00    +0.003 C 
ATOM     33  C   UNL     1     -33.467  19.279   1.157  0.00  0.00    +0.003 C 
ATOM     34  C   UNL     1     -33.789  18.587  -0.010  0.00  0.00    +0.000 C 
ENDBRANCH  28  29
ENDBRANCH   1  28
TORSDOF 10
ENDMDL
MODEL 6
REMARK VINA RESULT:      -7.0      2.302      4.987
REMARK  Name = 502222
REMARK  10 active torsions:
REMARK  status: ('A' for Active; 'I' for Inactive)
REMARK    1  A    between atoms: P_1  and  N_3
REMARK    2  A    between atoms: P_1  and  O_11
REMARK    3  A    between atoms: P_1  and  O_28
REMARK    4  A    between atoms: N_3  and  C_5
REMARK    5  A    between atoms: C_5  and  C_8
REMARK    6  A    between atoms: C_8  and  O_9
REMARK    7  A    between atoms: O_11  and  C_12
REMARK    8  A    between atoms: C_12  and  C_14
REMARK    9  A    between atoms: C_15  and  N_20
REMARK   10  A    between atoms: O_28  and  C_29
REMARK                            x       y       z     vdW  Elec       q    Type
REMARK                         _______ _______ _______ _____ _____    ______ ____
ROOT
ATOM      1  P   UNL     1     -36.118  22.333   2.084  0.00  0.00    +0.463 P 
ATOM      2  O   UNL     1     -36.047  23.586   1.246  0.00  0.00    -0.228 OA
ENDROOT
BRANCH   1   3
ATOM      3  N   UNL     1     -35.234  22.317   3.489  0.00  0.00    -0.193 NA
ATOM      4  H   UNL     1     -34.393  22.868   3.322  0.00  0.00    +0.136 HD
BRANCH   3   5
ATOM      5  C   UNL     1     -35.848  22.831   4.705  0.00  0.00    +0.164 C 
ATOM      6  C   UNL     1     -35.433  21.975   5.893  0.00  0.00    +0.030 C 
BRANCH   5   8
ATOM      7  O   UNL     1     -36.069  25.166   5.375  0.00  0.00    -0.249 OA
ATOM      8  C   UNL     1     -35.394  24.267   4.893  0.00  0.00    +0.332 C 
BRANCH   8   9
ATOM      9  O   UNL     1     -34.108  24.392   4.446  0.00  0.00    -0.443 OA
ATOM     10  C   UNL     1     -33.831  25.573   3.685  0.00  0.00    +0.256 C 
ENDBRANCH   8   9
ENDBRANCH   5   8
ENDBRANCH   3   5
ENDBRANCH   1   3
BRANCH   1  11
ATOM     11  O   UNL     1     -37.662  22.002   2.480  0.00  0.00    -0.271 OA
BRANCH  11  12
ATOM     12  C   UNL     1     -38.438  21.132   1.674  0.00  0.00    +0.188 C 
BRANCH  12  14
ATOM     13  O   UNL     1     -39.948  22.878   2.367  0.00  0.00    -0.329 OA
ATOM     14  C   UNL     1     -39.826  21.725   1.507  0.00  0.00    +0.169 C 
ATOM     15  C   UNL     1     -40.267  24.021   1.554  0.00  0.00    +0.223 C 
ATOM     16  C   UNL     1     -40.084  22.222   0.129  0.00  0.00    +0.005 C 
ATOM     17  C   UNL     1     -40.333  23.529   0.158  0.00  0.00    +0.022 C 
BRANCH  15  20
ATOM     18  O   UNL     1     -39.003  24.756   4.001  0.00  0.00    -0.252 OA
ATOM     19  O   UNL     1     -36.300  27.817   1.886  0.00  0.00    -0.270 OA
ATOM     20  N   UNL     1     -39.214  25.019   1.692  0.00  0.00    -0.215 N 
ATOM     21  N   UNL     1     -37.662  26.280   2.933  0.00  0.00    -0.236 N 
ATOM     22  C   UNL     1     -38.787  25.666   0.550  0.00  0.00    +0.072 C 
ATOM     23  C   UNL     1     -38.662  25.302   2.948  0.00  0.00    +0.316 C 
ATOM     24  C   UNL     1     -37.830  26.601   0.538  0.00  0.00    +0.047 C 
ATOM     25  C   UNL     1     -37.185  26.968   1.828  0.00  0.00    +0.250 C 
ATOM     26  C   UNL     1     -37.370  27.299  -0.700  0.00  0.00    +0.037 C 
ATOM     27  H   UNL     1     -37.252  26.503   3.800  0.00  0.00    +0.159 HD
ENDBRANCH  15  20
ENDBRANCH  12  14
ENDBRANCH  11  12
ENDBRANCH   1  11
BRANCH   1  28
ATOM     28  O   UNL     1     -35.723  21.007   1.237  0.00  0.00    -0.411 OA
BRANCH  28  29
ATOM     29  C   UNL     1     -34.448  20.591   0.962  0.00  0.00    +0.148 C 
ATOM     30  C   UNL     1     -33.996  19.362   1.443  0.00  0.00    +0.037 C 
ATOM     31  C   UNL     1     -33.602  21.396   0.199  0.00  0.00    +0.037 C 
ATOM     32  C   UNL     1     -32.696  18.939   1.161  0.00  0.00    +0.003 C 
ATOM     33  C   UNL     1     -32.303  20.973  -0.082  0.00  0.00    +0.003 C 
ATOM     34  C   UNL     1     -31.851  19.744   0.399  0.00  0.00    +0.000 C 
ENDBRANCH  28  29
ENDBRANCH   1  28
TORSDOF 10
ENDMDL
MODEL 7
REMARK VINA RESULT:      -6.9      1.702      2.221
REMARK  Name = 502222
REMARK  10 active torsions:
REMARK  status: ('A' for Active; 'I' for Inactive)
REMARK    1  A    between atoms: P_1  and  N_3
REMARK    2  A    between atoms: P_1  and  O_11
REMARK    3  A    between atoms: P_1  and  O_28
REMARK    4  A    between atoms: N_3  and  C_5
REMARK    5  A    between atoms: C_5  and  C_8
REMARK    6  A    between atoms: C_8  and  O_9
REMARK    7  A    between atoms: O_11  and  C_12
REMARK    8  A    between atoms: C_12  and  C_14
REMARK    9  A    between atoms: C_15  and  N_20
REMARK   10  A    between atoms: O_28  and  C_29
REMARK                            x       y       z     vdW  Elec       q    Type
REMARK                         _______ _______ _______ _____ _____    ______ ____
ROOT
ATOM      1  P   UNL     1     -35.947  21.340   2.662  0.00  0.00    +0.463 P 
ATOM      2  O   UNL     1     -35.209  20.666   3.793  0.00  0.00    -0.228 OA
ENDROOT
BRANCH   1   3
ATOM      3  N   UNL     1     -37.440  20.730   2.270  0.00  0.00    -0.193 NA
ATOM      4  H   UNL     1     -37.979  20.677   3.133  0.00  0.00    +0.136 HD
BRANCH   3   5
ATOM      5  C   UNL     1     -38.254  21.447   1.299  0.00  0.00    +0.164 C 
ATOM      6  C   UNL     1     -38.467  20.581   0.066  0.00  0.00    +0.030 C 
BRANCH   5   8
ATOM      7  O   UNL     1     -40.480  20.988   2.185  0.00  0.00    -0.249 OA
ATOM      8  C   UNL     1     -39.580  21.786   1.953  0.00  0.00    +0.332 C 
BRANCH   8   9
ATOM      9  O   UNL     1     -39.608  23.120   2.247  0.00  0.00    -0.443 OA
ATOM     10  C   UNL     1     -40.205  23.960   1.253  0.00  0.00    +0.256 C 
ENDBRANCH   8   9
ENDBRANCH   5   8
ENDBRANCH   3   5
ENDBRANCH   1   3
BRANCH   1  11
ATOM     11  O   UNL     1     -36.141  22.926   2.978  0.00  0.00    -0.271 OA
BRANCH  11  12
ATOM     12  C   UNL     1     -36.072  23.405   4.311  0.00  0.00    +0.188 C 
BRANCH  12  14
ATOM     13  O   UNL     1     -35.575  25.723   4.746  0.00  0.00    -0.329 OA
ATOM     14  C   UNL     1     -36.629  24.818   4.353  0.00  0.00    +0.169 C 
ATOM     15  C   UNL     1     -35.411  26.708   3.711  0.00  0.00    +0.223 C 
ATOM     16  C   UNL     1     -37.097  25.298   3.025  0.00  0.00    +0.005 C 
ATOM     17  C   UNL     1     -36.402  26.373   2.662  0.00  0.00    +0.022 C 
BRANCH  15  20
ATOM     18  O   UNL     1     -33.137  28.065   4.765  0.00  0.00    -0.252 OA
ATOM     19  O   UNL     1     -30.367  26.275   1.561  0.00  0.00    -0.270 OA
ATOM     20  N   UNL     1     -34.058  26.624   3.177  0.00  0.00    -0.215 N 
ATOM     21  N   UNL     1     -31.767  27.166   3.161  0.00  0.00    -0.236 N 
ATOM     22  C   UNL     1     -33.851  25.826   2.071  0.00  0.00    +0.072 C 
ATOM     23  C   UNL     1     -33.011  27.338   3.777  0.00  0.00    +0.316 C 
ATOM     24  C   UNL     1     -32.659  25.663   1.484  0.00  0.00    +0.047 C 
ATOM     25  C   UNL     1     -31.487  26.382   2.052  0.00  0.00    +0.250 C 
ATOM     26  C   UNL     1     -32.438  24.797   0.286  0.00  0.00    +0.037 C 
ATOM     27  H   UNL     1     -31.009  27.653   3.557  0.00  0.00    +0.159 HD
ENDBRANCH  15  20
ENDBRANCH  12  14
ENDBRANCH  11  12
ENDBRANCH   1  11
BRANCH   1  28
ATOM     28  O   UNL     1     -35.064  21.399   1.303  0.00  0.00    -0.411 OA
BRANCH  28  29
ATOM     29  C   UNL     1     -33.982  20.609   1.024  0.00  0.00    +0.148 C 
ATOM     30  C   UNL     1     -32.950  21.097   0.222  0.00  0.00    +0.037 C 
ATOM     31  C   UNL     1     -33.910  19.316   1.542  0.00  0.00    +0.037 C 
ATOM     32  C   UNL     1     -31.846  20.291  -0.062  0.00  0.00    +0.003 C 
ATOM     33  C   UNL     1     -32.808  18.511   1.259  0.00  0.00    +0.003 C 
ATOM     34  C   UNL     1     -31.776  18.998   0.457  0.00  0.00    +0.000 C 
ENDBRANCH  28  29
ENDBRANCH   1  28
TORSDOF 10
ENDMDL
MODEL 8
REMARK VINA RESULT:      -6.8      1.837      3.518
REMARK  Name = 502222
REMARK  10 active torsions:
REMARK  status: ('A' for Active; 'I' for Inactive)
REMARK    1  A    between atoms: P_1  and  N_3
REMARK    2  A    between atoms: P_1  and  O_11
REMARK    3  A    between atoms: P_1  and  O_28
REMARK    4  A    between atoms: N_3  and  C_5
REMARK    5  A    between atoms: C_5  and  C_8
REMARK    6  A    between atoms: C_8  and  O_9
REMARK    7  A    between atoms: O_11  and  C_12
REMARK    8  A    between atoms: C_12  and  C_14
REMARK    9  A    between atoms: C_15  and  N_20
REMARK   10  A    between atoms: O_28  and  C_29
REMARK                            x       y       z     vdW  Elec       q    Type
REMARK                         _______ _______ _______ _____ _____    ______ ____
ROOT
ATOM      1  P   UNL     1     -35.895  20.612   1.879  0.00  0.00    +0.463 P 
ATOM      2  O   UNL     1     -35.280  20.403   3.241  0.00  0.00    -0.228 OA
ENDROOT
BRANCH   1   3
ATOM      3  N   UNL     1     -37.051  19.521   1.400  0.00  0.00    -0.193 NA
ATOM      4  H   UNL     1     -37.958  19.924   1.629  0.00  0.00    +0.136 HD
BRANCH   3   5
ATOM      5  C   UNL     1     -37.099  19.124   0.001  0.00  0.00    +0.164 C 
ATOM      6  C   UNL     1     -37.025  17.608  -0.107  0.00  0.00    +0.030 C 
BRANCH   5   8
ATOM      7  O   UNL     1     -39.432  18.999  -0.700  0.00  0.00    -0.249 OA
ATOM      8  C   UNL     1     -38.396  19.642  -0.593  0.00  0.00    +0.332 C 
BRANCH   8   9
ATOM      9  O   UNL     1     -38.224  20.941  -0.983  0.00  0.00    -0.443 OA
ATOM     10  C   UNL     1     -37.238  21.156  -1.999  0.00  0.00    +0.256 C 
ENDBRANCH   8   9
ENDBRANCH   5   8
ENDBRANCH   3   5
ENDBRANCH   1   3
BRANCH   1  11
ATOM     11  O   UNL     1     -36.561  22.095   1.779  0.00  0.00    -0.271 OA
BRANCH  11  12
ATOM     12  C   UNL     1     -37.925  22.292   2.111  0.00  0.00    +0.188 C 
BRANCH  12  14
ATOM     13  O   UNL     1     -38.395  24.622   2.515  0.00  0.00    -0.329 OA
ATOM     14  C   UNL     1     -38.395  23.599   1.496  0.00  0.00    +0.169 C 
ATOM     15  C   UNL     1     -37.535  25.691   2.087  0.00  0.00    +0.223 C 
ATOM     16  C   UNL     1     -37.489  24.097   0.427  0.00  0.00    +0.005 C 
ATOM     17  C   UNL     1     -37.000  25.287   0.766  0.00  0.00    +0.022 C 
BRANCH  15  20
ATOM     18  O   UNL     1     -35.879  27.998   2.338  0.00  0.00    -0.252 OA
ATOM     19  O   UNL     1     -33.476  26.114   5.776  0.00  0.00    -0.270 OA
ATOM     20  N   UNL     1     -36.449  25.850   3.047  0.00  0.00    -0.215 N 
ATOM     21  N   UNL     1     -34.688  27.046   4.051  0.00  0.00    -0.236 N 
ATOM     22  C   UNL     1     -36.195  24.802   3.909  0.00  0.00    +0.072 C 
ATOM     23  C   UNL     1     -35.697  27.032   3.082  0.00  0.00    +0.316 C 
ATOM     24  C   UNL     1     -35.229  24.819   4.835  0.00  0.00    +0.047 C 
ATOM     25  C   UNL     1     -34.378  26.035   4.947  0.00  0.00    +0.250 C 
ATOM     26  C   UNL     1     -34.956  23.683   5.767  0.00  0.00    +0.037 C 
ATOM     27  H   UNL     1     -34.140  27.862   4.103  0.00  0.00    +0.159 HD
ENDBRANCH  15  20
ENDBRANCH  12  14
ENDBRANCH  11  12
ENDBRANCH   1  11
BRANCH   1  28
ATOM     28  O   UNL     1     -34.777  20.693   0.707  0.00  0.00    -0.411 OA
BRANCH  28  29
ATOM     29  C   UNL     1     -33.593  20.006   0.690  0.00  0.00    +0.148 C 
ATOM     30  C   UNL     1     -33.497  18.766   1.322  0.00  0.00    +0.037 C 
ATOM     31  C   UNL     1     -32.482  20.545   0.041  0.00  0.00    +0.037 C 
ATOM     32  C   UNL     1     -32.290  18.066   1.305  0.00  0.00    +0.003 C 
ATOM     33  C   UNL     1     -31.277  19.846   0.023  0.00  0.00    +0.003 C 
ATOM     34  C   UNL     1     -31.180  18.606   0.655  0.00  0.00    +0.000 C 
ENDBRANCH  28  29
ENDBRANCH   1  28
TORSDOF 10
ENDMDL
MODEL 9
REMARK VINA RESULT:      -6.8      2.957      7.902
REMARK  Name = 502222
REMARK  10 active torsions:
REMARK  status: ('A' for Active; 'I' for Inactive)
REMARK    1  A    between atoms: P_1  and  N_3
REMARK    2  A    between atoms: P_1  and  O_11
REMARK    3  A    between atoms: P_1  and  O_28
REMARK    4  A    between atoms: N_3  and  C_5
REMARK    5  A    between atoms: C_5  and  C_8
REMARK    6  A    between atoms: C_8  and  O_9
REMARK    7  A    between atoms: O_11  and  C_12
REMARK    8  A    between atoms: C_12  and  C_14
REMARK    9  A    between atoms: C_15  and  N_20
REMARK   10  A    between atoms: O_28  and  C_29
REMARK                            x       y       z     vdW  Elec       q    Type
REMARK                         _______ _______ _______ _____ _____    ______ ____
ROOT
ATOM      1  P   UNL     1     -36.013  27.398   1.618  0.00  0.00    +0.463 P 
ATOM      2  O   UNL     1     -35.448  26.225   0.856  0.00  0.00    -0.228 OA
ENDROOT
BRANCH   1   3
ATOM      3  N   UNL     1     -35.709  28.910   1.004  0.00  0.00    -0.193 NA
ATOM      4  H   UNL     1     -36.604  29.394   0.940  0.00  0.00    +0.136 HD
BRANCH   3   5
ATOM      5  C   UNL     1     -34.799  29.786   1.726  0.00  0.00    +0.164 C 
ATOM      6  C   UNL     1     -33.967  30.591   0.737  0.00  0.00    +0.030 C 
BRANCH   5   8
ATOM      7  O   UNL     1     -35.287  31.130   3.702  0.00  0.00    -0.249 OA
ATOM      8  C   UNL     1     -35.625  30.706   2.605  0.00  0.00    +0.332 C 
BRANCH   8   9
ATOM      9  O   UNL     1     -36.804  30.990   1.974  0.00  0.00    -0.443 OA
ATOM     10  C   UNL     1     -37.001  32.363   1.619  0.00  0.00    +0.256 C 
ENDBRANCH   8   9
ENDBRANCH   5   8
ENDBRANCH   3   5
ENDBRANCH   1   3
BRANCH   1  11
ATOM     11  O   UNL     1     -37.628  27.253   1.766  0.00  0.00    -0.271 OA
BRANCH  11  12
ATOM     12  C   UNL     1     -38.388  26.628   0.745  0.00  0.00    +0.188 C 
BRANCH  12  14
ATOM     13  O   UNL     1     -39.923  24.775   0.899  0.00  0.00    -0.329 OA
ATOM     14  C   UNL     1     -39.695  26.131   1.340  0.00  0.00    +0.169 C 
ATOM     15  C   UNL     1     -40.035  23.932   2.059  0.00  0.00    +0.223 C 
ATOM     16  C   UNL     1     -39.670  26.071   2.827  0.00  0.00    +0.005 C 
ATOM     17  C   UNL     1     -39.863  24.819   3.233  0.00  0.00    +0.022 C 
BRANCH  15  20
ATOM     18  O   UNL     1     -40.452  21.112   2.084  0.00  0.00    -0.252 OA
ATOM     19  O   UNL     1     -35.934  20.269   1.927  0.00  0.00    -0.270 OA
ATOM     20  N   UNL     1     -38.983  22.924   2.025  0.00  0.00    -0.215 N 
ATOM     21  N   UNL     1     -38.196  20.706   2.006  0.00  0.00    -0.236 N 
ATOM     22  C   UNL     1     -37.675  23.362   1.977  0.00  0.00    +0.072 C 
ATOM     23  C   UNL     1     -39.304  21.560   2.042  0.00  0.00    +0.316 C 
ATOM     24  C   UNL     1     -36.617  22.542   1.943  0.00  0.00    +0.047 C 
ATOM     25  C   UNL     1     -36.860  21.074   1.957  0.00  0.00    +0.250 C 
ATOM     26  C   UNL     1     -35.202  23.019   1.891  0.00  0.00    +0.037 C 
ATOM     27  H   UNL     1     -38.385  19.740   2.017  0.00  0.00    +0.159 HD
ENDBRANCH  15  20
ENDBRANCH  12  14
ENDBRANCH  11  12
ENDBRANCH   1  11
BRANCH   1  28
ATOM     28  O   UNL     1     -35.557  27.396   3.174  0.00  0.00    -0.411 OA
BRANCH  28  29
ATOM     29  C   UNL     1     -35.352  26.279   3.940  0.00  0.00    +0.148 C 
ATOM     30  C   UNL     1     -36.430  25.661   4.574  0.00  0.00    +0.037 C 
ATOM     31  C   UNL     1     -34.066  25.760   4.086  0.00  0.00    +0.037 C 
ATOM     32  C   UNL     1     -36.221  24.523   5.355  0.00  0.00    +0.003 C 
ATOM     33  C   UNL     1     -33.857  24.623   4.866  0.00  0.00    +0.003 C 
ATOM     34  C   UNL     1     -34.934  24.005   5.500  0.00  0.00    +0.000 C 
ENDBRANCH  28  29
ENDBRANCH   1  28
TORSDOF 10
ENDMDL
