MODEL 1
REMARK VINA RESULT:      -6.9      0.000      0.000
REMARK  Name = 21599890
REMARK  8 active torsions:
REMARK  status: ('A' for Active; 'I' for Inactive)
REMARK    1  A    between atoms: C_3  and  C_12
REMARK    2  A    between atoms: C_4  and  O_20
REMARK    3  A    between atoms: C_8  and  C_28
REMARK    4  A    between atoms: C_9  and  O_24
REMARK    5  A    between atoms: C_10  and  O_26
REMARK    6  A    between atoms: C_11  and  O_22
REMARK    7  A    between atoms: C_13  and  O_18
REMARK    8  A    between atoms: C_28  and  C_29
REMARK                            x       y       z     vdW  Elec       q    Type
REMARK                         _______ _______ _______ _____ _____    ______ ____
ROOT
ATOM      1  O   UNL     1     -36.405  23.265   2.991  0.00  0.00    -0.472 OA
ATOM      2  O   UNL     1     -40.095  24.848   2.130  0.00  0.00    -0.288 OA
ATOM      3  C   UNL     1     -36.617  24.685   2.978  0.00  0.00    +0.225 C 
ATOM      4  C   UNL     1     -38.048  25.035   3.395  0.00  0.00    +0.217 C 
ATOM      5  C   UNL     1     -37.324  22.560   2.260  0.00  0.00    +0.144 A 
ATOM      6  C   UNL     1     -38.599  23.037   1.946  0.00  0.00    +0.108 A 
ATOM      7  C   UNL     1     -39.016  24.361   2.448  0.00  0.00    +0.210 C 
ATOM      8  C   UNL     1     -36.942  21.283   1.844  0.00  0.00    +0.053 A 
ATOM      9  C   UNL     1     -39.479  22.257   1.190  0.00  0.00    +0.177 A 
ATOM     10  C   UNL     1     -37.820  20.502   1.093  0.00  0.00    +0.170 A 
ATOM     11  C   UNL     1     -39.084  20.989   0.764  0.00  0.00    +0.206 A 
ENDROOT
BRANCH   3  12
ATOM     12  C   UNL     1     -35.595  25.303   3.912  0.00  0.00    +0.054 C 
ATOM     13  C   UNL     1     -35.400  24.793   5.195  0.00  0.00    +0.133 C 
ATOM     14  C   UNL     1     -34.845  26.396   3.475  0.00  0.00    +0.002 C 
ATOM     15  C   UNL     1     -34.455  25.374   6.041  0.00  0.00    +0.036 C 
ATOM     16  C   UNL     1     -33.900  26.976   4.322  0.00  0.00    -0.000 C 
ATOM     17  C   UNL     1     -33.706  26.465   5.605  0.00  0.00    +0.003 C 
BRANCH  13  18
ATOM     18  O   UNL     1     -36.124  23.727   5.638  0.00  0.00    -0.506 OA
ATOM     19  H   UNL     1     -37.054  23.797   5.728  0.00  0.00    +0.292 HD
ENDBRANCH  13  18
ENDBRANCH   3  12
BRANCH   4  20
ATOM     20  O   UNL     1     -38.275  26.432   3.338  0.00  0.00    -0.374 OA
ATOM     21  H   UNL     1     -37.714  26.878   3.993  0.00  0.00    +0.211 HD
ENDBRANCH   4  20
BRANCH  11  22
ATOM     22  O   UNL     1     -39.937  20.221   0.027  0.00  0.00    -0.465 OA
ATOM     23  C   UNL     1     -39.854  20.339  -1.391  0.00  0.00    +0.253 C 
ENDBRANCH  11  22
BRANCH   9  24
ATOM     24  O   UNL     1     -40.730  22.689   0.860  0.00  0.00    -0.503 OA
ATOM     25  H   UNL     1     -41.039  23.516   1.177  0.00  0.00    +0.292 HD
ENDBRANCH   9  24
BRANCH  10  26
ATOM     26  O   UNL     1     -37.446  19.256   0.678  0.00  0.00    -0.503 OA
ATOM     27  H   UNL     1     -37.671  18.963  -0.184  0.00  0.00    +0.292 HD
ENDBRANCH  10  26
BRANCH   8  28
ATOM     28  C   UNL     1     -35.588  20.749   2.191  0.00  0.00    +0.058 C 
BRANCH  28  29
ATOM     29  C   UNL     1     -34.545  21.090   1.158  0.00  0.00    -0.030 C 
ATOM     30  C   UNL     1     -33.515  20.331   0.737  0.00  0.00    -0.048 C 
ATOM     31  C   UNL     1     -33.290  18.961   1.320  0.00  0.00    +0.026 C 
ATOM     32  C   UNL     1     -32.507  20.735  -0.302  0.00  0.00    +0.026 C 
ENDBRANCH  28  29
ENDBRANCH   8  28
TORSDOF 8
ENDMDL
MODEL 2
REMARK VINA RESULT:      -6.8      1.911      6.156
REMARK  Name = 21599890
REMARK  8 active torsions:
REMARK  status: ('A' for Active; 'I' for Inactive)
REMARK    1  A    between atoms: C_3  and  C_12
REMARK    2  A    between atoms: C_4  and  O_20
REMARK    3  A    between atoms: C_8  and  C_28
REMARK    4  A    between atoms: C_9  and  O_24
REMARK    5  A    between atoms: C_10  and  O_26
REMARK    6  A    between atoms: C_11  and  O_22
REMARK    7  A    between atoms: C_13  and  O_18
REMARK    8  A    between atoms: C_28  and  C_29
REMARK                            x       y       z     vdW  Elec       q    Type
REMARK                         _______ _______ _______ _____ _____    ______ ____
ROOT
ATOM      1  O   UNL     1     -35.357  20.692   1.155  0.00  0.00    -0.472 OA
ATOM      2  O   UNL     1     -38.397  18.948  -0.986  0.00  0.00    -0.288 OA
ATOM      3  C   UNL     1     -35.248  19.341   0.679  0.00  0.00    +0.225 C 
ATOM      4  C   UNL     1     -36.018  19.152  -0.630  0.00  0.00    +0.217 C 
ATOM      5  C   UNL     1     -36.647  21.138   1.266  0.00  0.00    +0.144 A 
ATOM      6  C   UNL     1     -37.721  20.597   0.556  0.00  0.00    +0.108 A 
ATOM      7  C   UNL     1     -37.472  19.502  -0.402  0.00  0.00    +0.210 C 
ATOM      8  C   UNL     1     -36.860  22.217   2.127  0.00  0.00    +0.053 A 
ATOM      9  C   UNL     1     -39.011  21.108   0.728  0.00  0.00    +0.177 A 
ATOM     10  C   UNL     1     -38.146  22.730   2.297  0.00  0.00    +0.170 A 
ATOM     11  C   UNL     1     -39.219  22.174   1.603  0.00  0.00    +0.206 A 
ENDROOT
BRANCH   3  12
ATOM     12  C   UNL     1     -33.772  19.039   0.509  0.00  0.00    +0.054 C 
ATOM     13  C   UNL     1     -33.305  17.724   0.533  0.00  0.00    +0.133 C 
ATOM     14  C   UNL     1     -32.876  20.094   0.329  0.00  0.00    +0.002 C 
ATOM     15  C   UNL     1     -31.943  17.465   0.376  0.00  0.00    +0.036 C 
ATOM     16  C   UNL     1     -31.515  19.833   0.172  0.00  0.00    -0.000 C 
ATOM     17  C   UNL     1     -31.049  18.519   0.195  0.00  0.00    +0.003 C 
BRANCH  13  18
ATOM     18  O   UNL     1     -34.165  16.682   0.709  0.00  0.00    -0.506 OA
ATOM     19  H   UNL     1     -34.638  16.596   1.514  0.00  0.00    +0.292 HD
ENDBRANCH  13  18
ENDBRANCH   3  12
BRANCH   4  20
ATOM     20  O   UNL     1     -35.952  17.809  -1.078  0.00  0.00    -0.374 OA
ATOM     21  H   UNL     1     -35.678  17.792  -2.009  0.00  0.00    +0.211 HD
ENDBRANCH   4  20
BRANCH  11  22
ATOM     22  O   UNL     1     -40.474  22.679   1.776  0.00  0.00    -0.465 OA
ATOM     23  C   UNL     1     -40.832  23.808   0.982  0.00  0.00    +0.253 C 
ENDBRANCH  11  22
BRANCH   9  24
ATOM     24  O   UNL     1     -40.085  20.604   0.056  0.00  0.00    -0.503 OA
ATOM     25  H   UNL     1     -40.323  20.957  -0.780  0.00  0.00    +0.292 HD
ENDBRANCH   9  24
BRANCH  10  26
ATOM     26  O   UNL     1     -38.359  23.778   3.145  0.00  0.00    -0.503 OA
ATOM     27  H   UNL     1     -38.769  23.633   3.976  0.00  0.00    +0.292 HD
ENDBRANCH  10  26
BRANCH   8  28
ATOM     28  C   UNL     1     -35.717  22.821   2.879  0.00  0.00    +0.058 C 
BRANCH  28  29
ATOM     29  C   UNL     1     -35.504  22.185   4.228  0.00  0.00    -0.030 C 
ATOM     30  C   UNL     1     -35.449  22.787   5.431  0.00  0.00    -0.048 C 
ATOM     31  C   UNL     1     -35.599  24.281   5.542  0.00  0.00    +0.026 C 
ATOM     32  C   UNL     1     -35.232  22.088   6.743  0.00  0.00    +0.026 C 
ENDBRANCH  28  29
ENDBRANCH   8  28
TORSDOF 8
ENDMDL
MODEL 3
REMARK VINA RESULT:      -6.8      1.711      2.410
REMARK  Name = 21599890
REMARK  8 active torsions:
REMARK  status: ('A' for Active; 'I' for Inactive)
REMARK    1  A    between atoms: C_3  and  C_12
REMARK    2  A    between atoms: C_4  and  O_20
REMARK    3  A    between atoms: C_8  and  C_28
REMARK    4  A    between atoms: C_9  and  O_24
REMARK    5  A    between atoms: C_10  and  O_26
REMARK    6  A    between atoms: C_11  and  O_22
REMARK    7  A    between atoms: C_13  and  O_18
REMARK    8  A    between atoms: C_28  and  C_29
REMARK                            x       y       z     vdW  Elec       q    Type
REMARK                         _______ _______ _______ _____ _____    ______ ____
ROOT
ATOM      1  O   UNL     1     -35.694  21.619   2.385  0.00  0.00    -0.472 OA
ATOM      2  O   UNL     1     -39.553  22.054   1.049  0.00  0.00    -0.288 OA
ATOM      3  C   UNL     1     -36.330  22.907   2.362  0.00  0.00    +0.225 C 
ATOM      4  C   UNL     1     -37.839  22.782   2.585  0.00  0.00    +0.217 C 
ATOM      5  C   UNL     1     -36.252  20.710   1.526  0.00  0.00    +0.144 A 
ATOM      6  C   UNL     1     -37.561  20.794   1.047  0.00  0.00    +0.108 A 
ATOM      7  C   UNL     1     -38.426  21.899   1.506  0.00  0.00    +0.210 C 
ATOM      8  C   UNL     1     -35.446  19.633   1.149  0.00  0.00    +0.053 A 
ATOM      9  C   UNL     1     -38.056  19.827   0.168  0.00  0.00    +0.177 A 
ATOM     10  C   UNL     1     -35.939  18.665   0.274  0.00  0.00    +0.170 A 
ATOM     11  C   UNL     1     -37.239  18.764  -0.218  0.00  0.00    +0.206 A 
ENDROOT
BRANCH   3  12
ATOM     12  C   UNL     1     -35.673  23.754   3.435  0.00  0.00    +0.054 C 
ATOM     13  C   UNL     1     -35.618  23.313   4.758  0.00  0.00    +0.133 C 
ATOM     14  C   UNL     1     -35.120  24.987   3.087  0.00  0.00    +0.002 C 
ATOM     15  C   UNL     1     -35.011  24.106   5.732  0.00  0.00    +0.036 C 
ATOM     16  C   UNL     1     -34.513  25.778   4.062  0.00  0.00    -0.000 C 
ATOM     17  C   UNL     1     -34.458  25.337   5.384  0.00  0.00    +0.003 C 
BRANCH  13  18
ATOM     18  O   UNL     1     -36.154  22.112   5.115  0.00  0.00    -0.506 OA
ATOM     19  H   UNL     1     -36.760  22.063   5.827  0.00  0.00    +0.292 HD
ENDBRANCH  13  18
ENDBRANCH   3  12
BRANCH   4  20
ATOM     20  O   UNL     1     -38.476  24.046   2.516  0.00  0.00    -0.374 OA
ATOM     21  H   UNL     1     -39.325  23.955   2.056  0.00  0.00    +0.211 HD
ENDBRANCH   4  20
BRANCH  11  22
ATOM     22  O   UNL     1     -37.715  17.814  -1.074  0.00  0.00    -0.465 OA
ATOM     23  C   UNL     1     -38.236  16.621  -0.492  0.00  0.00    +0.253 C 
ENDBRANCH  11  22
BRANCH   9  24
ATOM     24  O   UNL     1     -39.327  19.876  -0.324  0.00  0.00    -0.503 OA
ATOM     25  H   UNL     1     -39.644  19.187  -0.875  0.00  0.00    +0.292 HD
ENDBRANCH   9  24
BRANCH  10  26
ATOM     26  O   UNL     1     -35.151  17.616  -0.103  0.00  0.00    -0.503 OA
ATOM     27  H   UNL     1     -35.338  16.753   0.210  0.00  0.00    +0.292 HD
ENDBRANCH  10  26
BRANCH   8  28
ATOM     28  C   UNL     1     -34.048  19.517   1.669  0.00  0.00    +0.058 C 
BRANCH  28  29
ATOM     29  C   UNL     1     -33.026  20.115   0.737  0.00  0.00    -0.030 C 
ATOM     30  C   UNL     1     -31.842  19.595   0.359  0.00  0.00    -0.048 C 
ATOM     31  C   UNL     1     -31.393  18.260   0.890  0.00  0.00    +0.026 C 
ATOM     32  C   UNL     1     -30.867  20.248  -0.579  0.00  0.00    +0.026 C 
ENDBRANCH  28  29
ENDBRANCH   8  28
TORSDOF 8
ENDMDL
MODEL 4
REMARK VINA RESULT:      -6.7      0.882      1.392
REMARK  Name = 21599890
REMARK  8 active torsions:
REMARK  status: ('A' for Active; 'I' for Inactive)
REMARK    1  A    between atoms: C_3  and  C_12
REMARK    2  A    between atoms: C_4  and  O_20
REMARK    3  A    between atoms: C_8  and  C_28
REMARK    4  A    between atoms: C_9  and  O_24
REMARK    5  A    between atoms: C_10  and  O_26
REMARK    6  A    between atoms: C_11  and  O_22
REMARK    7  A    between atoms: C_13  and  O_18
REMARK    8  A    between atoms: C_28  and  C_29
REMARK                            x       y       z     vdW  Elec       q    Type
REMARK                         _______ _______ _______ _____ _____    ______ ____
ROOT
ATOM      1  O   UNL     1     -37.036  23.039   2.890  0.00  0.00    -0.472 OA
ATOM      2  O   UNL     1     -40.612  24.836   1.971  0.00  0.00    -0.288 OA
ATOM      3  C   UNL     1     -37.192  24.464   2.972  0.00  0.00    +0.225 C 
ATOM      4  C   UNL     1     -38.627  24.843   3.344  0.00  0.00    +0.217 C 
ATOM      5  C   UNL     1     -37.943  22.428   2.066  0.00  0.00    +0.144 A 
ATOM      6  C   UNL     1     -39.180  22.980   1.727  0.00  0.00    +0.108 A 
ATOM      7  C   UNL     1     -39.571  24.281   2.304  0.00  0.00    +0.210 C 
ATOM      8  C   UNL     1     -37.590  21.169   1.576  0.00  0.00    +0.053 A 
ATOM      9  C   UNL     1     -40.050  22.294   0.874  0.00  0.00    +0.177 A 
ATOM     10  C   UNL     1     -38.459  20.481   0.728  0.00  0.00    +0.170 A 
ATOM     11  C   UNL     1     -39.684  21.044   0.375  0.00  0.00    +0.206 A 
ENDROOT
BRANCH   3  12
ATOM     12  C   UNL     1     -36.195  24.970   3.997  0.00  0.00    +0.054 C 
ATOM     13  C   UNL     1     -35.656  26.253   3.896  0.00  0.00    +0.133 C 
ATOM     14  C   UNL     1     -35.816  24.136   5.049  0.00  0.00    +0.002 C 
ATOM     15  C   UNL     1     -34.740  26.701   4.847  0.00  0.00    +0.036 C 
ATOM     16  C   UNL     1     -34.900  24.585   6.000  0.00  0.00    -0.000 C 
ATOM     17  C   UNL     1     -34.362  25.868   5.898  0.00  0.00    +0.003 C 
BRANCH  13  18
ATOM     18  O   UNL     1     -36.014  27.080   2.873  0.00  0.00    -0.506 OA
ATOM     19  H   UNL     1     -35.927  28.008   2.969  0.00  0.00    +0.292 HD
ENDBRANCH  13  18
ENDBRANCH   3  12
BRANCH   4  20
ATOM     20  O   UNL     1     -38.796  26.250   3.379  0.00  0.00    -0.374 OA
ATOM     21  H   UNL     1     -39.486  26.508   2.748  0.00  0.00    +0.211 HD
ENDBRANCH   4  20
BRANCH  11  22
ATOM     22  O   UNL     1     -40.527  20.368  -0.456  0.00  0.00    -0.465 OA
ATOM     23  C   UNL     1     -40.368  20.585  -1.857  0.00  0.00    +0.253 C 
ENDBRANCH  11  22
BRANCH   9  24
ATOM     24  O   UNL     1     -41.265  22.802   0.517  0.00  0.00    -0.503 OA
ATOM     25  H   UNL     1     -41.326  23.670   0.169  0.00  0.00    +0.292 HD
ENDBRANCH   9  24
BRANCH  10  26
ATOM     26  O   UNL     1     -38.113  19.254   0.241  0.00  0.00    -0.503 OA
ATOM     27  H   UNL     1     -38.288  18.483   0.745  0.00  0.00    +0.292 HD
ENDBRANCH  10  26
BRANCH   8  28
ATOM     28  C   UNL     1     -36.277  20.554   1.947  0.00  0.00    +0.058 C 
BRANCH  28  29
ATOM     29  C   UNL     1     -35.140  21.046   1.090  0.00  0.00    -0.030 C 
ATOM     30  C   UNL     1     -33.955  20.448   0.859  0.00  0.00    -0.048 C 
ATOM     31  C   UNL     1     -33.633  19.125   1.500  0.00  0.00    +0.026 C 
ATOM     32  C   UNL     1     -32.861  20.998  -0.012  0.00  0.00    +0.026 C 
ENDBRANCH  28  29
ENDBRANCH   8  28
TORSDOF 8
ENDMDL
MODEL 5
REMARK VINA RESULT:      -6.7      1.509      5.944
REMARK  Name = 21599890
REMARK  8 active torsions:
REMARK  status: ('A' for Active; 'I' for Inactive)
REMARK    1  A    between atoms: C_3  and  C_12
REMARK    2  A    between atoms: C_4  and  O_20
REMARK    3  A    between atoms: C_8  and  C_28
REMARK    4  A    between atoms: C_9  and  O_24
REMARK    5  A    between atoms: C_10  and  O_26
REMARK    6  A    between atoms: C_11  and  O_22
REMARK    7  A    between atoms: C_13  and  O_18
REMARK    8  A    between atoms: C_28  and  C_29
REMARK                            x       y       z     vdW  Elec       q    Type
REMARK                         _______ _______ _______ _____ _____    ______ ____
ROOT
ATOM      1  O   UNL     1     -35.108  21.825   2.083  0.00  0.00    -0.472 OA
ATOM      2  O   UNL     1     -38.643  20.755   0.287  0.00  0.00    -0.288 OA
ATOM      3  C   UNL     1     -35.282  20.520   1.506  0.00  0.00    +0.225 C 
ATOM      4  C   UNL     1     -36.237  20.567   0.311  0.00  0.00    +0.217 C 
ATOM      5  C   UNL     1     -36.283  22.449   2.406  0.00  0.00    +0.144 A 
ATOM      6  C   UNL     1     -37.514  22.141   1.822  0.00  0.00    +0.108 A 
ATOM      7  C   UNL     1     -37.573  21.110   0.768  0.00  0.00    +0.210 C 
ATOM      8  C   UNL     1     -36.205  23.467   3.359  0.00  0.00    +0.053 A 
ATOM      9  C   UNL     1     -38.671  22.822   2.212  0.00  0.00    +0.177 A 
ATOM     10  C   UNL     1     -37.358  24.150   3.746  0.00  0.00    +0.170 A 
ATOM     11  C   UNL     1     -38.589  23.826   3.177  0.00  0.00    +0.206 A 
ENDROOT
BRANCH   3  12
ATOM     12  C   UNL     1     -33.908  20.016   1.107  0.00  0.00    +0.054 C 
ATOM     13  C   UNL     1     -33.062  20.798   0.320  0.00  0.00    +0.133 C 
ATOM     14  C   UNL     1     -33.494  18.754   1.534  0.00  0.00    +0.002 C 
ATOM     15  C   UNL     1     -31.802  20.319  -0.038  0.00  0.00    +0.036 C 
ATOM     16  C   UNL     1     -32.234  18.276   1.175  0.00  0.00    -0.000 C 
ATOM     17  C   UNL     1     -31.389  19.058   0.389  0.00  0.00    +0.003 C 
BRANCH  13  18
ATOM     18  O   UNL     1     -33.451  22.033  -0.107  0.00  0.00    -0.506 OA
ATOM     19  H   UNL     1     -32.857  22.756  -0.054  0.00  0.00    +0.292 HD
ENDBRANCH  13  18
ENDBRANCH   3  12
BRANCH   4  20
ATOM     20  O   UNL     1     -36.448  19.274  -0.231  0.00  0.00    -0.374 OA
ATOM     21  H   UNL     1     -36.844  18.702   0.444  0.00  0.00    +0.211 HD
ENDBRANCH   4  20
BRANCH  11  22
ATOM     22  O   UNL     1     -39.713  24.497   3.561  0.00  0.00    -0.465 OA
ATOM     23  C   UNL     1     -40.027  25.692   2.850  0.00  0.00    +0.253 C 
ENDBRANCH  11  22
BRANCH   9  24
ATOM     24  O   UNL     1     -39.891  22.548   1.668  0.00  0.00    -0.503 OA
ATOM     25  H   UNL     1     -40.051  22.723   0.761  0.00  0.00    +0.292 HD
ENDBRANCH   9  24
BRANCH  10  26
ATOM     26  O   UNL     1     -37.287  25.139   4.684  0.00  0.00    -0.503 OA
ATOM     27  H   UNL     1     -36.454  25.490   4.933  0.00  0.00    +0.292 HD
ENDBRANCH  10  26
BRANCH   8  28
ATOM     28  C   UNL     1     -34.891  23.823   3.979  0.00  0.00    +0.058 C 
BRANCH  28  29
ATOM     29  C   UNL     1     -34.323  25.111   3.443  0.00  0.00    -0.030 C 
ATOM     30  C   UNL     1     -33.896  26.183   4.138  0.00  0.00    -0.048 C 
ATOM     31  C   UNL     1     -33.965  26.192   5.642  0.00  0.00    +0.026 C 
ATOM     32  C   UNL     1     -33.339  27.442   3.536  0.00  0.00    +0.026 C 
ENDBRANCH  28  29
ENDBRANCH   8  28
TORSDOF 8
ENDMDL
MODEL 6
REMARK VINA RESULT:      -6.0      2.738      4.468
REMARK  Name = 21599890
REMARK  8 active torsions:
REMARK  status: ('A' for Active; 'I' for Inactive)
REMARK    1  A    between atoms: C_3  and  C_12
REMARK    2  A    between atoms: C_4  and  O_20
REMARK    3  A    between atoms: C_8  and  C_28
REMARK    4  A    between atoms: C_9  and  O_24
REMARK    5  A    between atoms: C_10  and  O_26
REMARK    6  A    between atoms: C_11  and  O_22
REMARK    7  A    between atoms: C_13  and  O_18
REMARK    8  A    between atoms: C_28  and  C_29
REMARK                            x       y       z     vdW  Elec       q    Type
REMARK                         _______ _______ _______ _____ _____    ______ ____
ROOT
ATOM      1  O   UNL     1     -34.783  20.230   1.663  0.00  0.00    -0.472 OA
ATOM      2  O   UNL     1     -38.398  19.880  -0.255  0.00  0.00    -0.288 OA
ATOM      3  C   UNL     1     -35.612  21.380   1.427  0.00  0.00    +0.225 C 
ATOM      4  C   UNL     1     -37.095  21.005   1.438  0.00  0.00    +0.217 C 
ATOM      5  C   UNL     1     -35.039  19.180   0.823  0.00  0.00    +0.144 A 
ATOM      6  C   UNL     1     -36.251  18.998   0.153  0.00  0.00    +0.108 A 
ATOM      7  C   UNL     1     -37.348  19.960   0.373  0.00  0.00    +0.210 C 
ATOM      8  C   UNL     1     -34.017  18.241   0.671  0.00  0.00    +0.053 A 
ATOM      9  C   UNL     1     -36.432  17.900  -0.694  0.00  0.00    +0.177 A 
ATOM     10  C   UNL     1     -34.197  17.143  -0.171  0.00  0.00    +0.170 A 
ATOM     11  C   UNL     1     -35.400  16.975  -0.854  0.00  0.00    +0.206 A 
ENDROOT
BRANCH   3  12
ATOM     12  C   UNL     1     -35.284  22.401   2.499  0.00  0.00    +0.054 C 
ATOM     13  C   UNL     1     -35.298  22.049   3.848  0.00  0.00    +0.133 C 
ATOM     14  C   UNL     1     -34.966  23.707   2.122  0.00  0.00    +0.002 C 
ATOM     15  C   UNL     1     -34.994  23.001   4.821  0.00  0.00    +0.036 C 
ATOM     16  C   UNL     1     -34.663  24.659   3.096  0.00  0.00    -0.000 C 
ATOM     17  C   UNL     1     -34.677  24.306   4.445  0.00  0.00    +0.003 C 
BRANCH  13  18
ATOM     18  O   UNL     1     -35.607  20.779   4.233  0.00  0.00    -0.506 OA
ATOM     19  H   UNL     1     -34.927  20.193   4.504  0.00  0.00    +0.292 HD
ENDBRANCH  13  18
ENDBRANCH   3  12
BRANCH   4  20
ATOM     20  O   UNL     1     -37.913  22.127   1.158  0.00  0.00    -0.374 OA
ATOM     21  H   UNL     1     -37.993  22.237   0.197  0.00  0.00    +0.211 HD
ENDBRANCH   4  20
BRANCH  11  22
ATOM     22  O   UNL     1     -35.569  15.900  -1.677  0.00  0.00    -0.465 OA
ATOM     23  C   UNL     1     -35.181  16.061  -3.039  0.00  0.00    +0.253 C 
ENDBRANCH  11  22
BRANCH   9  24
ATOM     24  O   UNL     1     -37.599  17.689  -1.368  0.00  0.00    -0.503 OA
ATOM     25  H   UNL     1     -38.387  18.110  -1.084  0.00  0.00    +0.292 HD
ENDBRANCH   9  24
BRANCH  10  26
ATOM     26  O   UNL     1     -33.196  16.228  -0.328  0.00  0.00    -0.503 OA
ATOM     27  H   UNL     1     -33.260  15.389   0.083  0.00  0.00    +0.292 HD
ENDBRANCH  10  26
BRANCH   8  28
ATOM     28  C   UNL     1     -32.720  18.412   1.398  0.00  0.00    +0.058 C 
BRANCH  28  29
ATOM     29  C   UNL     1     -31.730  19.255   0.636  0.00  0.00    -0.030 C 
ATOM     30  C   UNL     1     -30.515  18.898   0.178  0.00  0.00    -0.048 C 
ATOM     31  C   UNL     1     -29.990  17.507   0.416  0.00  0.00    +0.026 C 
ATOM     32  C   UNL     1     -29.575  19.794  -0.578  0.00  0.00    +0.026 C 
ENDBRANCH  28  29
ENDBRANCH   8  28
TORSDOF 8
ENDMDL
MODEL 7
REMARK VINA RESULT:      -6.0      2.512      6.597
REMARK  Name = 21599890
REMARK  8 active torsions:
REMARK  status: ('A' for Active; 'I' for Inactive)
REMARK    1  A    between atoms: C_3  and  C_12
REMARK    2  A    between atoms: C_4  and  O_20
REMARK    3  A    between atoms: C_8  and  C_28
REMARK    4  A    between atoms: C_9  and  O_24
REMARK    5  A    between atoms: C_10  and  O_26
REMARK    6  A    between atoms: C_11  and  O_22
REMARK    7  A    between atoms: C_13  and  O_18
REMARK    8  A    between atoms: C_28  and  C_29
REMARK                            x       y       z     vdW  Elec       q    Type
REMARK                         _______ _______ _______ _____ _____    ______ ____
ROOT
ATOM      1  O   UNL     1     -36.283  24.521   2.058  0.00  0.00    -0.472 OA
ATOM      2  O   UNL     1     -38.107  28.004   0.871  0.00  0.00    -0.288 OA
ATOM      3  C   UNL     1     -37.678  24.548   1.718  0.00  0.00    +0.225 C 
ATOM      4  C   UNL     1     -37.966  25.604   0.648  0.00  0.00    +0.217 C 
ATOM      5  C   UNL     1     -35.775  25.743   2.412  0.00  0.00    +0.144 A 
ATOM      6  C   UNL     1     -36.340  26.961   2.030  0.00  0.00    +0.108 A 
ATOM      7  C   UNL     1     -37.536  26.960   1.164  0.00  0.00    +0.210 C 
ATOM      8  C   UNL     1     -34.607  25.733   3.178  0.00  0.00    +0.053 A 
ATOM      9  C   UNL     1     -35.763  28.167   2.437  0.00  0.00    +0.177 A 
ATOM     10  C   UNL     1     -34.027  26.935   3.583  0.00  0.00    +0.170 A 
ATOM     11  C   UNL     1     -34.606  28.149   3.216  0.00  0.00    +0.206 A 
ENDROOT
BRANCH   3  12
ATOM     12  C   UNL     1     -38.056  23.157   1.248  0.00  0.00    +0.054 C 
ATOM     13  C   UNL     1     -39.324  22.636   1.507  0.00  0.00    +0.133 C 
ATOM     14  C   UNL     1     -37.118  22.395   0.551  0.00  0.00    +0.002 C 
ATOM     15  C   UNL     1     -39.654  21.354   1.068  0.00  0.00    +0.036 C 
ATOM     16  C   UNL     1     -37.449  21.113   0.112  0.00  0.00    -0.000 C 
ATOM     17  C   UNL     1     -38.717  20.593   0.371  0.00  0.00    +0.003 C 
BRANCH  13  18
ATOM     18  O   UNL     1     -40.251  23.366   2.188  0.00  0.00    -0.506 OA
ATOM     19  H   UNL     1     -40.687  24.081   1.766  0.00  0.00    +0.292 HD
ENDBRANCH  13  18
ENDBRANCH   3  12
BRANCH   4  20
ATOM     20  O   UNL     1     -39.349  25.666   0.344  0.00  0.00    -0.374 OA
ATOM     21  H   UNL     1     -39.633  26.594   0.321  0.00  0.00    +0.211 HD
ENDBRANCH   4  20
BRANCH  11  22
ATOM     22  O   UNL     1     -34.035  29.322   3.617  0.00  0.00    -0.465 OA
ATOM     23  C   UNL     1     -33.034  29.877   2.766  0.00  0.00    +0.253 C 
ENDBRANCH  11  22
BRANCH   9  24
ATOM     24  O   UNL     1     -36.287  29.377   2.087  0.00  0.00    -0.503 OA
ATOM     25  H   UNL     1     -37.026  29.719   2.552  0.00  0.00    +0.292 HD
ENDBRANCH   9  24
BRANCH  10  26
ATOM     26  O   UNL     1     -32.891  26.929   4.339  0.00  0.00    -0.503 OA
ATOM     27  H   UNL     1     -32.275  26.228   4.252  0.00  0.00    +0.292 HD
ENDBRANCH  10  26
BRANCH   8  28
ATOM     28  C   UNL     1     -33.977  24.436   3.579  0.00  0.00    +0.058 C 
BRANCH  28  29
ATOM     29  C   UNL     1     -34.518  23.902   4.880  0.00  0.00    -0.030 C 
ATOM     30  C   UNL     1     -35.164  22.740   5.097  0.00  0.00    -0.048 C 
ATOM     31  C   UNL     1     -35.435  21.796   3.956  0.00  0.00    +0.026 C 
ATOM     32  C   UNL     1     -35.679  22.268   6.427  0.00  0.00    +0.026 C 
ENDBRANCH  28  29
ENDBRANCH   8  28
TORSDOF 8
ENDMDL
MODEL 8
REMARK VINA RESULT:      -5.9      1.901      4.414
REMARK  Name = 21599890
REMARK  8 active torsions:
REMARK  status: ('A' for Active; 'I' for Inactive)
REMARK    1  A    between atoms: C_3  and  C_12
REMARK    2  A    between atoms: C_4  and  O_20
REMARK    3  A    between atoms: C_8  and  C_28
REMARK    4  A    between atoms: C_9  and  O_24
REMARK    5  A    between atoms: C_10  and  O_26
REMARK    6  A    between atoms: C_11  and  O_22
REMARK    7  A    between atoms: C_13  and  O_18
REMARK    8  A    between atoms: C_28  and  C_29
REMARK                            x       y       z     vdW  Elec       q    Type
REMARK                         _______ _______ _______ _____ _____    ______ ____
ROOT
ATOM      1  O   UNL     1     -37.602  22.972   2.134  0.00  0.00    -0.472 OA
ATOM      2  O   UNL     1     -36.516  19.230   0.836  0.00  0.00    -0.288 OA
ATOM      3  C   UNL     1     -36.622  22.196   2.843  0.00  0.00    +0.225 C 
ATOM      4  C   UNL     1     -35.837  21.293   1.890  0.00  0.00    +0.217 C 
ATOM      5  C   UNL     1     -38.440  22.224   1.351  0.00  0.00    +0.144 A 
ATOM      6  C   UNL     1     -38.124  20.953   0.867  0.00  0.00    +0.108 A 
ATOM      7  C   UNL     1     -36.802  20.373   1.175  0.00  0.00    +0.210 C 
ATOM      8  C   UNL     1     -39.662  22.809   1.013  0.00  0.00    +0.053 A 
ATOM      9  C   UNL     1     -39.038  20.251   0.075  0.00  0.00    +0.177 A 
ATOM     10  C   UNL     1     -40.574  22.111   0.220  0.00  0.00    +0.170 A 
ATOM     11  C   UNL     1     -40.264  20.834  -0.244  0.00  0.00    +0.206 A 
ENDROOT
BRANCH   3  12
ATOM     12  C   UNL     1     -35.713  23.170   3.569  0.00  0.00    +0.054 C 
ATOM     13  C   UNL     1     -35.569  23.114   4.955  0.00  0.00    +0.133 C 
ATOM     14  C   UNL     1     -35.019  24.131   2.834  0.00  0.00    +0.002 C 
ATOM     15  C   UNL     1     -34.729  24.018   5.606  0.00  0.00    +0.036 C 
ATOM     16  C   UNL     1     -34.179  25.035   3.486  0.00  0.00    -0.000 C 
ATOM     17  C   UNL     1     -34.035  24.977   4.872  0.00  0.00    +0.003 C 
BRANCH  13  18
ATOM     18  O   UNL     1     -36.241  22.182   5.688  0.00  0.00    -0.506 OA
ATOM     19  H   UNL     1     -35.845  21.813   6.453  0.00  0.00    +0.292 HD
ENDBRANCH  13  18
ENDBRANCH   3  12
BRANCH   4  20
ATOM     20  O   UNL     1     -34.902  20.491   2.592  0.00  0.00    -0.374 OA
ATOM     21  H   UNL     1     -35.086  20.539   3.544  0.00  0.00    +0.211 HD
ENDBRANCH   4  20
BRANCH  11  22
ATOM     22  O   UNL     1     -41.161  20.157  -1.017  0.00  0.00    -0.465 OA
ATOM     23  C   UNL     1     -41.080  20.357  -2.427  0.00  0.00    +0.253 C 
ENDBRANCH  11  22
BRANCH   9  24
ATOM     24  O   UNL     1     -38.768  19.006  -0.413  0.00  0.00    -0.503 OA
ATOM     25  H   UNL     1     -39.338  18.618  -1.047  0.00  0.00    +0.292 HD
ENDBRANCH   9  24
BRANCH  10  26
ATOM     26  O   UNL     1     -41.773  22.677  -0.105  0.00  0.00    -0.503 OA
ATOM     27  H   UNL     1     -41.890  23.076  -0.945  0.00  0.00    +0.292 HD
ENDBRANCH  10  26
BRANCH   8  28
ATOM     28  C   UNL     1     -40.007  24.179   1.506  0.00  0.00    +0.058 C 
BRANCH  28  29
ATOM     29  C   UNL     1     -39.440  25.272   0.638  0.00  0.00    -0.030 C 
ATOM     30  C   UNL     1     -38.534  26.211   0.970  0.00  0.00    -0.048 C 
ATOM     31  C   UNL     1     -37.966  26.261   2.364  0.00  0.00    +0.026 C 
ATOM     32  C   UNL     1     -38.010  27.277   0.049  0.00  0.00    +0.026 C 
ENDBRANCH  28  29
ENDBRANCH   8  28
TORSDOF 8
ENDMDL
MODEL 9
REMARK VINA RESULT:      -5.8      2.260      5.170
REMARK  Name = 21599890
REMARK  8 active torsions:
REMARK  status: ('A' for Active; 'I' for Inactive)
REMARK    1  A    between atoms: C_3  and  C_12
REMARK    2  A    between atoms: C_4  and  O_20
REMARK    3  A    between atoms: C_8  and  C_28
REMARK    4  A    between atoms: C_9  and  O_24
REMARK    5  A    between atoms: C_10  and  O_26
REMARK    6  A    between atoms: C_11  and  O_22
REMARK    7  A    between atoms: C_13  and  O_18
REMARK    8  A    between atoms: C_28  and  C_29
REMARK                            x       y       z     vdW  Elec       q    Type
REMARK                         _______ _______ _______ _____ _____    ______ ____
ROOT
ATOM      1  O   UNL     1     -37.916  22.397   1.576  0.00  0.00    -0.472 OA
ATOM      2  O   UNL     1     -39.958  19.695  -0.746  0.00  0.00    -0.288 OA
ATOM      3  C   UNL     1     -39.054  22.800   0.797  0.00  0.00    +0.225 C 
ATOM      4  C   UNL     1     -40.061  21.656   0.657  0.00  0.00    +0.217 C 
ATOM      5  C   UNL     1     -37.313  21.253   1.126  0.00  0.00    +0.144 A 
ATOM      6  C   UNL     1     -37.956  20.290   0.345  0.00  0.00    +0.108 A 
ATOM      7  C   UNL     1     -39.379  20.476   0.001  0.00  0.00    +0.210 C 
ATOM      8  C   UNL     1     -35.985  21.057   1.511  0.00  0.00    +0.053 A 
ATOM      9  C   UNL     1     -37.268  19.149  -0.079  0.00  0.00    +0.177 A 
ATOM     10  C   UNL     1     -35.298  19.917   1.092  0.00  0.00    +0.170 A 
ATOM     11  C   UNL     1     -35.937  18.968   0.296  0.00  0.00    +0.206 A 
ENDROOT
BRANCH   3  12
ATOM     12  C   UNL     1     -39.667  24.006   1.483  0.00  0.00    +0.054 C 
ATOM     13  C   UNL     1     -40.297  25.005   0.741  0.00  0.00    +0.133 C 
ATOM     14  C   UNL     1     -39.595  24.110   2.872  0.00  0.00    +0.002 C 
ATOM     15  C   UNL     1     -40.855  26.108   1.387  0.00  0.00    +0.036 C 
ATOM     16  C   UNL     1     -40.153  25.213   3.519  0.00  0.00    -0.000 C 
ATOM     17  C   UNL     1     -40.783  26.211   2.776  0.00  0.00    +0.003 C 
BRANCH  13  18
ATOM     18  O   UNL     1     -40.376  24.919  -0.617  0.00  0.00    -0.506 OA
ATOM     19  H   UNL     1     -39.725  25.331  -1.151  0.00  0.00    +0.292 HD
ENDBRANCH  13  18
ENDBRANCH   3  12
BRANCH   4  20
ATOM     20  O   UNL     1     -41.163  22.035  -0.150  0.00  0.00    -0.374 OA
ATOM     21  H   UNL     1     -41.812  22.510   0.392  0.00  0.00    +0.211 HD
ENDBRANCH   4  20
BRANCH  11  22
ATOM     22  O   UNL     1     -35.258  17.857  -0.112  0.00  0.00    -0.465 OA
ATOM     23  C   UNL     1     -34.518  17.961  -1.326  0.00  0.00    +0.253 C 
ENDBRANCH  11  22
BRANCH   9  24
ATOM     24  O   UNL     1     -37.860  18.189  -0.845  0.00  0.00    -0.503 OA
ATOM     25  H   UNL     1     -37.429  17.871  -1.614  0.00  0.00    +0.292 HD
ENDBRANCH   9  24
BRANCH  10  26
ATOM     26  O   UNL     1     -33.997  19.727   1.460  0.00  0.00    -0.503 OA
ATOM     27  H   UNL     1     -33.764  19.716   2.368  0.00  0.00    +0.292 HD
ENDBRANCH  10  26
BRANCH   8  28
ATOM     28  C   UNL     1     -35.288  22.069   2.365  0.00  0.00    +0.058 C 
BRANCH  28  29
ATOM     29  C   UNL     1     -35.295  21.704   3.826  0.00  0.00    -0.030 C 
ATOM     30  C   UNL     1     -35.576  22.497   4.879  0.00  0.00    -0.048 C 
ATOM     31  C   UNL     1     -35.930  23.945   4.668  0.00  0.00    +0.026 C 
ATOM     32  C   UNL     1     -35.564  22.065   6.318  0.00  0.00    +0.026 C 
ENDBRANCH  28  29
ENDBRANCH   8  28
TORSDOF 8
ENDMDL
